data_str_m1_o10_o16_pcu_sym.263
_audit_creation_date              2020-01-03
_audit_creation_method            'Materials Studio'
_symmetry_space_group_name_H-M    'P1'
_symmetry_Int_Tables_number       1
_symmetry_cell_setting            triclinic
loop_
_symmetry_equiv_pos_as_xyz
  x,y,z
_cell_length_a                    32.7044
_cell_length_b                    32.5277
_cell_length_c                    30.6735
_cell_angle_alpha                 97.1081
_cell_angle_beta                  75.0193
_cell_angle_gamma                 99.0798
loop_
_atom_site_label
_atom_site_type_symbol
_atom_site_fract_x
_atom_site_fract_y
_atom_site_fract_z
_atom_site_U_iso_or_equiv
_atom_site_adp_type
_atom_site_occupancy
C1     C     0.05290   0.15962   0.25915   0.00000  Uiso   1.00
C2     C     0.18386   0.16616   0.05224   0.00000  Uiso   1.00
C3     C     0.19682   0.09663   0.06197   0.00000  Uiso   1.00
C4     C     0.28072   0.17391   0.24045   0.00000  Uiso   1.00
C5     C     0.13417   0.18913   0.42234   0.00000  Uiso   1.00
C6     C     0.32599   0.17834   0.23989   0.00000  Uiso   1.00
C7     C     0.00722   0.15403   0.26361   0.00000  Uiso   1.00
C8     C     0.18538   0.32357   0.24078   0.00000  Uiso   1.00
C9     C     0.15239   0.01133   0.26063   0.00000  Uiso   1.00
C10    C     0.15548   0.05579   0.26037   0.00000  Uiso   1.00
C11    C     0.17770   0.27816   0.24117   0.00000  Uiso   1.00
C12    C     0.10716   0.23064   0.49391   0.00000  Uiso   1.00
C13    C     0.18498   0.14801   0.12884   0.00000  Uiso   1.00
C14    C     0.14709   0.18388   0.37158   0.00000  Uiso   1.00
C15    C     0.18961   0.08233   0.01950   0.00000  Uiso   1.00
C16    C     0.19169   0.13808   0.07966   0.00000  Uiso   1.00
C17    C     0.11407   0.22418   0.44626   0.00000  Uiso   1.00
C18    C     0.25258   0.07347   0.07940   0.00000  Uiso   1.00
C19    C     0.27092   0.03999   0.04303   0.00000  Uiso   1.00
C20    C     0.31917   0.04256   0.03581   0.00000  Uiso   1.00
C21    C     0.32964   0.10122   0.31400   0.00000  Uiso   1.00
C22    C     0.01340   0.06037   0.29185   0.00000  Uiso   1.00
C23    C     0.12263   0.20428   0.01703   0.00000  Uiso   1.00
C24    C     0.03430   0.04186   0.32264   0.00000  Uiso   1.00
C25    C     0.22909   0.01086   0.21928   0.00000  Uiso   1.00
C26    C     0.20503   0.04734   0.40617   0.00000  Uiso   1.00
C27    C     0.20276   0.00395   0.38053   0.00000  Uiso   1.00
C28    C     0.24239   0.33283   0.34210   0.00000  Uiso   1.00
C29    C     0.19554   0.21216   0.06091   0.00000  Uiso   1.00
C30    C     0.09792   0.25319   0.42295   0.00000  Uiso   1.00
C31    C     0.08125   0.17331   0.08073   0.00000  Uiso   1.00
C32    C     0.03606   0.18543   0.09572   0.00000  Uiso   1.00
C33    C     0.00421   0.14977   0.11748   0.00000  Uiso   1.00
C34    C     0.14699   0.17266   0.49241   0.00000  Uiso   1.00
C35    C     0.08285   0.26436   0.02056   0.00000  Uiso   1.00
C36    C     0.11937   0.09597   0.39997   0.00000  Uiso   1.00
C37    C     0.14337   0.15980   0.44787   0.00000  Uiso   1.00
C38    C     0.16916   0.14964   0.01305   0.00000  Uiso   1.00
C39    C     0.17509   0.10813   0.49497   0.00000  Uiso   1.00
C40    C     0.16365   0.09206   0.45430   0.00000  Uiso   1.00
C41    C     0.14520   0.11704   0.43215   0.00000  Uiso   1.00
H42    H     0.12072   0.32830   0.27372   0.00000  Uiso   1.00
H43    H     0.00186   0.07337   0.02412   0.00000  Uiso   1.00
H44    H     0.30234   0.09338   0.34318   0.00000  Uiso   1.00
H45    H     0.02021   0.12259   0.32895   0.00000  Uiso   1.00
H46    H     0.32012   0.03744   0.28402   0.00000  Uiso   1.00
H47    H     0.03712   0.06555   0.25933   0.00000  Uiso   1.00
H48    H     0.06382   0.06248   0.32651   0.00000  Uiso   1.00
H49    H     0.04300   0.01071   0.30733   0.00000  Uiso   1.00
H50    H     0.01213   0.03819   0.35651   0.00000  Uiso   1.00
H51    H     0.26604   0.06031   0.18921   0.00000  Uiso   1.00
H52    H     0.23185   0.05162   0.42314   0.00000  Uiso   1.00
H53    H     0.19295   0.05006   0.00722   0.00000  Uiso   1.00
H54    H     0.21154   0.07116   0.38111   0.00000  Uiso   1.00
H55    H     0.19939   0.31316   0.40437   0.00000  Uiso   1.00
H56    H     0.17446   0.33186   0.36585   0.00000  Uiso   1.00
H57    H     0.27130   0.00437   0.35566   0.00000  Uiso   1.00
H58    H     0.23963   0.30097   0.32441   0.00000  Uiso   1.00
H59    H     0.24540   0.02262   0.31731   0.00000  Uiso   1.00
H60    H     0.22106   0.26673   0.03387   0.00000  Uiso   1.00
H61    H     0.05535   0.26149   0.38861   0.00000  Uiso   1.00
H62    H     0.09004   0.16451   0.11066   0.00000  Uiso   1.00
H63    H     0.08157   0.14484   0.05630   0.00000  Uiso   1.00
H64    H     0.01437   0.20207   0.22026   0.00000  Uiso   1.00
H65    H     0.03545   0.21344   0.12053   0.00000  Uiso   1.00
H66    H     0.02642   0.19317   0.06584   0.00000  Uiso   1.00
H67    H     0.00459   0.12145   0.09329   0.00000  Uiso   1.00
H68    H     0.30489   0.15893   0.12711   0.00000  Uiso   1.00
H69    H     0.01243   0.14225   0.14825   0.00000  Uiso   1.00
H70    H     0.03149   0.29481   0.03168   0.00000  Uiso   1.00
H71    H     0.06803   0.12616   0.42952   0.00000  Uiso   1.00
H72    H     0.26001   0.06880   0.11160   0.00000  Uiso   1.00
H73    H     0.26887   0.10520   0.07022   0.00000  Uiso   1.00
H74    H     0.25563   0.00854   0.05341   0.00000  Uiso   1.00
H75    H     0.26408   0.04413   0.01035   0.00000  Uiso   1.00
H76    H     0.32726   0.03796   0.06774   0.00000  Uiso   1.00
H77    H     0.33124   0.01780   0.00945   0.00000  Uiso   1.00
O78    O     0.16667   0.16667   0.25000   0.00000  Uiso   1.00
O79    O     0.15451   0.12637   0.15459   0.00000  Uiso   1.00
O80    O     0.12940   0.20391   0.34968   0.00000  Uiso   1.00
O81    O     0.20824   0.17759   0.14606   0.00000  Uiso   1.00
O82    O     0.17451   0.15880   0.34968   0.00000  Uiso   1.00
O83    O     0.20755   0.06922   0.08698   0.00000  Uiso   1.00
O84    O     0.31378   0.11953   0.28312   0.00000  Uiso   1.00
O85    O     0.26028   0.32683   0.21680   0.00000  Uiso   1.00
O86    O     0.23483   0.04959   0.20166   0.00000  Uiso   1.00
O87    O     0.16601   0.05043   0.43893   0.00000  Uiso   1.00
O88    O     0.18713   0.22950   0.09924   0.00000  Uiso   1.00
O89    O     0.17930   0.08019   0.28214   0.00000  Uiso   1.00
O90    O     0.21531   0.23584   0.02426   0.00000  Uiso   1.00
O91    O     0.11256   0.29015   0.42379   0.00000  Uiso   1.00
O92    O     0.06402   0.23867   0.40272   0.00000  Uiso   1.00
O93    O     0.11080   0.20802   0.06409   0.00000  Uiso   1.00
O94    O     0.09526   0.28525   0.05179   0.00000  Uiso   1.00
O95    O     0.04537   0.27165   0.01062   0.00000  Uiso   1.00
O96    O     0.13278   0.06825   0.37184   0.00000  Uiso   1.00
O97    O     0.07895   0.10647   0.40218   0.00000  Uiso   1.00
O98    O     0.14632   0.26085   0.27013   0.00000  Uiso   1.00
O99    O     0.07412   0.13291   0.23413   0.00000  Uiso   1.00
O100   O     0.26693   0.19272   0.21361   0.00000  Uiso   1.00
O101   O     0.07071   0.18878   0.28213   0.00000  Uiso   1.00
O102   O     0.25491   0.15226   0.27014   0.00000  Uiso   1.00
O103   O     0.13760   0.06944   0.23413   0.00000  Uiso   1.00
O104   O     0.20345   0.25620   0.21360   0.00000  Uiso   1.00
Zn105  Zn    0.19338   0.13994   0.28734   0.00000  Uiso   1.00
Zn106  Zn    0.13379   0.12458   0.21875   0.00000  Uiso   1.00
Zn107  Zn    0.21056   0.19775   0.20657   0.00000  Uiso   1.00
Zn108  Zn    0.12893   0.20439   0.28733   0.00000  Uiso   1.00
C109   C     0.38624   0.15962   0.25915   0.00000  Uiso   1.00
C110   C     0.51719   0.16616   0.05224   0.00000  Uiso   1.00
C111   C     0.53015   0.09663   0.06197   0.00000  Uiso   1.00
C112   C     0.61405   0.17391   0.24045   0.00000  Uiso   1.00
C113   C     0.46751   0.18913   0.42234   0.00000  Uiso   1.00
C114   C     0.65932   0.17834   0.23989   0.00000  Uiso   1.00
C115   C     0.34055   0.15403   0.26361   0.00000  Uiso   1.00
C116   C     0.51871   0.32357   0.24078   0.00000  Uiso   1.00
C117   C     0.48572   0.01133   0.26063   0.00000  Uiso   1.00
C118   C     0.48882   0.05579   0.26037   0.00000  Uiso   1.00
C119   C     0.51103   0.27816   0.24117   0.00000  Uiso   1.00
C120   C     0.44049   0.23064   0.49391   0.00000  Uiso   1.00
C121   C     0.51831   0.14801   0.12884   0.00000  Uiso   1.00
C122   C     0.48042   0.18388   0.37158   0.00000  Uiso   1.00
C123   C     0.52294   0.08233   0.01950   0.00000  Uiso   1.00
C124   C     0.52502   0.13808   0.07966   0.00000  Uiso   1.00
C125   C     0.44740   0.22418   0.44626   0.00000  Uiso   1.00
C126   C     0.58592   0.07347   0.07940   0.00000  Uiso   1.00
C127   C     0.60426   0.03999   0.04303   0.00000  Uiso   1.00
C128   C     0.65250   0.04256   0.03581   0.00000  Uiso   1.00
C129   C     0.66297   0.10122   0.31400   0.00000  Uiso   1.00
C130   C     0.34673   0.06037   0.29185   0.00000  Uiso   1.00
C131   C     0.45597   0.20428   0.01703   0.00000  Uiso   1.00
C132   C     0.36763   0.04186   0.32264   0.00000  Uiso   1.00
C133   C     0.56242   0.01086   0.21928   0.00000  Uiso   1.00
C134   C     0.53836   0.04734   0.40617   0.00000  Uiso   1.00
C135   C     0.53609   0.00395   0.38053   0.00000  Uiso   1.00
C136   C     0.57572   0.33283   0.34210   0.00000  Uiso   1.00
C137   C     0.52888   0.21216   0.06091   0.00000  Uiso   1.00
C138   C     0.43125   0.25319   0.42295   0.00000  Uiso   1.00
C139   C     0.41458   0.17331   0.08073   0.00000  Uiso   1.00
C140   C     0.36940   0.18543   0.09572   0.00000  Uiso   1.00
C141   C     0.33755   0.14977   0.11748   0.00000  Uiso   1.00
C142   C     0.48033   0.17266   0.49241   0.00000  Uiso   1.00
C143   C     0.41618   0.26436   0.02056   0.00000  Uiso   1.00
C144   C     0.45270   0.09597   0.39997   0.00000  Uiso   1.00
C145   C     0.47671   0.15980   0.44787   0.00000  Uiso   1.00
C146   C     0.50250   0.14964   0.01305   0.00000  Uiso   1.00
C147   C     0.50843   0.10813   0.49497   0.00000  Uiso   1.00
C148   C     0.49698   0.09206   0.45430   0.00000  Uiso   1.00
C149   C     0.47853   0.11704   0.43215   0.00000  Uiso   1.00
H150   H     0.45405   0.32830   0.27372   0.00000  Uiso   1.00
H151   H     0.33520   0.07337   0.02412   0.00000  Uiso   1.00
H152   H     0.63567   0.09338   0.34318   0.00000  Uiso   1.00
H153   H     0.35355   0.12259   0.32895   0.00000  Uiso   1.00
H154   H     0.65345   0.03744   0.28402   0.00000  Uiso   1.00
H155   H     0.37046   0.06555   0.25933   0.00000  Uiso   1.00
H156   H     0.39715   0.06248   0.32651   0.00000  Uiso   1.00
H157   H     0.37633   0.01071   0.30733   0.00000  Uiso   1.00
H158   H     0.34547   0.03819   0.35651   0.00000  Uiso   1.00
H159   H     0.59937   0.06031   0.18921   0.00000  Uiso   1.00
H160   H     0.56519   0.05162   0.42314   0.00000  Uiso   1.00
H161   H     0.52628   0.05006   0.00722   0.00000  Uiso   1.00
H162   H     0.54487   0.07116   0.38111   0.00000  Uiso   1.00
H163   H     0.53272   0.31316   0.40437   0.00000  Uiso   1.00
H164   H     0.50779   0.33186   0.36585   0.00000  Uiso   1.00
H165   H     0.60463   0.00437   0.35566   0.00000  Uiso   1.00
H166   H     0.57297   0.30097   0.32441   0.00000  Uiso   1.00
H167   H     0.57873   0.02262   0.31731   0.00000  Uiso   1.00
H168   H     0.55439   0.26673   0.03387   0.00000  Uiso   1.00
H169   H     0.38868   0.26149   0.38861   0.00000  Uiso   1.00
H170   H     0.42337   0.16451   0.11066   0.00000  Uiso   1.00
H171   H     0.41490   0.14484   0.05630   0.00000  Uiso   1.00
H172   H     0.34770   0.20207   0.22026   0.00000  Uiso   1.00
H173   H     0.36879   0.21344   0.12053   0.00000  Uiso   1.00
H174   H     0.35975   0.19317   0.06584   0.00000  Uiso   1.00
H175   H     0.33792   0.12145   0.09329   0.00000  Uiso   1.00
H176   H     0.63822   0.15893   0.12711   0.00000  Uiso   1.00
H177   H     0.34576   0.14225   0.14825   0.00000  Uiso   1.00
H178   H     0.36482   0.29481   0.03168   0.00000  Uiso   1.00
H179   H     0.40136   0.12616   0.42952   0.00000  Uiso   1.00
H180   H     0.59334   0.06880   0.11160   0.00000  Uiso   1.00
H181   H     0.60220   0.10520   0.07022   0.00000  Uiso   1.00
H182   H     0.58896   0.00854   0.05341   0.00000  Uiso   1.00
H183   H     0.59741   0.04413   0.01035   0.00000  Uiso   1.00
H184   H     0.66060   0.03796   0.06774   0.00000  Uiso   1.00
H185   H     0.66457   0.01780   0.00945   0.00000  Uiso   1.00
O186   O     0.50000   0.16667   0.25000   0.00000  Uiso   1.00
O187   O     0.48784   0.12637   0.15459   0.00000  Uiso   1.00
O188   O     0.46274   0.20391   0.34968   0.00000  Uiso   1.00
O189   O     0.54157   0.17759   0.14606   0.00000  Uiso   1.00
O190   O     0.50785   0.15880   0.34968   0.00000  Uiso   1.00
O191   O     0.54089   0.06922   0.08698   0.00000  Uiso   1.00
O192   O     0.64711   0.11953   0.28312   0.00000  Uiso   1.00
O193   O     0.59361   0.32683   0.21680   0.00000  Uiso   1.00
O194   O     0.56816   0.04959   0.20166   0.00000  Uiso   1.00
O195   O     0.49934   0.05043   0.43893   0.00000  Uiso   1.00
O196   O     0.52047   0.22950   0.09924   0.00000  Uiso   1.00
O197   O     0.51264   0.08019   0.28214   0.00000  Uiso   1.00
O198   O     0.54864   0.23584   0.02426   0.00000  Uiso   1.00
O199   O     0.44589   0.29015   0.42379   0.00000  Uiso   1.00
O200   O     0.39735   0.23867   0.40272   0.00000  Uiso   1.00
O201   O     0.44413   0.20802   0.06409   0.00000  Uiso   1.00
O202   O     0.42859   0.28525   0.05179   0.00000  Uiso   1.00
O203   O     0.37870   0.27165   0.01062   0.00000  Uiso   1.00
O204   O     0.46612   0.06825   0.37184   0.00000  Uiso   1.00
O205   O     0.41228   0.10647   0.40218   0.00000  Uiso   1.00
O206   O     0.47965   0.26085   0.27013   0.00000  Uiso   1.00
O207   O     0.40745   0.13291   0.23413   0.00000  Uiso   1.00
O208   O     0.60026   0.19272   0.21361   0.00000  Uiso   1.00
O209   O     0.40405   0.18878   0.28213   0.00000  Uiso   1.00
O210   O     0.58824   0.15226   0.27014   0.00000  Uiso   1.00
O211   O     0.47093   0.06944   0.23413   0.00000  Uiso   1.00
O212   O     0.53678   0.25620   0.21360   0.00000  Uiso   1.00
Zn213  Zn    0.52672   0.13994   0.28734   0.00000  Uiso   1.00
Zn214  Zn    0.46713   0.12458   0.21875   0.00000  Uiso   1.00
Zn215  Zn    0.54389   0.19775   0.20657   0.00000  Uiso   1.00
Zn216  Zn    0.46226   0.20439   0.28733   0.00000  Uiso   1.00
C217   C     0.71957   0.15962   0.25915   0.00000  Uiso   1.00
C218   C     0.85052   0.16616   0.05224   0.00000  Uiso   1.00
C219   C     0.86349   0.09663   0.06197   0.00000  Uiso   1.00
C220   C     0.94738   0.17391   0.24045   0.00000  Uiso   1.00
C221   C     0.80084   0.18913   0.42234   0.00000  Uiso   1.00
C222   C     0.99266   0.17834   0.23989   0.00000  Uiso   1.00
C223   C     0.67388   0.15403   0.26361   0.00000  Uiso   1.00
C224   C     0.85205   0.32357   0.24078   0.00000  Uiso   1.00
C225   C     0.81905   0.01133   0.26063   0.00000  Uiso   1.00
C226   C     0.82215   0.05579   0.26037   0.00000  Uiso   1.00
C227   C     0.84436   0.27816   0.24117   0.00000  Uiso   1.00
C228   C     0.77383   0.23064   0.49391   0.00000  Uiso   1.00
C229   C     0.85165   0.14801   0.12884   0.00000  Uiso   1.00
C230   C     0.81376   0.18388   0.37158   0.00000  Uiso   1.00
C231   C     0.85627   0.08233   0.01950   0.00000  Uiso   1.00
C232   C     0.85836   0.13808   0.07966   0.00000  Uiso   1.00
C233   C     0.78074   0.22418   0.44626   0.00000  Uiso   1.00
C234   C     0.91925   0.07347   0.07940   0.00000  Uiso   1.00
C235   C     0.93759   0.03999   0.04303   0.00000  Uiso   1.00
C236   C     0.98584   0.04256   0.03581   0.00000  Uiso   1.00
C237   C     0.99630   0.10122   0.31400   0.00000  Uiso   1.00
C238   C     0.68006   0.06037   0.29185   0.00000  Uiso   1.00
C239   C     0.78930   0.20428   0.01703   0.00000  Uiso   1.00
C240   C     0.70097   0.04186   0.32264   0.00000  Uiso   1.00
C241   C     0.89576   0.01086   0.21928   0.00000  Uiso   1.00
C242   C     0.87170   0.04734   0.40617   0.00000  Uiso   1.00
C243   C     0.86943   0.00395   0.38053   0.00000  Uiso   1.00
C244   C     0.90906   0.33283   0.34210   0.00000  Uiso   1.00
C245   C     0.86221   0.21216   0.06091   0.00000  Uiso   1.00
C246   C     0.76459   0.25319   0.42295   0.00000  Uiso   1.00
C247   C     0.74791   0.17331   0.08073   0.00000  Uiso   1.00
C248   C     0.70273   0.18543   0.09572   0.00000  Uiso   1.00
C249   C     0.67088   0.14977   0.11748   0.00000  Uiso   1.00
C250   C     0.81366   0.17266   0.49241   0.00000  Uiso   1.00
C251   C     0.74952   0.26436   0.02056   0.00000  Uiso   1.00
C252   C     0.78603   0.09597   0.39997   0.00000  Uiso   1.00
C253   C     0.81004   0.15980   0.44787   0.00000  Uiso   1.00
C254   C     0.83583   0.14964   0.01305   0.00000  Uiso   1.00
C255   C     0.84176   0.10813   0.49497   0.00000  Uiso   1.00
C256   C     0.83032   0.09206   0.45430   0.00000  Uiso   1.00
C257   C     0.81186   0.11704   0.43215   0.00000  Uiso   1.00
H258   H     0.78738   0.32830   0.27372   0.00000  Uiso   1.00
H259   H     0.66853   0.07337   0.02412   0.00000  Uiso   1.00
H260   H     0.96901   0.09338   0.34318   0.00000  Uiso   1.00
H261   H     0.68688   0.12259   0.32895   0.00000  Uiso   1.00
H262   H     0.98678   0.03744   0.28402   0.00000  Uiso   1.00
H263   H     0.70379   0.06555   0.25933   0.00000  Uiso   1.00
H264   H     0.73049   0.06248   0.32651   0.00000  Uiso   1.00
H265   H     0.70967   0.01071   0.30733   0.00000  Uiso   1.00
H266   H     0.67880   0.03819   0.35651   0.00000  Uiso   1.00
H267   H     0.93270   0.06031   0.18921   0.00000  Uiso   1.00
H268   H     0.89852   0.05162   0.42314   0.00000  Uiso   1.00
H269   H     0.85962   0.05006   0.00722   0.00000  Uiso   1.00
H270   H     0.87821   0.07116   0.38111   0.00000  Uiso   1.00
H271   H     0.86606   0.31316   0.40437   0.00000  Uiso   1.00
H272   H     0.84112   0.33186   0.36585   0.00000  Uiso   1.00
H273   H     0.93797   0.00437   0.35566   0.00000  Uiso   1.00
H274   H     0.90630   0.30097   0.32441   0.00000  Uiso   1.00
H275   H     0.91207   0.02262   0.31731   0.00000  Uiso   1.00
H276   H     0.88772   0.26673   0.03387   0.00000  Uiso   1.00
H277   H     0.72201   0.26149   0.38861   0.00000  Uiso   1.00
H278   H     0.75671   0.16451   0.11066   0.00000  Uiso   1.00
H279   H     0.74823   0.14484   0.05630   0.00000  Uiso   1.00
H280   H     0.68104   0.20207   0.22026   0.00000  Uiso   1.00
H281   H     0.70212   0.21344   0.12053   0.00000  Uiso   1.00
H282   H     0.69308   0.19317   0.06584   0.00000  Uiso   1.00
H283   H     0.67126   0.12145   0.09329   0.00000  Uiso   1.00
H284   H     0.97156   0.15893   0.12711   0.00000  Uiso   1.00
H285   H     0.67910   0.14225   0.14825   0.00000  Uiso   1.00
H286   H     0.69815   0.29481   0.03168   0.00000  Uiso   1.00
H287   H     0.73470   0.12616   0.42952   0.00000  Uiso   1.00
H288   H     0.92668   0.06880   0.11160   0.00000  Uiso   1.00
H289   H     0.93554   0.10520   0.07022   0.00000  Uiso   1.00
H290   H     0.92229   0.00854   0.05341   0.00000  Uiso   1.00
H291   H     0.93074   0.04413   0.01035   0.00000  Uiso   1.00
H292   H     0.99393   0.03796   0.06774   0.00000  Uiso   1.00
H293   H     0.99790   0.01780   0.00945   0.00000  Uiso   1.00
O294   O     0.83333   0.16667   0.25000   0.00000  Uiso   1.00
O295   O     0.82118   0.12637   0.15459   0.00000  Uiso   1.00
O296   O     0.79607   0.20391   0.34968   0.00000  Uiso   1.00
O297   O     0.87491   0.17759   0.14606   0.00000  Uiso   1.00
O298   O     0.84118   0.15880   0.34968   0.00000  Uiso   1.00
O299   O     0.87422   0.06922   0.08698   0.00000  Uiso   1.00
O300   O     0.98044   0.11953   0.28312   0.00000  Uiso   1.00
O301   O     0.92695   0.32683   0.21680   0.00000  Uiso   1.00
O302   O     0.90150   0.04959   0.20166   0.00000  Uiso   1.00
O303   O     0.83267   0.05043   0.43893   0.00000  Uiso   1.00
O304   O     0.85380   0.22950   0.09924   0.00000  Uiso   1.00
O305   O     0.84597   0.08019   0.28214   0.00000  Uiso   1.00
O306   O     0.88197   0.23584   0.02426   0.00000  Uiso   1.00
O307   O     0.77923   0.29015   0.42379   0.00000  Uiso   1.00
O308   O     0.73068   0.23867   0.40272   0.00000  Uiso   1.00
O309   O     0.77747   0.20802   0.06409   0.00000  Uiso   1.00
O310   O     0.76193   0.28525   0.05179   0.00000  Uiso   1.00
O311   O     0.71203   0.27165   0.01062   0.00000  Uiso   1.00
O312   O     0.79945   0.06825   0.37184   0.00000  Uiso   1.00
O313   O     0.74562   0.10647   0.40218   0.00000  Uiso   1.00
O314   O     0.81298   0.26085   0.27013   0.00000  Uiso   1.00
O315   O     0.74078   0.13291   0.23413   0.00000  Uiso   1.00
O316   O     0.93360   0.19272   0.21361   0.00000  Uiso   1.00
O317   O     0.73738   0.18878   0.28213   0.00000  Uiso   1.00
O318   O     0.92158   0.15226   0.27014   0.00000  Uiso   1.00
O319   O     0.80426   0.06944   0.23413   0.00000  Uiso   1.00
O320   O     0.87012   0.25620   0.21360   0.00000  Uiso   1.00
Zn321  Zn    0.86005   0.13994   0.28734   0.00000  Uiso   1.00
Zn322  Zn    0.80046   0.12458   0.21875   0.00000  Uiso   1.00
Zn323  Zn    0.87723   0.19775   0.20657   0.00000  Uiso   1.00
Zn324  Zn    0.79560   0.20439   0.28733   0.00000  Uiso   1.00
C325   C     0.05290   0.49295   0.25915   0.00000  Uiso   1.00
C326   C     0.18386   0.49949   0.05224   0.00000  Uiso   1.00
C327   C     0.19682   0.42996   0.06197   0.00000  Uiso   1.00
C328   C     0.28072   0.50724   0.24045   0.00000  Uiso   1.00
C329   C     0.13417   0.52246   0.42234   0.00000  Uiso   1.00
C330   C     0.32599   0.51167   0.23989   0.00000  Uiso   1.00
C331   C     0.00722   0.48737   0.26361   0.00000  Uiso   1.00
C332   C     0.18538   0.65691   0.24078   0.00000  Uiso   1.00
C333   C     0.15239   0.34466   0.26063   0.00000  Uiso   1.00
C334   C     0.15548   0.38913   0.26037   0.00000  Uiso   1.00
C335   C     0.17770   0.61149   0.24117   0.00000  Uiso   1.00
C336   C     0.10716   0.56398   0.49391   0.00000  Uiso   1.00
C337   C     0.18498   0.48135   0.12884   0.00000  Uiso   1.00
C338   C     0.14709   0.51722   0.37158   0.00000  Uiso   1.00
C339   C     0.18961   0.41566   0.01950   0.00000  Uiso   1.00
C340   C     0.19169   0.47142   0.07966   0.00000  Uiso   1.00
C341   C     0.11407   0.55751   0.44626   0.00000  Uiso   1.00
C342   C     0.25258   0.40681   0.07940   0.00000  Uiso   1.00
C343   C     0.27092   0.37332   0.04303   0.00000  Uiso   1.00
C344   C     0.31917   0.37589   0.03581   0.00000  Uiso   1.00
C345   C     0.32964   0.43456   0.31400   0.00000  Uiso   1.00
C346   C     0.01340   0.39370   0.29185   0.00000  Uiso   1.00
C347   C     0.12263   0.53762   0.01703   0.00000  Uiso   1.00
C348   C     0.03430   0.37519   0.32264   0.00000  Uiso   1.00
C349   C     0.22909   0.34419   0.21928   0.00000  Uiso   1.00
C350   C     0.20503   0.38067   0.40617   0.00000  Uiso   1.00
C351   C     0.20276   0.33728   0.38053   0.00000  Uiso   1.00
C352   C     0.24239   0.66616   0.34210   0.00000  Uiso   1.00
C353   C     0.19554   0.54550   0.06091   0.00000  Uiso   1.00
C354   C     0.09792   0.58652   0.42295   0.00000  Uiso   1.00
C355   C     0.08125   0.50664   0.08073   0.00000  Uiso   1.00
C356   C     0.03606   0.51877   0.09572   0.00000  Uiso   1.00
C357   C     0.00421   0.48310   0.11748   0.00000  Uiso   1.00
C358   C     0.14699   0.50599   0.49241   0.00000  Uiso   1.00
C359   C     0.08285   0.59769   0.02056   0.00000  Uiso   1.00
C360   C     0.11937   0.42930   0.39997   0.00000  Uiso   1.00
C361   C     0.14337   0.49313   0.44787   0.00000  Uiso   1.00
C362   C     0.16916   0.48297   0.01305   0.00000  Uiso   1.00
C363   C     0.17509   0.44147   0.49497   0.00000  Uiso   1.00
C364   C     0.16365   0.42539   0.45430   0.00000  Uiso   1.00
C365   C     0.14520   0.45038   0.43215   0.00000  Uiso   1.00
H366   H     0.12072   0.66164   0.27372   0.00000  Uiso   1.00
H367   H     0.00186   0.40671   0.02412   0.00000  Uiso   1.00
H368   H     0.30234   0.42671   0.34318   0.00000  Uiso   1.00
H369   H     0.02021   0.45592   0.32895   0.00000  Uiso   1.00
H370   H     0.32012   0.37078   0.28402   0.00000  Uiso   1.00
H371   H     0.03712   0.39888   0.25933   0.00000  Uiso   1.00
H372   H     0.06382   0.39582   0.32651   0.00000  Uiso   1.00
H373   H     0.04300   0.34404   0.30733   0.00000  Uiso   1.00
H374   H     0.01213   0.37152   0.35651   0.00000  Uiso   1.00
H375   H     0.26604   0.39365   0.18921   0.00000  Uiso   1.00
H376   H     0.23185   0.38496   0.42314   0.00000  Uiso   1.00
H377   H     0.19295   0.38340   0.00722   0.00000  Uiso   1.00
H378   H     0.21154   0.40450   0.38111   0.00000  Uiso   1.00
H379   H     0.19939   0.64649   0.40437   0.00000  Uiso   1.00
H380   H     0.17446   0.66520   0.36585   0.00000  Uiso   1.00
H381   H     0.27130   0.33770   0.35566   0.00000  Uiso   1.00
H382   H     0.23963   0.63430   0.32441   0.00000  Uiso   1.00
H383   H     0.24540   0.35595   0.31731   0.00000  Uiso   1.00
H384   H     0.22106   0.60007   0.03387   0.00000  Uiso   1.00
H385   H     0.05535   0.59482   0.38861   0.00000  Uiso   1.00
H386   H     0.09004   0.49785   0.11066   0.00000  Uiso   1.00
H387   H     0.08157   0.47818   0.05630   0.00000  Uiso   1.00
H388   H     0.01437   0.53541   0.22026   0.00000  Uiso   1.00
H389   H     0.03545   0.54677   0.12053   0.00000  Uiso   1.00
H390   H     0.02642   0.52650   0.06584   0.00000  Uiso   1.00
H391   H     0.00459   0.45478   0.09329   0.00000  Uiso   1.00
H392   H     0.30489   0.49226   0.12711   0.00000  Uiso   1.00
H393   H     0.01243   0.47558   0.14825   0.00000  Uiso   1.00
H394   H     0.03149   0.62815   0.03168   0.00000  Uiso   1.00
H395   H     0.06803   0.45949   0.42952   0.00000  Uiso   1.00
H396   H     0.26001   0.40213   0.11160   0.00000  Uiso   1.00
H397   H     0.26887   0.43854   0.07022   0.00000  Uiso   1.00
H398   H     0.25563   0.34187   0.05341   0.00000  Uiso   1.00
H399   H     0.26408   0.37746   0.01035   0.00000  Uiso   1.00
H400   H     0.32726   0.37129   0.06774   0.00000  Uiso   1.00
H401   H     0.33124   0.35113   0.00945   0.00000  Uiso   1.00
O402   O     0.16667   0.50000   0.25000   0.00000  Uiso   1.00
O403   O     0.15451   0.45970   0.15459   0.00000  Uiso   1.00
O404   O     0.12940   0.53724   0.34968   0.00000  Uiso   1.00
O405   O     0.20824   0.51092   0.14606   0.00000  Uiso   1.00
O406   O     0.17451   0.49213   0.34968   0.00000  Uiso   1.00
O407   O     0.20755   0.40256   0.08698   0.00000  Uiso   1.00
O408   O     0.31378   0.45286   0.28312   0.00000  Uiso   1.00
O409   O     0.26028   0.66016   0.21680   0.00000  Uiso   1.00
O410   O     0.23483   0.38293   0.20166   0.00000  Uiso   1.00
O411   O     0.16601   0.38376   0.43893   0.00000  Uiso   1.00
O412   O     0.18713   0.56284   0.09924   0.00000  Uiso   1.00
O413   O     0.17930   0.41352   0.28214   0.00000  Uiso   1.00
O414   O     0.21531   0.56918   0.02426   0.00000  Uiso   1.00
O415   O     0.11256   0.62349   0.42379   0.00000  Uiso   1.00
O416   O     0.06402   0.57200   0.40272   0.00000  Uiso   1.00
O417   O     0.11080   0.54135   0.06409   0.00000  Uiso   1.00
O418   O     0.09526   0.61858   0.05179   0.00000  Uiso   1.00
O419   O     0.04537   0.60498   0.01062   0.00000  Uiso   1.00
O420   O     0.13278   0.40159   0.37184   0.00000  Uiso   1.00
O421   O     0.07895   0.43981   0.40218   0.00000  Uiso   1.00
O422   O     0.14632   0.59418   0.27013   0.00000  Uiso   1.00
O423   O     0.07412   0.46625   0.23413   0.00000  Uiso   1.00
O424   O     0.26693   0.52605   0.21361   0.00000  Uiso   1.00
O425   O     0.07071   0.52211   0.28213   0.00000  Uiso   1.00
O426   O     0.25491   0.48559   0.27014   0.00000  Uiso   1.00
O427   O     0.13760   0.40277   0.23413   0.00000  Uiso   1.00
O428   O     0.20345   0.58953   0.21360   0.00000  Uiso   1.00
Zn429  Zn    0.19338   0.47327   0.28734   0.00000  Uiso   1.00
Zn430  Zn    0.13379   0.45791   0.21875   0.00000  Uiso   1.00
Zn431  Zn    0.21056   0.53109   0.20657   0.00000  Uiso   1.00
Zn432  Zn    0.12893   0.53773   0.28733   0.00000  Uiso   1.00
C433   C     0.38624   0.49295   0.25915   0.00000  Uiso   1.00
C434   C     0.51719   0.49949   0.05224   0.00000  Uiso   1.00
C435   C     0.53015   0.42996   0.06197   0.00000  Uiso   1.00
C436   C     0.61405   0.50724   0.24045   0.00000  Uiso   1.00
C437   C     0.46751   0.52246   0.42234   0.00000  Uiso   1.00
C438   C     0.65932   0.51167   0.23989   0.00000  Uiso   1.00
C439   C     0.34055   0.48737   0.26361   0.00000  Uiso   1.00
C440   C     0.51871   0.65691   0.24078   0.00000  Uiso   1.00
C441   C     0.48572   0.34466   0.26063   0.00000  Uiso   1.00
C442   C     0.48882   0.38913   0.26037   0.00000  Uiso   1.00
C443   C     0.51103   0.61149   0.24117   0.00000  Uiso   1.00
C444   C     0.44049   0.56398   0.49391   0.00000  Uiso   1.00
C445   C     0.51831   0.48135   0.12884   0.00000  Uiso   1.00
C446   C     0.48042   0.51722   0.37158   0.00000  Uiso   1.00
C447   C     0.52294   0.41566   0.01950   0.00000  Uiso   1.00
C448   C     0.52502   0.47142   0.07966   0.00000  Uiso   1.00
C449   C     0.44740   0.55751   0.44626   0.00000  Uiso   1.00
C450   C     0.58592   0.40681   0.07940   0.00000  Uiso   1.00
C451   C     0.60426   0.37332   0.04303   0.00000  Uiso   1.00
C452   C     0.65250   0.37589   0.03581   0.00000  Uiso   1.00
C453   C     0.66297   0.43456   0.31400   0.00000  Uiso   1.00
C454   C     0.34673   0.39370   0.29185   0.00000  Uiso   1.00
C455   C     0.45597   0.53762   0.01703   0.00000  Uiso   1.00
C456   C     0.36763   0.37519   0.32264   0.00000  Uiso   1.00
C457   C     0.56242   0.34419   0.21928   0.00000  Uiso   1.00
C458   C     0.53836   0.38067   0.40617   0.00000  Uiso   1.00
C459   C     0.53609   0.33728   0.38053   0.00000  Uiso   1.00
C460   C     0.57572   0.66616   0.34210   0.00000  Uiso   1.00
C461   C     0.52888   0.54550   0.06091   0.00000  Uiso   1.00
C462   C     0.43125   0.58652   0.42295   0.00000  Uiso   1.00
C463   C     0.41458   0.50664   0.08073   0.00000  Uiso   1.00
C464   C     0.36940   0.51877   0.09572   0.00000  Uiso   1.00
C465   C     0.33755   0.48310   0.11748   0.00000  Uiso   1.00
C466   C     0.48033   0.50599   0.49241   0.00000  Uiso   1.00
C467   C     0.41618   0.59769   0.02056   0.00000  Uiso   1.00
C468   C     0.45270   0.42930   0.39997   0.00000  Uiso   1.00
C469   C     0.47671   0.49313   0.44787   0.00000  Uiso   1.00
C470   C     0.50250   0.48297   0.01305   0.00000  Uiso   1.00
C471   C     0.50843   0.44147   0.49497   0.00000  Uiso   1.00
C472   C     0.49698   0.42539   0.45430   0.00000  Uiso   1.00
C473   C     0.47853   0.45038   0.43215   0.00000  Uiso   1.00
H474   H     0.45405   0.66164   0.27372   0.00000  Uiso   1.00
H475   H     0.33520   0.40671   0.02412   0.00000  Uiso   1.00
H476   H     0.63567   0.42671   0.34318   0.00000  Uiso   1.00
H477   H     0.35355   0.45592   0.32895   0.00000  Uiso   1.00
H478   H     0.65345   0.37078   0.28402   0.00000  Uiso   1.00
H479   H     0.37046   0.39888   0.25933   0.00000  Uiso   1.00
H480   H     0.39715   0.39582   0.32651   0.00000  Uiso   1.00
H481   H     0.37633   0.34404   0.30733   0.00000  Uiso   1.00
H482   H     0.34547   0.37152   0.35651   0.00000  Uiso   1.00
H483   H     0.59937   0.39365   0.18921   0.00000  Uiso   1.00
H484   H     0.56519   0.38496   0.42314   0.00000  Uiso   1.00
H485   H     0.52628   0.38340   0.00722   0.00000  Uiso   1.00
H486   H     0.54487   0.40450   0.38111   0.00000  Uiso   1.00
H487   H     0.53272   0.64649   0.40437   0.00000  Uiso   1.00
H488   H     0.50779   0.66520   0.36585   0.00000  Uiso   1.00
H489   H     0.60463   0.33770   0.35566   0.00000  Uiso   1.00
H490   H     0.57297   0.63430   0.32441   0.00000  Uiso   1.00
H491   H     0.57873   0.35595   0.31731   0.00000  Uiso   1.00
H492   H     0.55439   0.60007   0.03387   0.00000  Uiso   1.00
H493   H     0.38868   0.59482   0.38861   0.00000  Uiso   1.00
H494   H     0.42337   0.49785   0.11066   0.00000  Uiso   1.00
H495   H     0.41490   0.47818   0.05630   0.00000  Uiso   1.00
H496   H     0.34770   0.53541   0.22026   0.00000  Uiso   1.00
H497   H     0.36879   0.54677   0.12053   0.00000  Uiso   1.00
H498   H     0.35975   0.52650   0.06584   0.00000  Uiso   1.00
H499   H     0.33792   0.45478   0.09329   0.00000  Uiso   1.00
H500   H     0.63822   0.49226   0.12711   0.00000  Uiso   1.00
H501   H     0.34576   0.47558   0.14825   0.00000  Uiso   1.00
H502   H     0.36482   0.62815   0.03168   0.00000  Uiso   1.00
H503   H     0.40136   0.45949   0.42952   0.00000  Uiso   1.00
H504   H     0.59334   0.40213   0.11160   0.00000  Uiso   1.00
H505   H     0.60220   0.43854   0.07022   0.00000  Uiso   1.00
H506   H     0.58896   0.34187   0.05341   0.00000  Uiso   1.00
H507   H     0.59741   0.37746   0.01035   0.00000  Uiso   1.00
H508   H     0.66060   0.37129   0.06774   0.00000  Uiso   1.00
H509   H     0.66457   0.35113   0.00945   0.00000  Uiso   1.00
O510   O     0.50000   0.50000   0.25000   0.00000  Uiso   1.00
O511   O     0.48784   0.45970   0.15459   0.00000  Uiso   1.00
O512   O     0.46274   0.53724   0.34968   0.00000  Uiso   1.00
O513   O     0.54157   0.51092   0.14606   0.00000  Uiso   1.00
O514   O     0.50785   0.49213   0.34968   0.00000  Uiso   1.00
O515   O     0.54089   0.40256   0.08698   0.00000  Uiso   1.00
O516   O     0.64711   0.45286   0.28312   0.00000  Uiso   1.00
O517   O     0.59361   0.66016   0.21680   0.00000  Uiso   1.00
O518   O     0.56816   0.38293   0.20166   0.00000  Uiso   1.00
O519   O     0.49934   0.38376   0.43893   0.00000  Uiso   1.00
O520   O     0.52047   0.56284   0.09924   0.00000  Uiso   1.00
O521   O     0.51264   0.41352   0.28214   0.00000  Uiso   1.00
O522   O     0.54864   0.56918   0.02426   0.00000  Uiso   1.00
O523   O     0.44589   0.62349   0.42379   0.00000  Uiso   1.00
O524   O     0.39735   0.57200   0.40272   0.00000  Uiso   1.00
O525   O     0.44413   0.54135   0.06409   0.00000  Uiso   1.00
O526   O     0.42859   0.61858   0.05179   0.00000  Uiso   1.00
O527   O     0.37870   0.60498   0.01062   0.00000  Uiso   1.00
O528   O     0.46612   0.40159   0.37184   0.00000  Uiso   1.00
O529   O     0.41228   0.43981   0.40218   0.00000  Uiso   1.00
O530   O     0.47965   0.59418   0.27013   0.00000  Uiso   1.00
O531   O     0.40745   0.46625   0.23413   0.00000  Uiso   1.00
O532   O     0.60026   0.52605   0.21361   0.00000  Uiso   1.00
O533   O     0.40405   0.52211   0.28213   0.00000  Uiso   1.00
O534   O     0.58824   0.48559   0.27014   0.00000  Uiso   1.00
O535   O     0.47093   0.40277   0.23413   0.00000  Uiso   1.00
O536   O     0.53678   0.58953   0.21360   0.00000  Uiso   1.00
Zn537  Zn    0.52672   0.47327   0.28734   0.00000  Uiso   1.00
Zn538  Zn    0.46713   0.45791   0.21875   0.00000  Uiso   1.00
Zn539  Zn    0.54389   0.53109   0.20657   0.00000  Uiso   1.00
Zn540  Zn    0.46226   0.53773   0.28733   0.00000  Uiso   1.00
C541   C     0.71957   0.49295   0.25915   0.00000  Uiso   1.00
C542   C     0.85052   0.49949   0.05224   0.00000  Uiso   1.00
C543   C     0.86349   0.42996   0.06197   0.00000  Uiso   1.00
C544   C     0.94738   0.50724   0.24045   0.00000  Uiso   1.00
C545   C     0.80084   0.52246   0.42234   0.00000  Uiso   1.00
C546   C     0.99266   0.51167   0.23989   0.00000  Uiso   1.00
C547   C     0.67388   0.48737   0.26361   0.00000  Uiso   1.00
C548   C     0.85205   0.65691   0.24078   0.00000  Uiso   1.00
C549   C     0.81905   0.34466   0.26063   0.00000  Uiso   1.00
C550   C     0.82215   0.38913   0.26037   0.00000  Uiso   1.00
C551   C     0.84436   0.61149   0.24117   0.00000  Uiso   1.00
C552   C     0.77383   0.56398   0.49391   0.00000  Uiso   1.00
C553   C     0.85165   0.48135   0.12884   0.00000  Uiso   1.00
C554   C     0.81376   0.51722   0.37158   0.00000  Uiso   1.00
C555   C     0.85627   0.41566   0.01950   0.00000  Uiso   1.00
C556   C     0.85836   0.47142   0.07966   0.00000  Uiso   1.00
C557   C     0.78074   0.55751   0.44626   0.00000  Uiso   1.00
C558   C     0.91925   0.40681   0.07940   0.00000  Uiso   1.00
C559   C     0.93759   0.37332   0.04303   0.00000  Uiso   1.00
C560   C     0.98584   0.37589   0.03581   0.00000  Uiso   1.00
C561   C     0.99630   0.43456   0.31400   0.00000  Uiso   1.00
C562   C     0.68006   0.39370   0.29185   0.00000  Uiso   1.00
C563   C     0.78930   0.53762   0.01703   0.00000  Uiso   1.00
C564   C     0.70097   0.37519   0.32264   0.00000  Uiso   1.00
C565   C     0.89576   0.34419   0.21928   0.00000  Uiso   1.00
C566   C     0.87170   0.38067   0.40617   0.00000  Uiso   1.00
C567   C     0.86943   0.33728   0.38053   0.00000  Uiso   1.00
C568   C     0.90906   0.66616   0.34210   0.00000  Uiso   1.00
C569   C     0.86221   0.54550   0.06091   0.00000  Uiso   1.00
C570   C     0.76459   0.58652   0.42295   0.00000  Uiso   1.00
C571   C     0.74791   0.50664   0.08073   0.00000  Uiso   1.00
C572   C     0.70273   0.51877   0.09572   0.00000  Uiso   1.00
C573   C     0.67088   0.48310   0.11748   0.00000  Uiso   1.00
C574   C     0.81366   0.50599   0.49241   0.00000  Uiso   1.00
C575   C     0.74952   0.59769   0.02056   0.00000  Uiso   1.00
C576   C     0.78603   0.42930   0.39997   0.00000  Uiso   1.00
C577   C     0.81004   0.49313   0.44787   0.00000  Uiso   1.00
C578   C     0.83583   0.48297   0.01305   0.00000  Uiso   1.00
C579   C     0.84176   0.44147   0.49497   0.00000  Uiso   1.00
C580   C     0.83032   0.42539   0.45430   0.00000  Uiso   1.00
C581   C     0.81186   0.45038   0.43215   0.00000  Uiso   1.00
H582   H     0.78738   0.66164   0.27372   0.00000  Uiso   1.00
H583   H     0.66853   0.40671   0.02412   0.00000  Uiso   1.00
H584   H     0.96901   0.42671   0.34318   0.00000  Uiso   1.00
H585   H     0.68688   0.45592   0.32895   0.00000  Uiso   1.00
H586   H     0.98678   0.37078   0.28402   0.00000  Uiso   1.00
H587   H     0.70379   0.39888   0.25933   0.00000  Uiso   1.00
H588   H     0.73049   0.39582   0.32651   0.00000  Uiso   1.00
H589   H     0.70967   0.34404   0.30733   0.00000  Uiso   1.00
H590   H     0.67880   0.37152   0.35651   0.00000  Uiso   1.00
H591   H     0.93270   0.39365   0.18921   0.00000  Uiso   1.00
H592   H     0.89852   0.38496   0.42314   0.00000  Uiso   1.00
H593   H     0.85962   0.38340   0.00722   0.00000  Uiso   1.00
H594   H     0.87821   0.40450   0.38111   0.00000  Uiso   1.00
H595   H     0.86606   0.64649   0.40437   0.00000  Uiso   1.00
H596   H     0.84112   0.66520   0.36585   0.00000  Uiso   1.00
H597   H     0.93797   0.33770   0.35566   0.00000  Uiso   1.00
H598   H     0.90630   0.63430   0.32441   0.00000  Uiso   1.00
H599   H     0.91207   0.35595   0.31731   0.00000  Uiso   1.00
H600   H     0.88772   0.60007   0.03387   0.00000  Uiso   1.00
H601   H     0.72201   0.59482   0.38861   0.00000  Uiso   1.00
H602   H     0.75671   0.49785   0.11066   0.00000  Uiso   1.00
H603   H     0.74823   0.47818   0.05630   0.00000  Uiso   1.00
H604   H     0.68104   0.53541   0.22026   0.00000  Uiso   1.00
H605   H     0.70212   0.54677   0.12053   0.00000  Uiso   1.00
H606   H     0.69308   0.52650   0.06584   0.00000  Uiso   1.00
H607   H     0.67126   0.45478   0.09329   0.00000  Uiso   1.00
H608   H     0.97156   0.49226   0.12711   0.00000  Uiso   1.00
H609   H     0.67910   0.47558   0.14825   0.00000  Uiso   1.00
H610   H     0.69815   0.62815   0.03168   0.00000  Uiso   1.00
H611   H     0.73470   0.45949   0.42952   0.00000  Uiso   1.00
H612   H     0.92668   0.40213   0.11160   0.00000  Uiso   1.00
H613   H     0.93554   0.43854   0.07022   0.00000  Uiso   1.00
H614   H     0.92229   0.34187   0.05341   0.00000  Uiso   1.00
H615   H     0.93074   0.37746   0.01035   0.00000  Uiso   1.00
H616   H     0.99393   0.37129   0.06774   0.00000  Uiso   1.00
H617   H     0.99790   0.35113   0.00945   0.00000  Uiso   1.00
O618   O     0.83333   0.50000   0.25000   0.00000  Uiso   1.00
O619   O     0.82118   0.45970   0.15459   0.00000  Uiso   1.00
O620   O     0.79607   0.53724   0.34968   0.00000  Uiso   1.00
O621   O     0.87491   0.51092   0.14606   0.00000  Uiso   1.00
O622   O     0.84118   0.49213   0.34968   0.00000  Uiso   1.00
O623   O     0.87422   0.40256   0.08698   0.00000  Uiso   1.00
O624   O     0.98044   0.45286   0.28312   0.00000  Uiso   1.00
O625   O     0.92695   0.66016   0.21680   0.00000  Uiso   1.00
O626   O     0.90150   0.38293   0.20166   0.00000  Uiso   1.00
O627   O     0.83267   0.38376   0.43893   0.00000  Uiso   1.00
O628   O     0.85380   0.56284   0.09924   0.00000  Uiso   1.00
O629   O     0.84597   0.41352   0.28214   0.00000  Uiso   1.00
O630   O     0.88197   0.56918   0.02426   0.00000  Uiso   1.00
O631   O     0.77923   0.62349   0.42379   0.00000  Uiso   1.00
O632   O     0.73068   0.57200   0.40272   0.00000  Uiso   1.00
O633   O     0.77747   0.54135   0.06409   0.00000  Uiso   1.00
O634   O     0.76193   0.61858   0.05179   0.00000  Uiso   1.00
O635   O     0.71203   0.60498   0.01062   0.00000  Uiso   1.00
O636   O     0.79945   0.40159   0.37184   0.00000  Uiso   1.00
O637   O     0.74562   0.43981   0.40218   0.00000  Uiso   1.00
O638   O     0.81298   0.59418   0.27013   0.00000  Uiso   1.00
O639   O     0.74078   0.46625   0.23413   0.00000  Uiso   1.00
O640   O     0.93360   0.52605   0.21361   0.00000  Uiso   1.00
O641   O     0.73738   0.52211   0.28213   0.00000  Uiso   1.00
O642   O     0.92158   0.48559   0.27014   0.00000  Uiso   1.00
O643   O     0.80426   0.40277   0.23413   0.00000  Uiso   1.00
O644   O     0.87012   0.58953   0.21360   0.00000  Uiso   1.00
Zn645  Zn    0.86005   0.47327   0.28734   0.00000  Uiso   1.00
Zn646  Zn    0.80046   0.45791   0.21875   0.00000  Uiso   1.00
Zn647  Zn    0.87723   0.53109   0.20657   0.00000  Uiso   1.00
Zn648  Zn    0.79560   0.53773   0.28733   0.00000  Uiso   1.00
C649   C     0.05290   0.82628   0.25915   0.00000  Uiso   1.00
C650   C     0.18386   0.83283   0.05224   0.00000  Uiso   1.00
C651   C     0.19682   0.76330   0.06197   0.00000  Uiso   1.00
C652   C     0.28072   0.84057   0.24045   0.00000  Uiso   1.00
C653   C     0.13417   0.85579   0.42234   0.00000  Uiso   1.00
C654   C     0.32599   0.84500   0.23989   0.00000  Uiso   1.00
C655   C     0.00722   0.82070   0.26361   0.00000  Uiso   1.00
C656   C     0.18538   0.99024   0.24078   0.00000  Uiso   1.00
C657   C     0.15239   0.67800   0.26063   0.00000  Uiso   1.00
C658   C     0.15548   0.72246   0.26037   0.00000  Uiso   1.00
C659   C     0.17770   0.94483   0.24117   0.00000  Uiso   1.00
C660   C     0.10716   0.89731   0.49391   0.00000  Uiso   1.00
C661   C     0.18498   0.81468   0.12884   0.00000  Uiso   1.00
C662   C     0.14709   0.85055   0.37158   0.00000  Uiso   1.00
C663   C     0.18961   0.74899   0.01950   0.00000  Uiso   1.00
C664   C     0.19169   0.80475   0.07966   0.00000  Uiso   1.00
C665   C     0.11407   0.89084   0.44626   0.00000  Uiso   1.00
C666   C     0.25258   0.74014   0.07940   0.00000  Uiso   1.00
C667   C     0.27092   0.70666   0.04303   0.00000  Uiso   1.00
C668   C     0.31917   0.70922   0.03581   0.00000  Uiso   1.00
C669   C     0.32964   0.76789   0.31400   0.00000  Uiso   1.00
C670   C     0.01340   0.72703   0.29185   0.00000  Uiso   1.00
C671   C     0.12263   0.87095   0.01703   0.00000  Uiso   1.00
C672   C     0.03430   0.70852   0.32264   0.00000  Uiso   1.00
C673   C     0.22909   0.67752   0.21928   0.00000  Uiso   1.00
C674   C     0.20503   0.71400   0.40617   0.00000  Uiso   1.00
C675   C     0.20276   0.67061   0.38053   0.00000  Uiso   1.00
C676   C     0.24239   0.99949   0.34210   0.00000  Uiso   1.00
C677   C     0.19554   0.87883   0.06091   0.00000  Uiso   1.00
C678   C     0.09792   0.91986   0.42295   0.00000  Uiso   1.00
C679   C     0.08125   0.83998   0.08073   0.00000  Uiso   1.00
C680   C     0.03606   0.85210   0.09572   0.00000  Uiso   1.00
C681   C     0.00421   0.81643   0.11748   0.00000  Uiso   1.00
C682   C     0.14699   0.83933   0.49241   0.00000  Uiso   1.00
C683   C     0.08285   0.93102   0.02056   0.00000  Uiso   1.00
C684   C     0.11937   0.76264   0.39997   0.00000  Uiso   1.00
C685   C     0.14337   0.82646   0.44787   0.00000  Uiso   1.00
C686   C     0.16916   0.81630   0.01305   0.00000  Uiso   1.00
C687   C     0.17509   0.77480   0.49497   0.00000  Uiso   1.00
C688   C     0.16365   0.75872   0.45430   0.00000  Uiso   1.00
C689   C     0.14520   0.78371   0.43215   0.00000  Uiso   1.00
H690   H     0.12072   0.99497   0.27372   0.00000  Uiso   1.00
H691   H     0.00186   0.74004   0.02412   0.00000  Uiso   1.00
H692   H     0.30234   0.76005   0.34318   0.00000  Uiso   1.00
H693   H     0.02021   0.78926   0.32895   0.00000  Uiso   1.00
H694   H     0.32012   0.70411   0.28402   0.00000  Uiso   1.00
H695   H     0.03712   0.73222   0.25933   0.00000  Uiso   1.00
H696   H     0.06382   0.72915   0.32651   0.00000  Uiso   1.00
H697   H     0.04300   0.67737   0.30733   0.00000  Uiso   1.00
H698   H     0.01213   0.70485   0.35651   0.00000  Uiso   1.00
H699   H     0.26604   0.72698   0.18921   0.00000  Uiso   1.00
H700   H     0.23185   0.71829   0.42314   0.00000  Uiso   1.00
H701   H     0.19295   0.71673   0.00722   0.00000  Uiso   1.00
H702   H     0.21154   0.73783   0.38111   0.00000  Uiso   1.00
H703   H     0.19939   0.97982   0.40437   0.00000  Uiso   1.00
H704   H     0.17446   0.99853   0.36585   0.00000  Uiso   1.00
H705   H     0.27130   0.67104   0.35566   0.00000  Uiso   1.00
H706   H     0.23963   0.96763   0.32441   0.00000  Uiso   1.00
H707   H     0.24540   0.68928   0.31731   0.00000  Uiso   1.00
H708   H     0.22106   0.93340   0.03387   0.00000  Uiso   1.00
H709   H     0.05535   0.92816   0.38861   0.00000  Uiso   1.00
H710   H     0.09004   0.83118   0.11066   0.00000  Uiso   1.00
H711   H     0.08157   0.81151   0.05630   0.00000  Uiso   1.00
H712   H     0.01437   0.86874   0.22026   0.00000  Uiso   1.00
H713   H     0.03545   0.88011   0.12053   0.00000  Uiso   1.00
H714   H     0.02642   0.85983   0.06584   0.00000  Uiso   1.00
H715   H     0.00459   0.78811   0.09329   0.00000  Uiso   1.00
H716   H     0.30489   0.82559   0.12711   0.00000  Uiso   1.00
H717   H     0.01243   0.80892   0.14825   0.00000  Uiso   1.00
H718   H     0.03149   0.96148   0.03168   0.00000  Uiso   1.00
H719   H     0.06803   0.79283   0.42952   0.00000  Uiso   1.00
H720   H     0.26001   0.73547   0.11160   0.00000  Uiso   1.00
H721   H     0.26887   0.77187   0.07022   0.00000  Uiso   1.00
H722   H     0.25563   0.67521   0.05341   0.00000  Uiso   1.00
H723   H     0.26408   0.71079   0.01035   0.00000  Uiso   1.00
H724   H     0.32726   0.70463   0.06774   0.00000  Uiso   1.00
H725   H     0.33124   0.68446   0.00945   0.00000  Uiso   1.00
O726   O     0.16667   0.83333   0.25000   0.00000  Uiso   1.00
O727   O     0.15451   0.79304   0.15459   0.00000  Uiso   1.00
O728   O     0.12940   0.87058   0.34968   0.00000  Uiso   1.00
O729   O     0.20824   0.84425   0.14606   0.00000  Uiso   1.00
O730   O     0.17451   0.82546   0.34968   0.00000  Uiso   1.00
O731   O     0.20755   0.73589   0.08698   0.00000  Uiso   1.00
O732   O     0.31378   0.78619   0.28312   0.00000  Uiso   1.00
O733   O     0.26028   0.99349   0.21680   0.00000  Uiso   1.00
O734   O     0.23483   0.71626   0.20166   0.00000  Uiso   1.00
O735   O     0.16601   0.71709   0.43893   0.00000  Uiso   1.00
O736   O     0.18713   0.89617   0.09924   0.00000  Uiso   1.00
O737   O     0.17930   0.74686   0.28214   0.00000  Uiso   1.00
O738   O     0.21531   0.90251   0.02426   0.00000  Uiso   1.00
O739   O     0.11256   0.95682   0.42379   0.00000  Uiso   1.00
O740   O     0.06402   0.90534   0.40272   0.00000  Uiso   1.00
O741   O     0.11080   0.87468   0.06409   0.00000  Uiso   1.00
O742   O     0.09526   0.95191   0.05179   0.00000  Uiso   1.00
O743   O     0.04537   0.93832   0.01062   0.00000  Uiso   1.00
O744   O     0.13278   0.73492   0.37184   0.00000  Uiso   1.00
O745   O     0.07895   0.77314   0.40218   0.00000  Uiso   1.00
O746   O     0.14632   0.92751   0.27013   0.00000  Uiso   1.00
O747   O     0.07412   0.79958   0.23413   0.00000  Uiso   1.00
O748   O     0.26693   0.85939   0.21361   0.00000  Uiso   1.00
O749   O     0.07071   0.85544   0.28213   0.00000  Uiso   1.00
O750   O     0.25491   0.81892   0.27014   0.00000  Uiso   1.00
O751   O     0.13760   0.73610   0.23413   0.00000  Uiso   1.00
O752   O     0.20345   0.92286   0.21360   0.00000  Uiso   1.00
Zn753  Zn    0.19338   0.80661   0.28734   0.00000  Uiso   1.00
Zn754  Zn    0.13379   0.79124   0.21875   0.00000  Uiso   1.00
Zn755  Zn    0.21056   0.86442   0.20657   0.00000  Uiso   1.00
Zn756  Zn    0.12893   0.87106   0.28733   0.00000  Uiso   1.00
C757   C     0.38624   0.82628   0.25915   0.00000  Uiso   1.00
C758   C     0.51719   0.83283   0.05224   0.00000  Uiso   1.00
C759   C     0.53015   0.76330   0.06197   0.00000  Uiso   1.00
C760   C     0.61405   0.84057   0.24045   0.00000  Uiso   1.00
C761   C     0.46751   0.85579   0.42234   0.00000  Uiso   1.00
C762   C     0.65932   0.84500   0.23989   0.00000  Uiso   1.00
C763   C     0.34055   0.82070   0.26361   0.00000  Uiso   1.00
C764   C     0.51871   0.99024   0.24078   0.00000  Uiso   1.00
C765   C     0.48572   0.67800   0.26063   0.00000  Uiso   1.00
C766   C     0.48882   0.72246   0.26037   0.00000  Uiso   1.00
C767   C     0.51103   0.94483   0.24117   0.00000  Uiso   1.00
C768   C     0.44049   0.89731   0.49391   0.00000  Uiso   1.00
C769   C     0.51831   0.81468   0.12884   0.00000  Uiso   1.00
C770   C     0.48042   0.85055   0.37158   0.00000  Uiso   1.00
C771   C     0.52294   0.74899   0.01950   0.00000  Uiso   1.00
C772   C     0.52502   0.80475   0.07966   0.00000  Uiso   1.00
C773   C     0.44740   0.89084   0.44626   0.00000  Uiso   1.00
C774   C     0.58592   0.74014   0.07940   0.00000  Uiso   1.00
C775   C     0.60426   0.70666   0.04303   0.00000  Uiso   1.00
C776   C     0.65250   0.70922   0.03581   0.00000  Uiso   1.00
C777   C     0.66297   0.76789   0.31400   0.00000  Uiso   1.00
C778   C     0.34673   0.72703   0.29185   0.00000  Uiso   1.00
C779   C     0.45597   0.87095   0.01703   0.00000  Uiso   1.00
C780   C     0.36763   0.70852   0.32264   0.00000  Uiso   1.00
C781   C     0.56242   0.67752   0.21928   0.00000  Uiso   1.00
C782   C     0.53836   0.71400   0.40617   0.00000  Uiso   1.00
C783   C     0.53609   0.67061   0.38053   0.00000  Uiso   1.00
C784   C     0.57572   0.99949   0.34210   0.00000  Uiso   1.00
C785   C     0.52888   0.87883   0.06091   0.00000  Uiso   1.00
C786   C     0.43125   0.91986   0.42295   0.00000  Uiso   1.00
C787   C     0.41458   0.83998   0.08073   0.00000  Uiso   1.00
C788   C     0.36940   0.85210   0.09572   0.00000  Uiso   1.00
C789   C     0.33755   0.81643   0.11748   0.00000  Uiso   1.00
C790   C     0.48033   0.83933   0.49241   0.00000  Uiso   1.00
C791   C     0.41618   0.93102   0.02056   0.00000  Uiso   1.00
C792   C     0.45270   0.76264   0.39997   0.00000  Uiso   1.00
C793   C     0.47671   0.82646   0.44787   0.00000  Uiso   1.00
C794   C     0.50250   0.81630   0.01305   0.00000  Uiso   1.00
C795   C     0.50843   0.77480   0.49497   0.00000  Uiso   1.00
C796   C     0.49698   0.75872   0.45430   0.00000  Uiso   1.00
C797   C     0.47853   0.78371   0.43215   0.00000  Uiso   1.00
H798   H     0.45405   0.99497   0.27372   0.00000  Uiso   1.00
H799   H     0.33520   0.74004   0.02412   0.00000  Uiso   1.00
H800   H     0.63567   0.76005   0.34318   0.00000  Uiso   1.00
H801   H     0.35355   0.78926   0.32895   0.00000  Uiso   1.00
H802   H     0.65345   0.70411   0.28402   0.00000  Uiso   1.00
H803   H     0.37046   0.73222   0.25933   0.00000  Uiso   1.00
H804   H     0.39715   0.72915   0.32651   0.00000  Uiso   1.00
H805   H     0.37633   0.67737   0.30733   0.00000  Uiso   1.00
H806   H     0.34547   0.70485   0.35651   0.00000  Uiso   1.00
H807   H     0.59937   0.72698   0.18921   0.00000  Uiso   1.00
H808   H     0.56519   0.71829   0.42314   0.00000  Uiso   1.00
H809   H     0.52628   0.71673   0.00722   0.00000  Uiso   1.00
H810   H     0.54487   0.73783   0.38111   0.00000  Uiso   1.00
H811   H     0.53272   0.97982   0.40437   0.00000  Uiso   1.00
H812   H     0.50779   0.99853   0.36585   0.00000  Uiso   1.00
H813   H     0.60463   0.67104   0.35566   0.00000  Uiso   1.00
H814   H     0.57297   0.96763   0.32441   0.00000  Uiso   1.00
H815   H     0.57873   0.68928   0.31731   0.00000  Uiso   1.00
H816   H     0.55439   0.93340   0.03387   0.00000  Uiso   1.00
H817   H     0.38868   0.92816   0.38861   0.00000  Uiso   1.00
H818   H     0.42337   0.83118   0.11066   0.00000  Uiso   1.00
H819   H     0.41490   0.81151   0.05630   0.00000  Uiso   1.00
H820   H     0.34770   0.86874   0.22026   0.00000  Uiso   1.00
H821   H     0.36879   0.88011   0.12053   0.00000  Uiso   1.00
H822   H     0.35975   0.85983   0.06584   0.00000  Uiso   1.00
H823   H     0.33792   0.78811   0.09329   0.00000  Uiso   1.00
H824   H     0.63822   0.82559   0.12711   0.00000  Uiso   1.00
H825   H     0.34576   0.80892   0.14825   0.00000  Uiso   1.00
H826   H     0.36482   0.96148   0.03168   0.00000  Uiso   1.00
H827   H     0.40136   0.79283   0.42952   0.00000  Uiso   1.00
H828   H     0.59334   0.73547   0.11160   0.00000  Uiso   1.00
H829   H     0.60220   0.77187   0.07022   0.00000  Uiso   1.00
H830   H     0.58896   0.67521   0.05341   0.00000  Uiso   1.00
H831   H     0.59741   0.71079   0.01035   0.00000  Uiso   1.00
H832   H     0.66060   0.70463   0.06774   0.00000  Uiso   1.00
H833   H     0.66457   0.68446   0.00945   0.00000  Uiso   1.00
O834   O     0.50000   0.83333   0.25000   0.00000  Uiso   1.00
O835   O     0.48784   0.79304   0.15459   0.00000  Uiso   1.00
O836   O     0.46274   0.87058   0.34968   0.00000  Uiso   1.00
O837   O     0.54157   0.84425   0.14606   0.00000  Uiso   1.00
O838   O     0.50785   0.82546   0.34968   0.00000  Uiso   1.00
O839   O     0.54089   0.73589   0.08698   0.00000  Uiso   1.00
O840   O     0.64711   0.78619   0.28312   0.00000  Uiso   1.00
O841   O     0.59361   0.99349   0.21680   0.00000  Uiso   1.00
O842   O     0.56816   0.71626   0.20166   0.00000  Uiso   1.00
O843   O     0.49934   0.71709   0.43893   0.00000  Uiso   1.00
O844   O     0.52047   0.89617   0.09924   0.00000  Uiso   1.00
O845   O     0.51264   0.74686   0.28214   0.00000  Uiso   1.00
O846   O     0.54864   0.90251   0.02426   0.00000  Uiso   1.00
O847   O     0.44589   0.95682   0.42379   0.00000  Uiso   1.00
O848   O     0.39735   0.90534   0.40272   0.00000  Uiso   1.00
O849   O     0.44413   0.87468   0.06409   0.00000  Uiso   1.00
O850   O     0.42859   0.95191   0.05179   0.00000  Uiso   1.00
O851   O     0.37870   0.93832   0.01062   0.00000  Uiso   1.00
O852   O     0.46612   0.73492   0.37184   0.00000  Uiso   1.00
O853   O     0.41228   0.77314   0.40218   0.00000  Uiso   1.00
O854   O     0.47965   0.92751   0.27013   0.00000  Uiso   1.00
O855   O     0.40745   0.79958   0.23413   0.00000  Uiso   1.00
O856   O     0.60026   0.85939   0.21361   0.00000  Uiso   1.00
O857   O     0.40405   0.85544   0.28213   0.00000  Uiso   1.00
O858   O     0.58824   0.81892   0.27014   0.00000  Uiso   1.00
O859   O     0.47093   0.73610   0.23413   0.00000  Uiso   1.00
O860   O     0.53678   0.92286   0.21360   0.00000  Uiso   1.00
Zn861  Zn    0.52672   0.80661   0.28734   0.00000  Uiso   1.00
Zn862  Zn    0.46713   0.79124   0.21875   0.00000  Uiso   1.00
Zn863  Zn    0.54389   0.86442   0.20657   0.00000  Uiso   1.00
Zn864  Zn    0.46226   0.87106   0.28733   0.00000  Uiso   1.00
C865   C     0.71957   0.82628   0.25915   0.00000  Uiso   1.00
C866   C     0.85052   0.83283   0.05224   0.00000  Uiso   1.00
C867   C     0.86349   0.76330   0.06197   0.00000  Uiso   1.00
C868   C     0.94738   0.84057   0.24045   0.00000  Uiso   1.00
C869   C     0.80084   0.85579   0.42234   0.00000  Uiso   1.00
C870   C     0.99266   0.84500   0.23989   0.00000  Uiso   1.00
C871   C     0.67388   0.82070   0.26361   0.00000  Uiso   1.00
C872   C     0.85205   0.99024   0.24078   0.00000  Uiso   1.00
C873   C     0.81905   0.67800   0.26063   0.00000  Uiso   1.00
C874   C     0.82215   0.72246   0.26037   0.00000  Uiso   1.00
C875   C     0.84436   0.94483   0.24117   0.00000  Uiso   1.00
C876   C     0.77383   0.89731   0.49391   0.00000  Uiso   1.00
C877   C     0.85165   0.81468   0.12884   0.00000  Uiso   1.00
C878   C     0.81376   0.85055   0.37158   0.00000  Uiso   1.00
C879   C     0.85627   0.74899   0.01950   0.00000  Uiso   1.00
C880   C     0.85836   0.80475   0.07966   0.00000  Uiso   1.00
C881   C     0.78074   0.89084   0.44626   0.00000  Uiso   1.00
C882   C     0.91925   0.74014   0.07940   0.00000  Uiso   1.00
C883   C     0.93759   0.70666   0.04303   0.00000  Uiso   1.00
C884   C     0.98584   0.70922   0.03581   0.00000  Uiso   1.00
C885   C     0.99630   0.76789   0.31400   0.00000  Uiso   1.00
C886   C     0.68006   0.72703   0.29185   0.00000  Uiso   1.00
C887   C     0.78930   0.87095   0.01703   0.00000  Uiso   1.00
C888   C     0.70097   0.70852   0.32264   0.00000  Uiso   1.00
C889   C     0.89576   0.67752   0.21928   0.00000  Uiso   1.00
C890   C     0.87170   0.71400   0.40617   0.00000  Uiso   1.00
C891   C     0.86943   0.67061   0.38053   0.00000  Uiso   1.00
C892   C     0.90906   0.99949   0.34210   0.00000  Uiso   1.00
C893   C     0.86221   0.87883   0.06091   0.00000  Uiso   1.00
C894   C     0.76459   0.91986   0.42295   0.00000  Uiso   1.00
C895   C     0.74791   0.83998   0.08073   0.00000  Uiso   1.00
C896   C     0.70273   0.85210   0.09572   0.00000  Uiso   1.00
C897   C     0.67088   0.81643   0.11748   0.00000  Uiso   1.00
C898   C     0.81366   0.83933   0.49241   0.00000  Uiso   1.00
C899   C     0.74952   0.93102   0.02056   0.00000  Uiso   1.00
C900   C     0.78603   0.76264   0.39997   0.00000  Uiso   1.00
C901   C     0.81004   0.82646   0.44787   0.00000  Uiso   1.00
C902   C     0.83583   0.81630   0.01305   0.00000  Uiso   1.00
C903   C     0.84176   0.77480   0.49497   0.00000  Uiso   1.00
C904   C     0.83032   0.75872   0.45430   0.00000  Uiso   1.00
C905   C     0.81186   0.78371   0.43215   0.00000  Uiso   1.00
H906   H     0.78738   0.99497   0.27372   0.00000  Uiso   1.00
H907   H     0.66853   0.74004   0.02412   0.00000  Uiso   1.00
H908   H     0.96901   0.76005   0.34318   0.00000  Uiso   1.00
H909   H     0.68688   0.78926   0.32895   0.00000  Uiso   1.00
H910   H     0.98678   0.70411   0.28402   0.00000  Uiso   1.00
H911   H     0.70379   0.73222   0.25933   0.00000  Uiso   1.00
H912   H     0.73049   0.72915   0.32651   0.00000  Uiso   1.00
H913   H     0.70967   0.67737   0.30733   0.00000  Uiso   1.00
H914   H     0.67880   0.70485   0.35651   0.00000  Uiso   1.00
H915   H     0.93270   0.72698   0.18921   0.00000  Uiso   1.00
H916   H     0.89852   0.71829   0.42314   0.00000  Uiso   1.00
H917   H     0.85962   0.71673   0.00722   0.00000  Uiso   1.00
H918   H     0.87821   0.73783   0.38111   0.00000  Uiso   1.00
H919   H     0.86606   0.97982   0.40437   0.00000  Uiso   1.00
H920   H     0.84112   0.99853   0.36585   0.00000  Uiso   1.00
H921   H     0.93797   0.67104   0.35566   0.00000  Uiso   1.00
H922   H     0.90630   0.96763   0.32441   0.00000  Uiso   1.00
H923   H     0.91207   0.68928   0.31731   0.00000  Uiso   1.00
H924   H     0.88772   0.93340   0.03387   0.00000  Uiso   1.00
H925   H     0.72201   0.92816   0.38861   0.00000  Uiso   1.00
H926   H     0.75671   0.83118   0.11066   0.00000  Uiso   1.00
H927   H     0.74823   0.81151   0.05630   0.00000  Uiso   1.00
H928   H     0.68104   0.86874   0.22026   0.00000  Uiso   1.00
H929   H     0.70212   0.88011   0.12053   0.00000  Uiso   1.00
H930   H     0.69308   0.85983   0.06584   0.00000  Uiso   1.00
H931   H     0.67126   0.78811   0.09329   0.00000  Uiso   1.00
H932   H     0.97156   0.82559   0.12711   0.00000  Uiso   1.00
H933   H     0.67910   0.80892   0.14825   0.00000  Uiso   1.00
H934   H     0.69815   0.96148   0.03168   0.00000  Uiso   1.00
H935   H     0.73470   0.79283   0.42952   0.00000  Uiso   1.00
H936   H     0.92668   0.73547   0.11160   0.00000  Uiso   1.00
H937   H     0.93554   0.77187   0.07022   0.00000  Uiso   1.00
H938   H     0.92229   0.67521   0.05341   0.00000  Uiso   1.00
H939   H     0.93074   0.71079   0.01035   0.00000  Uiso   1.00
H940   H     0.99393   0.70463   0.06774   0.00000  Uiso   1.00
H941   H     0.99790   0.68446   0.00945   0.00000  Uiso   1.00
O942   O     0.83333   0.83333   0.25000   0.00000  Uiso   1.00
O943   O     0.82118   0.79304   0.15459   0.00000  Uiso   1.00
O944   O     0.79607   0.87058   0.34968   0.00000  Uiso   1.00
O945   O     0.87491   0.84425   0.14606   0.00000  Uiso   1.00
O946   O     0.84118   0.82546   0.34968   0.00000  Uiso   1.00
O947   O     0.87422   0.73589   0.08698   0.00000  Uiso   1.00
O948   O     0.98044   0.78619   0.28312   0.00000  Uiso   1.00
O949   O     0.92695   0.99349   0.21680   0.00000  Uiso   1.00
O950   O     0.90150   0.71626   0.20166   0.00000  Uiso   1.00
O951   O     0.83267   0.71709   0.43893   0.00000  Uiso   1.00
O952   O     0.85380   0.89617   0.09924   0.00000  Uiso   1.00
O953   O     0.84597   0.74686   0.28214   0.00000  Uiso   1.00
O954   O     0.88197   0.90251   0.02426   0.00000  Uiso   1.00
O955   O     0.77923   0.95682   0.42379   0.00000  Uiso   1.00
O956   O     0.73068   0.90534   0.40272   0.00000  Uiso   1.00
O957   O     0.77747   0.87468   0.06409   0.00000  Uiso   1.00
O958   O     0.76193   0.95191   0.05179   0.00000  Uiso   1.00
O959   O     0.71203   0.93832   0.01062   0.00000  Uiso   1.00
O960   O     0.79945   0.73492   0.37184   0.00000  Uiso   1.00
O961   O     0.74562   0.77314   0.40218   0.00000  Uiso   1.00
O962   O     0.81298   0.92751   0.27013   0.00000  Uiso   1.00
O963   O     0.74078   0.79958   0.23413   0.00000  Uiso   1.00
O964   O     0.93360   0.85939   0.21361   0.00000  Uiso   1.00
O965   O     0.73738   0.85544   0.28213   0.00000  Uiso   1.00
O966   O     0.92158   0.81892   0.27014   0.00000  Uiso   1.00
O967   O     0.80426   0.73610   0.23413   0.00000  Uiso   1.00
O968   O     0.87012   0.92286   0.21360   0.00000  Uiso   1.00
Zn969  Zn    0.86005   0.80661   0.28734   0.00000  Uiso   1.00
Zn970  Zn    0.80046   0.79124   0.21875   0.00000  Uiso   1.00
Zn971  Zn    0.87723   0.86442   0.20657   0.00000  Uiso   1.00
Zn972  Zn    0.79560   0.87106   0.28733   0.00000  Uiso   1.00
C973   C     0.05290   0.15962   0.75915   0.00000  Uiso   1.00
C974   C     0.18386   0.16616   0.55224   0.00000  Uiso   1.00
C975   C     0.19682   0.09663   0.56197   0.00000  Uiso   1.00
C976   C     0.28072   0.17391   0.74045   0.00000  Uiso   1.00
C977   C     0.13417   0.18913   0.92234   0.00000  Uiso   1.00
C978   C     0.32599   0.17834   0.73989   0.00000  Uiso   1.00
C979   C     0.00722   0.15403   0.76361   0.00000  Uiso   1.00
C980   C     0.18538   0.32357   0.74078   0.00000  Uiso   1.00
C981   C     0.15239   0.01133   0.76063   0.00000  Uiso   1.00
C982   C     0.15548   0.05579   0.76037   0.00000  Uiso   1.00
C983   C     0.17770   0.27816   0.74117   0.00000  Uiso   1.00
C984   C     0.10716   0.23064   0.99391   0.00000  Uiso   1.00
C985   C     0.18498   0.14801   0.62884   0.00000  Uiso   1.00
C986   C     0.14709   0.18388   0.87158   0.00000  Uiso   1.00
C987   C     0.18961   0.08233   0.51950   0.00000  Uiso   1.00
C988   C     0.19169   0.13808   0.57966   0.00000  Uiso   1.00
C989   C     0.11407   0.22418   0.94626   0.00000  Uiso   1.00
C990   C     0.25258   0.07347   0.57940   0.00000  Uiso   1.00
C991   C     0.27092   0.03999   0.54303   0.00000  Uiso   1.00
C992   C     0.31917   0.04256   0.53581   0.00000  Uiso   1.00
C993   C     0.32964   0.10122   0.81400   0.00000  Uiso   1.00
C994   C     0.01340   0.06037   0.79185   0.00000  Uiso   1.00
C995   C     0.12263   0.20428   0.51703   0.00000  Uiso   1.00
C996   C     0.03430   0.04186   0.82264   0.00000  Uiso   1.00
C997   C     0.22909   0.01086   0.71928   0.00000  Uiso   1.00
C998   C     0.20503   0.04734   0.90617   0.00000  Uiso   1.00
C999   C     0.20276   0.00395   0.88053   0.00000  Uiso   1.00
C1000  C     0.24239   0.33283   0.84210   0.00000  Uiso   1.00
C1001  C     0.19554   0.21216   0.56091   0.00000  Uiso   1.00
C1002  C     0.09792   0.25319   0.92295   0.00000  Uiso   1.00
C1003  C     0.08125   0.17331   0.58073   0.00000  Uiso   1.00
C1004  C     0.03606   0.18543   0.59572   0.00000  Uiso   1.00
C1005  C     0.00421   0.14977   0.61748   0.00000  Uiso   1.00
C1006  C     0.14699   0.17266   0.99241   0.00000  Uiso   1.00
C1007  C     0.08285   0.26436   0.52056   0.00000  Uiso   1.00
C1008  C     0.11937   0.09597   0.89997   0.00000  Uiso   1.00
C1009  C     0.14337   0.15980   0.94787   0.00000  Uiso   1.00
C1010  C     0.16916   0.14964   0.51305   0.00000  Uiso   1.00
C1011  C     0.17509   0.10813   0.99497   0.00000  Uiso   1.00
C1012  C     0.16365   0.09206   0.95430   0.00000  Uiso   1.00
C1013  C     0.14520   0.11704   0.93215   0.00000  Uiso   1.00
H1014  H     0.12072   0.32830   0.77372   0.00000  Uiso   1.00
H1015  H     0.00186   0.07337   0.52412   0.00000  Uiso   1.00
H1016  H     0.30234   0.09338   0.84318   0.00000  Uiso   1.00
H1017  H     0.02021   0.12259   0.82895   0.00000  Uiso   1.00
H1018  H     0.32012   0.03744   0.78402   0.00000  Uiso   1.00
H1019  H     0.03712   0.06555   0.75933   0.00000  Uiso   1.00
H1020  H     0.06382   0.06248   0.82651   0.00000  Uiso   1.00
H1021  H     0.04300   0.01071   0.80733   0.00000  Uiso   1.00
H1022  H     0.01213   0.03819   0.85651   0.00000  Uiso   1.00
H1023  H     0.26604   0.06031   0.68921   0.00000  Uiso   1.00
H1024  H     0.23185   0.05162   0.92314   0.00000  Uiso   1.00
H1025  H     0.19295   0.05006   0.50722   0.00000  Uiso   1.00
H1026  H     0.21154   0.07116   0.88111   0.00000  Uiso   1.00
H1027  H     0.19939   0.31316   0.90437   0.00000  Uiso   1.00
H1028  H     0.17446   0.33186   0.86585   0.00000  Uiso   1.00
H1029  H     0.27130   0.00437   0.85566   0.00000  Uiso   1.00
H1030  H     0.23963   0.30097   0.82441   0.00000  Uiso   1.00
H1031  H     0.24540   0.02262   0.81731   0.00000  Uiso   1.00
H1032  H     0.22106   0.26673   0.53387   0.00000  Uiso   1.00
H1033  H     0.05535   0.26149   0.88861   0.00000  Uiso   1.00
H1034  H     0.09004   0.16451   0.61066   0.00000  Uiso   1.00
H1035  H     0.08157   0.14484   0.55630   0.00000  Uiso   1.00
H1036  H     0.01437   0.20207   0.72026   0.00000  Uiso   1.00
H1037  H     0.03545   0.21344   0.62053   0.00000  Uiso   1.00
H1038  H     0.02642   0.19317   0.56584   0.00000  Uiso   1.00
H1039  H     0.00459   0.12145   0.59329   0.00000  Uiso   1.00
H1040  H     0.30489   0.15893   0.62711   0.00000  Uiso   1.00
H1041  H     0.01243   0.14225   0.64825   0.00000  Uiso   1.00
H1042  H     0.03149   0.29481   0.53168   0.00000  Uiso   1.00
H1043  H     0.06803   0.12616   0.92952   0.00000  Uiso   1.00
H1044  H     0.26001   0.06880   0.61160   0.00000  Uiso   1.00
H1045  H     0.26887   0.10520   0.57022   0.00000  Uiso   1.00
H1046  H     0.25563   0.00854   0.55341   0.00000  Uiso   1.00
H1047  H     0.26408   0.04413   0.51035   0.00000  Uiso   1.00
H1048  H     0.32726   0.03796   0.56774   0.00000  Uiso   1.00
H1049  H     0.33124   0.01780   0.50945   0.00000  Uiso   1.00
O1050  O     0.16667   0.16667   0.75000   0.00000  Uiso   1.00
O1051  O     0.15451   0.12637   0.65459   0.00000  Uiso   1.00
O1052  O     0.12940   0.20391   0.84968   0.00000  Uiso   1.00
O1053  O     0.20824   0.17759   0.64606   0.00000  Uiso   1.00
O1054  O     0.17451   0.15880   0.84968   0.00000  Uiso   1.00
O1055  O     0.20755   0.06922   0.58698   0.00000  Uiso   1.00
O1056  O     0.31378   0.11953   0.78312   0.00000  Uiso   1.00
O1057  O     0.26028   0.32683   0.71680   0.00000  Uiso   1.00
O1058  O     0.23483   0.04959   0.70166   0.00000  Uiso   1.00
O1059  O     0.16601   0.05043   0.93893   0.00000  Uiso   1.00
O1060  O     0.18713   0.22950   0.59924   0.00000  Uiso   1.00
O1061  O     0.17930   0.08019   0.78214   0.00000  Uiso   1.00
O1062  O     0.21531   0.23584   0.52426   0.00000  Uiso   1.00
O1063  O     0.11256   0.29015   0.92379   0.00000  Uiso   1.00
O1064  O     0.06402   0.23867   0.90272   0.00000  Uiso   1.00
O1065  O     0.11080   0.20802   0.56409   0.00000  Uiso   1.00
O1066  O     0.09526   0.28525   0.55179   0.00000  Uiso   1.00
O1067  O     0.04537   0.27165   0.51062   0.00000  Uiso   1.00
O1068  O     0.13278   0.06825   0.87184   0.00000  Uiso   1.00
O1069  O     0.07895   0.10647   0.90218   0.00000  Uiso   1.00
O1070  O     0.14632   0.26085   0.77013   0.00000  Uiso   1.00
O1071  O     0.07412   0.13291   0.73413   0.00000  Uiso   1.00
O1072  O     0.26693   0.19272   0.71361   0.00000  Uiso   1.00
O1073  O     0.07071   0.18878   0.78213   0.00000  Uiso   1.00
O1074  O     0.25491   0.15226   0.77014   0.00000  Uiso   1.00
O1075  O     0.13760   0.06944   0.73413   0.00000  Uiso   1.00
O1076  O     0.20345   0.25620   0.71360   0.00000  Uiso   1.00
Zn1077 Zn    0.19338   0.13994   0.78734   0.00000  Uiso   1.00
Zn1078 Zn    0.13379   0.12458   0.71875   0.00000  Uiso   1.00
Zn1079 Zn    0.21056   0.19775   0.70657   0.00000  Uiso   1.00
Zn1080 Zn    0.12893   0.20439   0.78733   0.00000  Uiso   1.00
C1081  C     0.38624   0.15962   0.75915   0.00000  Uiso   1.00
C1082  C     0.51719   0.16616   0.55224   0.00000  Uiso   1.00
C1083  C     0.53015   0.09663   0.56197   0.00000  Uiso   1.00
C1084  C     0.61405   0.17391   0.74045   0.00000  Uiso   1.00
C1085  C     0.46751   0.18913   0.92234   0.00000  Uiso   1.00
C1086  C     0.65932   0.17834   0.73989   0.00000  Uiso   1.00
C1087  C     0.34055   0.15403   0.76361   0.00000  Uiso   1.00
C1088  C     0.51871   0.32357   0.74078   0.00000  Uiso   1.00
C1089  C     0.48572   0.01133   0.76063   0.00000  Uiso   1.00
C1090  C     0.48882   0.05579   0.76037   0.00000  Uiso   1.00
C1091  C     0.51103   0.27816   0.74117   0.00000  Uiso   1.00
C1092  C     0.44049   0.23064   0.99391   0.00000  Uiso   1.00
C1093  C     0.51831   0.14801   0.62884   0.00000  Uiso   1.00
C1094  C     0.48042   0.18388   0.87158   0.00000  Uiso   1.00
C1095  C     0.52294   0.08233   0.51950   0.00000  Uiso   1.00
C1096  C     0.52502   0.13808   0.57966   0.00000  Uiso   1.00
C1097  C     0.44740   0.22418   0.94626   0.00000  Uiso   1.00
C1098  C     0.58592   0.07347   0.57940   0.00000  Uiso   1.00
C1099  C     0.60426   0.03999   0.54303   0.00000  Uiso   1.00
C1100  C     0.65250   0.04256   0.53581   0.00000  Uiso   1.00
C1101  C     0.66297   0.10122   0.81400   0.00000  Uiso   1.00
C1102  C     0.34673   0.06037   0.79185   0.00000  Uiso   1.00
C1103  C     0.45597   0.20428   0.51703   0.00000  Uiso   1.00
C1104  C     0.36763   0.04186   0.82264   0.00000  Uiso   1.00
C1105  C     0.56242   0.01086   0.71928   0.00000  Uiso   1.00
C1106  C     0.53836   0.04734   0.90617   0.00000  Uiso   1.00
C1107  C     0.53609   0.00395   0.88053   0.00000  Uiso   1.00
C1108  C     0.57572   0.33283   0.84210   0.00000  Uiso   1.00
C1109  C     0.52888   0.21216   0.56091   0.00000  Uiso   1.00
C1110  C     0.43125   0.25319   0.92295   0.00000  Uiso   1.00
C1111  C     0.41458   0.17331   0.58073   0.00000  Uiso   1.00
C1112  C     0.36940   0.18543   0.59572   0.00000  Uiso   1.00
C1113  C     0.33755   0.14977   0.61748   0.00000  Uiso   1.00
C1114  C     0.48033   0.17266   0.99241   0.00000  Uiso   1.00
C1115  C     0.41618   0.26436   0.52056   0.00000  Uiso   1.00
C1116  C     0.45270   0.09597   0.89997   0.00000  Uiso   1.00
C1117  C     0.47671   0.15980   0.94787   0.00000  Uiso   1.00
C1118  C     0.50250   0.14964   0.51305   0.00000  Uiso   1.00
C1119  C     0.50843   0.10813   0.99497   0.00000  Uiso   1.00
C1120  C     0.49698   0.09206   0.95430   0.00000  Uiso   1.00
C1121  C     0.47853   0.11704   0.93215   0.00000  Uiso   1.00
H1122  H     0.45405   0.32830   0.77372   0.00000  Uiso   1.00
H1123  H     0.33520   0.07337   0.52412   0.00000  Uiso   1.00
H1124  H     0.63567   0.09338   0.84318   0.00000  Uiso   1.00
H1125  H     0.35355   0.12259   0.82895   0.00000  Uiso   1.00
H1126  H     0.65345   0.03744   0.78402   0.00000  Uiso   1.00
H1127  H     0.37046   0.06555   0.75933   0.00000  Uiso   1.00
H1128  H     0.39715   0.06248   0.82651   0.00000  Uiso   1.00
H1129  H     0.37633   0.01071   0.80733   0.00000  Uiso   1.00
H1130  H     0.34547   0.03819   0.85651   0.00000  Uiso   1.00
H1131  H     0.59937   0.06031   0.68921   0.00000  Uiso   1.00
H1132  H     0.56519   0.05162   0.92314   0.00000  Uiso   1.00
H1133  H     0.52628   0.05006   0.50722   0.00000  Uiso   1.00
H1134  H     0.54487   0.07116   0.88111   0.00000  Uiso   1.00
H1135  H     0.53272   0.31316   0.90437   0.00000  Uiso   1.00
H1136  H     0.50779   0.33186   0.86585   0.00000  Uiso   1.00
H1137  H     0.60463   0.00437   0.85566   0.00000  Uiso   1.00
H1138  H     0.57297   0.30097   0.82441   0.00000  Uiso   1.00
H1139  H     0.57873   0.02262   0.81731   0.00000  Uiso   1.00
H1140  H     0.55439   0.26673   0.53387   0.00000  Uiso   1.00
H1141  H     0.38868   0.26149   0.88861   0.00000  Uiso   1.00
H1142  H     0.42337   0.16451   0.61066   0.00000  Uiso   1.00
H1143  H     0.41490   0.14484   0.55630   0.00000  Uiso   1.00
H1144  H     0.34770   0.20207   0.72026   0.00000  Uiso   1.00
H1145  H     0.36879   0.21344   0.62053   0.00000  Uiso   1.00
H1146  H     0.35975   0.19317   0.56584   0.00000  Uiso   1.00
H1147  H     0.33792   0.12145   0.59329   0.00000  Uiso   1.00
H1148  H     0.63822   0.15893   0.62711   0.00000  Uiso   1.00
H1149  H     0.34576   0.14225   0.64825   0.00000  Uiso   1.00
H1150  H     0.36482   0.29481   0.53168   0.00000  Uiso   1.00
H1151  H     0.40136   0.12616   0.92952   0.00000  Uiso   1.00
H1152  H     0.59334   0.06880   0.61160   0.00000  Uiso   1.00
H1153  H     0.60220   0.10520   0.57022   0.00000  Uiso   1.00
H1154  H     0.58896   0.00854   0.55341   0.00000  Uiso   1.00
H1155  H     0.59741   0.04413   0.51035   0.00000  Uiso   1.00
H1156  H     0.66060   0.03796   0.56774   0.00000  Uiso   1.00
H1157  H     0.66457   0.01780   0.50945   0.00000  Uiso   1.00
O1158  O     0.50000   0.16667   0.75000   0.00000  Uiso   1.00
O1159  O     0.48784   0.12637   0.65459   0.00000  Uiso   1.00
O1160  O     0.46274   0.20391   0.84968   0.00000  Uiso   1.00
O1161  O     0.54157   0.17759   0.64606   0.00000  Uiso   1.00
O1162  O     0.50785   0.15880   0.84968   0.00000  Uiso   1.00
O1163  O     0.54089   0.06922   0.58698   0.00000  Uiso   1.00
O1164  O     0.64711   0.11953   0.78312   0.00000  Uiso   1.00
O1165  O     0.59361   0.32683   0.71680   0.00000  Uiso   1.00
O1166  O     0.56816   0.04959   0.70166   0.00000  Uiso   1.00
O1167  O     0.49934   0.05043   0.93893   0.00000  Uiso   1.00
O1168  O     0.52047   0.22950   0.59924   0.00000  Uiso   1.00
O1169  O     0.51264   0.08019   0.78214   0.00000  Uiso   1.00
O1170  O     0.54864   0.23584   0.52426   0.00000  Uiso   1.00
O1171  O     0.44589   0.29015   0.92379   0.00000  Uiso   1.00
O1172  O     0.39735   0.23867   0.90272   0.00000  Uiso   1.00
O1173  O     0.44413   0.20802   0.56409   0.00000  Uiso   1.00
O1174  O     0.42859   0.28525   0.55179   0.00000  Uiso   1.00
O1175  O     0.37870   0.27165   0.51062   0.00000  Uiso   1.00
O1176  O     0.46612   0.06825   0.87184   0.00000  Uiso   1.00
O1177  O     0.41228   0.10647   0.90218   0.00000  Uiso   1.00
O1178  O     0.47965   0.26085   0.77013   0.00000  Uiso   1.00
O1179  O     0.40745   0.13291   0.73413   0.00000  Uiso   1.00
O1180  O     0.60026   0.19272   0.71361   0.00000  Uiso   1.00
O1181  O     0.40405   0.18878   0.78213   0.00000  Uiso   1.00
O1182  O     0.58824   0.15226   0.77014   0.00000  Uiso   1.00
O1183  O     0.47093   0.06944   0.73413   0.00000  Uiso   1.00
O1184  O     0.53678   0.25620   0.71360   0.00000  Uiso   1.00
Zn1185 Zn    0.52672   0.13994   0.78734   0.00000  Uiso   1.00
Zn1186 Zn    0.46713   0.12458   0.71875   0.00000  Uiso   1.00
Zn1187 Zn    0.54389   0.19775   0.70657   0.00000  Uiso   1.00
Zn1188 Zn    0.46226   0.20439   0.78733   0.00000  Uiso   1.00
C1189  C     0.71957   0.15962   0.75915   0.00000  Uiso   1.00
C1190  C     0.85052   0.16616   0.55224   0.00000  Uiso   1.00
C1191  C     0.86349   0.09663   0.56197   0.00000  Uiso   1.00
C1192  C     0.94738   0.17391   0.74045   0.00000  Uiso   1.00
C1193  C     0.80084   0.18913   0.92234   0.00000  Uiso   1.00
C1194  C     0.99266   0.17834   0.73989   0.00000  Uiso   1.00
C1195  C     0.67388   0.15403   0.76361   0.00000  Uiso   1.00
C1196  C     0.85205   0.32357   0.74078   0.00000  Uiso   1.00
C1197  C     0.81905   0.01133   0.76063   0.00000  Uiso   1.00
C1198  C     0.82215   0.05579   0.76037   0.00000  Uiso   1.00
C1199  C     0.84436   0.27816   0.74117   0.00000  Uiso   1.00
C1200  C     0.77383   0.23064   0.99391   0.00000  Uiso   1.00
C1201  C     0.85165   0.14801   0.62884   0.00000  Uiso   1.00
C1202  C     0.81376   0.18388   0.87158   0.00000  Uiso   1.00
C1203  C     0.85627   0.08233   0.51950   0.00000  Uiso   1.00
C1204  C     0.85836   0.13808   0.57966   0.00000  Uiso   1.00
C1205  C     0.78074   0.22418   0.94626   0.00000  Uiso   1.00
C1206  C     0.91925   0.07347   0.57940   0.00000  Uiso   1.00
C1207  C     0.93759   0.03999   0.54303   0.00000  Uiso   1.00
C1208  C     0.98584   0.04256   0.53581   0.00000  Uiso   1.00
C1209  C     0.99630   0.10122   0.81400   0.00000  Uiso   1.00
C1210  C     0.68006   0.06037   0.79185   0.00000  Uiso   1.00
C1211  C     0.78930   0.20428   0.51703   0.00000  Uiso   1.00
C1212  C     0.70097   0.04186   0.82264   0.00000  Uiso   1.00
C1213  C     0.89576   0.01086   0.71928   0.00000  Uiso   1.00
C1214  C     0.87170   0.04734   0.90617   0.00000  Uiso   1.00
C1215  C     0.86943   0.00395   0.88053   0.00000  Uiso   1.00
C1216  C     0.90906   0.33283   0.84210   0.00000  Uiso   1.00
C1217  C     0.86221   0.21216   0.56091   0.00000  Uiso   1.00
C1218  C     0.76459   0.25319   0.92295   0.00000  Uiso   1.00
C1219  C     0.74791   0.17331   0.58073   0.00000  Uiso   1.00
C1220  C     0.70273   0.18543   0.59572   0.00000  Uiso   1.00
C1221  C     0.67088   0.14977   0.61748   0.00000  Uiso   1.00
C1222  C     0.81366   0.17266   0.99241   0.00000  Uiso   1.00
C1223  C     0.74952   0.26436   0.52056   0.00000  Uiso   1.00
C1224  C     0.78603   0.09597   0.89997   0.00000  Uiso   1.00
C1225  C     0.81004   0.15980   0.94787   0.00000  Uiso   1.00
C1226  C     0.83583   0.14964   0.51305   0.00000  Uiso   1.00
C1227  C     0.84176   0.10813   0.99497   0.00000  Uiso   1.00
C1228  C     0.83032   0.09206   0.95430   0.00000  Uiso   1.00
C1229  C     0.81186   0.11704   0.93215   0.00000  Uiso   1.00
H1230  H     0.78738   0.32830   0.77372   0.00000  Uiso   1.00
H1231  H     0.66853   0.07337   0.52412   0.00000  Uiso   1.00
H1232  H     0.96901   0.09338   0.84318   0.00000  Uiso   1.00
H1233  H     0.68688   0.12259   0.82895   0.00000  Uiso   1.00
H1234  H     0.98678   0.03744   0.78402   0.00000  Uiso   1.00
H1235  H     0.70379   0.06555   0.75933   0.00000  Uiso   1.00
H1236  H     0.73049   0.06248   0.82651   0.00000  Uiso   1.00
H1237  H     0.70967   0.01071   0.80733   0.00000  Uiso   1.00
H1238  H     0.67880   0.03819   0.85651   0.00000  Uiso   1.00
H1239  H     0.93270   0.06031   0.68921   0.00000  Uiso   1.00
H1240  H     0.89852   0.05162   0.92314   0.00000  Uiso   1.00
H1241  H     0.85962   0.05006   0.50722   0.00000  Uiso   1.00
H1242  H     0.87821   0.07116   0.88111   0.00000  Uiso   1.00
H1243  H     0.86606   0.31316   0.90437   0.00000  Uiso   1.00
H1244  H     0.84112   0.33186   0.86585   0.00000  Uiso   1.00
H1245  H     0.93797   0.00437   0.85566   0.00000  Uiso   1.00
H1246  H     0.90630   0.30097   0.82441   0.00000  Uiso   1.00
H1247  H     0.91207   0.02262   0.81731   0.00000  Uiso   1.00
H1248  H     0.88772   0.26673   0.53387   0.00000  Uiso   1.00
H1249  H     0.72201   0.26149   0.88861   0.00000  Uiso   1.00
H1250  H     0.75671   0.16451   0.61066   0.00000  Uiso   1.00
H1251  H     0.74823   0.14484   0.55630   0.00000  Uiso   1.00
H1252  H     0.68104   0.20207   0.72026   0.00000  Uiso   1.00
H1253  H     0.70212   0.21344   0.62053   0.00000  Uiso   1.00
H1254  H     0.69308   0.19317   0.56584   0.00000  Uiso   1.00
H1255  H     0.67126   0.12145   0.59329   0.00000  Uiso   1.00
H1256  H     0.97156   0.15893   0.62711   0.00000  Uiso   1.00
H1257  H     0.67910   0.14225   0.64825   0.00000  Uiso   1.00
H1258  H     0.69815   0.29481   0.53168   0.00000  Uiso   1.00
H1259  H     0.73470   0.12616   0.92952   0.00000  Uiso   1.00
H1260  H     0.92668   0.06880   0.61160   0.00000  Uiso   1.00
H1261  H     0.93554   0.10520   0.57022   0.00000  Uiso   1.00
H1262  H     0.92229   0.00854   0.55341   0.00000  Uiso   1.00
H1263  H     0.93074   0.04413   0.51035   0.00000  Uiso   1.00
H1264  H     0.99393   0.03796   0.56774   0.00000  Uiso   1.00
H1265  H     0.99790   0.01780   0.50945   0.00000  Uiso   1.00
O1266  O     0.83333   0.16667   0.75000   0.00000  Uiso   1.00
O1267  O     0.82118   0.12637   0.65459   0.00000  Uiso   1.00
O1268  O     0.79607   0.20391   0.84968   0.00000  Uiso   1.00
O1269  O     0.87491   0.17759   0.64606   0.00000  Uiso   1.00
O1270  O     0.84118   0.15880   0.84968   0.00000  Uiso   1.00
O1271  O     0.87422   0.06922   0.58698   0.00000  Uiso   1.00
O1272  O     0.98044   0.11953   0.78312   0.00000  Uiso   1.00
O1273  O     0.92695   0.32683   0.71680   0.00000  Uiso   1.00
O1274  O     0.90150   0.04959   0.70166   0.00000  Uiso   1.00
O1275  O     0.83267   0.05043   0.93893   0.00000  Uiso   1.00
O1276  O     0.85380   0.22950   0.59924   0.00000  Uiso   1.00
O1277  O     0.84597   0.08019   0.78214   0.00000  Uiso   1.00
O1278  O     0.88197   0.23584   0.52426   0.00000  Uiso   1.00
O1279  O     0.77923   0.29015   0.92379   0.00000  Uiso   1.00
O1280  O     0.73068   0.23867   0.90272   0.00000  Uiso   1.00
O1281  O     0.77747   0.20802   0.56409   0.00000  Uiso   1.00
O1282  O     0.76193   0.28525   0.55179   0.00000  Uiso   1.00
O1283  O     0.71203   0.27165   0.51062   0.00000  Uiso   1.00
O1284  O     0.79945   0.06825   0.87184   0.00000  Uiso   1.00
O1285  O     0.74562   0.10647   0.90218   0.00000  Uiso   1.00
O1286  O     0.81298   0.26085   0.77013   0.00000  Uiso   1.00
O1287  O     0.74078   0.13291   0.73413   0.00000  Uiso   1.00
O1288  O     0.93360   0.19272   0.71361   0.00000  Uiso   1.00
O1289  O     0.73738   0.18878   0.78213   0.00000  Uiso   1.00
O1290  O     0.92158   0.15226   0.77014   0.00000  Uiso   1.00
O1291  O     0.80426   0.06944   0.73413   0.00000  Uiso   1.00
O1292  O     0.87012   0.25620   0.71360   0.00000  Uiso   1.00
Zn1293 Zn    0.86005   0.13994   0.78734   0.00000  Uiso   1.00
Zn1294 Zn    0.80046   0.12458   0.71875   0.00000  Uiso   1.00
Zn1295 Zn    0.87723   0.19775   0.70657   0.00000  Uiso   1.00
Zn1296 Zn    0.79560   0.20439   0.78733   0.00000  Uiso   1.00
C1297  C     0.05290   0.49295   0.75915   0.00000  Uiso   1.00
C1298  C     0.18386   0.49949   0.55224   0.00000  Uiso   1.00
C1299  C     0.19682   0.42996   0.56197   0.00000  Uiso   1.00
C1300  C     0.28072   0.50724   0.74045   0.00000  Uiso   1.00
C1301  C     0.13417   0.52246   0.92234   0.00000  Uiso   1.00
C1302  C     0.32599   0.51167   0.73989   0.00000  Uiso   1.00
C1303  C     0.00722   0.48737   0.76361   0.00000  Uiso   1.00
C1304  C     0.18538   0.65691   0.74078   0.00000  Uiso   1.00
C1305  C     0.15239   0.34466   0.76063   0.00000  Uiso   1.00
C1306  C     0.15548   0.38913   0.76037   0.00000  Uiso   1.00
C1307  C     0.17770   0.61149   0.74117   0.00000  Uiso   1.00
C1308  C     0.10716   0.56398   0.99391   0.00000  Uiso   1.00
C1309  C     0.18498   0.48135   0.62884   0.00000  Uiso   1.00
C1310  C     0.14709   0.51722   0.87158   0.00000  Uiso   1.00
C1311  C     0.18961   0.41566   0.51950   0.00000  Uiso   1.00
C1312  C     0.19169   0.47142   0.57966   0.00000  Uiso   1.00
C1313  C     0.11407   0.55751   0.94626   0.00000  Uiso   1.00
C1314  C     0.25258   0.40681   0.57940   0.00000  Uiso   1.00
C1315  C     0.27092   0.37332   0.54303   0.00000  Uiso   1.00
C1316  C     0.31917   0.37589   0.53581   0.00000  Uiso   1.00
C1317  C     0.32964   0.43456   0.81400   0.00000  Uiso   1.00
C1318  C     0.01340   0.39370   0.79185   0.00000  Uiso   1.00
C1319  C     0.12263   0.53762   0.51703   0.00000  Uiso   1.00
C1320  C     0.03430   0.37519   0.82264   0.00000  Uiso   1.00
C1321  C     0.22909   0.34419   0.71928   0.00000  Uiso   1.00
C1322  C     0.20503   0.38067   0.90617   0.00000  Uiso   1.00
C1323  C     0.20276   0.33728   0.88053   0.00000  Uiso   1.00
C1324  C     0.24239   0.66616   0.84210   0.00000  Uiso   1.00
C1325  C     0.19554   0.54550   0.56091   0.00000  Uiso   1.00
C1326  C     0.09792   0.58652   0.92295   0.00000  Uiso   1.00
C1327  C     0.08125   0.50664   0.58073   0.00000  Uiso   1.00
C1328  C     0.03606   0.51877   0.59572   0.00000  Uiso   1.00
C1329  C     0.00421   0.48310   0.61748   0.00000  Uiso   1.00
C1330  C     0.14699   0.50599   0.99241   0.00000  Uiso   1.00
C1331  C     0.08285   0.59769   0.52056   0.00000  Uiso   1.00
C1332  C     0.11937   0.42930   0.89997   0.00000  Uiso   1.00
C1333  C     0.14337   0.49313   0.94787   0.00000  Uiso   1.00
C1334  C     0.16916   0.48297   0.51305   0.00000  Uiso   1.00
C1335  C     0.17509   0.44147   0.99497   0.00000  Uiso   1.00
C1336  C     0.16365   0.42539   0.95430   0.00000  Uiso   1.00
C1337  C     0.14520   0.45038   0.93215   0.00000  Uiso   1.00
H1338  H     0.12072   0.66164   0.77372   0.00000  Uiso   1.00
H1339  H     0.00186   0.40671   0.52412   0.00000  Uiso   1.00
H1340  H     0.30234   0.42671   0.84318   0.00000  Uiso   1.00
H1341  H     0.02021   0.45592   0.82895   0.00000  Uiso   1.00
H1342  H     0.32012   0.37078   0.78402   0.00000  Uiso   1.00
H1343  H     0.03712   0.39888   0.75933   0.00000  Uiso   1.00
H1344  H     0.06382   0.39582   0.82651   0.00000  Uiso   1.00
H1345  H     0.04300   0.34404   0.80733   0.00000  Uiso   1.00
H1346  H     0.01213   0.37152   0.85651   0.00000  Uiso   1.00
H1347  H     0.26604   0.39365   0.68921   0.00000  Uiso   1.00
H1348  H     0.23185   0.38496   0.92314   0.00000  Uiso   1.00
H1349  H     0.19295   0.38340   0.50722   0.00000  Uiso   1.00
H1350  H     0.21154   0.40450   0.88111   0.00000  Uiso   1.00
H1351  H     0.19939   0.64649   0.90437   0.00000  Uiso   1.00
H1352  H     0.17446   0.66520   0.86585   0.00000  Uiso   1.00
H1353  H     0.27130   0.33770   0.85566   0.00000  Uiso   1.00
H1354  H     0.23963   0.63430   0.82441   0.00000  Uiso   1.00
H1355  H     0.24540   0.35595   0.81731   0.00000  Uiso   1.00
H1356  H     0.22106   0.60007   0.53387   0.00000  Uiso   1.00
H1357  H     0.05535   0.59482   0.88861   0.00000  Uiso   1.00
H1358  H     0.09004   0.49785   0.61066   0.00000  Uiso   1.00
H1359  H     0.08157   0.47818   0.55630   0.00000  Uiso   1.00
H1360  H     0.01437   0.53541   0.72026   0.00000  Uiso   1.00
H1361  H     0.03545   0.54677   0.62053   0.00000  Uiso   1.00
H1362  H     0.02642   0.52650   0.56584   0.00000  Uiso   1.00
H1363  H     0.00459   0.45478   0.59329   0.00000  Uiso   1.00
H1364  H     0.30489   0.49226   0.62711   0.00000  Uiso   1.00
H1365  H     0.01243   0.47558   0.64825   0.00000  Uiso   1.00
H1366  H     0.03149   0.62815   0.53168   0.00000  Uiso   1.00
H1367  H     0.06803   0.45949   0.92952   0.00000  Uiso   1.00
H1368  H     0.26001   0.40213   0.61160   0.00000  Uiso   1.00
H1369  H     0.26887   0.43854   0.57022   0.00000  Uiso   1.00
H1370  H     0.25563   0.34187   0.55341   0.00000  Uiso   1.00
H1371  H     0.26408   0.37746   0.51035   0.00000  Uiso   1.00
H1372  H     0.32726   0.37129   0.56774   0.00000  Uiso   1.00
H1373  H     0.33124   0.35113   0.50945   0.00000  Uiso   1.00
O1374  O     0.16667   0.50000   0.75000   0.00000  Uiso   1.00
O1375  O     0.15451   0.45970   0.65459   0.00000  Uiso   1.00
O1376  O     0.12940   0.53724   0.84968   0.00000  Uiso   1.00
O1377  O     0.20824   0.51092   0.64606   0.00000  Uiso   1.00
O1378  O     0.17451   0.49213   0.84968   0.00000  Uiso   1.00
O1379  O     0.20755   0.40256   0.58698   0.00000  Uiso   1.00
O1380  O     0.31378   0.45286   0.78312   0.00000  Uiso   1.00
O1381  O     0.26028   0.66016   0.71680   0.00000  Uiso   1.00
O1382  O     0.23483   0.38293   0.70166   0.00000  Uiso   1.00
O1383  O     0.16601   0.38376   0.93893   0.00000  Uiso   1.00
O1384  O     0.18713   0.56284   0.59924   0.00000  Uiso   1.00
O1385  O     0.17930   0.41352   0.78214   0.00000  Uiso   1.00
O1386  O     0.21531   0.56918   0.52426   0.00000  Uiso   1.00
O1387  O     0.11256   0.62349   0.92379   0.00000  Uiso   1.00
O1388  O     0.06402   0.57200   0.90272   0.00000  Uiso   1.00
O1389  O     0.11080   0.54135   0.56409   0.00000  Uiso   1.00
O1390  O     0.09526   0.61858   0.55179   0.00000  Uiso   1.00
O1391  O     0.04537   0.60498   0.51062   0.00000  Uiso   1.00
O1392  O     0.13278   0.40159   0.87184   0.00000  Uiso   1.00
O1393  O     0.07895   0.43981   0.90218   0.00000  Uiso   1.00
O1394  O     0.14632   0.59418   0.77013   0.00000  Uiso   1.00
O1395  O     0.07412   0.46625   0.73413   0.00000  Uiso   1.00
O1396  O     0.26693   0.52605   0.71361   0.00000  Uiso   1.00
O1397  O     0.07071   0.52211   0.78213   0.00000  Uiso   1.00
O1398  O     0.25491   0.48559   0.77014   0.00000  Uiso   1.00
O1399  O     0.13760   0.40277   0.73413   0.00000  Uiso   1.00
O1400  O     0.20345   0.58953   0.71360   0.00000  Uiso   1.00
Zn1401 Zn    0.19338   0.47327   0.78734   0.00000  Uiso   1.00
Zn1402 Zn    0.13379   0.45791   0.71875   0.00000  Uiso   1.00
Zn1403 Zn    0.21056   0.53109   0.70657   0.00000  Uiso   1.00
Zn1404 Zn    0.12893   0.53773   0.78733   0.00000  Uiso   1.00
C1405  C     0.38624   0.49295   0.75915   0.00000  Uiso   1.00
C1406  C     0.51719   0.49949   0.55224   0.00000  Uiso   1.00
C1407  C     0.53015   0.42996   0.56197   0.00000  Uiso   1.00
C1408  C     0.61405   0.50724   0.74045   0.00000  Uiso   1.00
C1409  C     0.46751   0.52246   0.92234   0.00000  Uiso   1.00
C1410  C     0.65932   0.51167   0.73989   0.00000  Uiso   1.00
C1411  C     0.34055   0.48737   0.76361   0.00000  Uiso   1.00
C1412  C     0.51871   0.65691   0.74078   0.00000  Uiso   1.00
C1413  C     0.48572   0.34466   0.76063   0.00000  Uiso   1.00
C1414  C     0.48882   0.38913   0.76037   0.00000  Uiso   1.00
C1415  C     0.51103   0.61149   0.74117   0.00000  Uiso   1.00
C1416  C     0.44049   0.56398   0.99391   0.00000  Uiso   1.00
C1417  C     0.51831   0.48135   0.62884   0.00000  Uiso   1.00
C1418  C     0.48042   0.51722   0.87158   0.00000  Uiso   1.00
C1419  C     0.52294   0.41566   0.51950   0.00000  Uiso   1.00
C1420  C     0.52502   0.47142   0.57966   0.00000  Uiso   1.00
C1421  C     0.44740   0.55751   0.94626   0.00000  Uiso   1.00
C1422  C     0.58592   0.40681   0.57940   0.00000  Uiso   1.00
C1423  C     0.60426   0.37332   0.54303   0.00000  Uiso   1.00
C1424  C     0.65250   0.37589   0.53581   0.00000  Uiso   1.00
C1425  C     0.66297   0.43456   0.81400   0.00000  Uiso   1.00
C1426  C     0.34673   0.39370   0.79185   0.00000  Uiso   1.00
C1427  C     0.45597   0.53762   0.51703   0.00000  Uiso   1.00
C1428  C     0.36763   0.37519   0.82264   0.00000  Uiso   1.00
C1429  C     0.56242   0.34419   0.71928   0.00000  Uiso   1.00
C1430  C     0.53836   0.38067   0.90617   0.00000  Uiso   1.00
C1431  C     0.53609   0.33728   0.88053   0.00000  Uiso   1.00
C1432  C     0.57572   0.66616   0.84210   0.00000  Uiso   1.00
C1433  C     0.52888   0.54550   0.56091   0.00000  Uiso   1.00
C1434  C     0.43125   0.58652   0.92295   0.00000  Uiso   1.00
C1435  C     0.41458   0.50664   0.58073   0.00000  Uiso   1.00
C1436  C     0.36940   0.51877   0.59572   0.00000  Uiso   1.00
C1437  C     0.33755   0.48310   0.61748   0.00000  Uiso   1.00
C1438  C     0.48033   0.50599   0.99241   0.00000  Uiso   1.00
C1439  C     0.41618   0.59769   0.52056   0.00000  Uiso   1.00
C1440  C     0.45270   0.42930   0.89997   0.00000  Uiso   1.00
C1441  C     0.47671   0.49313   0.94787   0.00000  Uiso   1.00
C1442  C     0.50250   0.48297   0.51305   0.00000  Uiso   1.00
C1443  C     0.50843   0.44147   0.99497   0.00000  Uiso   1.00
C1444  C     0.49698   0.42539   0.95430   0.00000  Uiso   1.00
C1445  C     0.47853   0.45038   0.93215   0.00000  Uiso   1.00
H1446  H     0.45405   0.66164   0.77372   0.00000  Uiso   1.00
H1447  H     0.33520   0.40671   0.52412   0.00000  Uiso   1.00
H1448  H     0.63567   0.42671   0.84318   0.00000  Uiso   1.00
H1449  H     0.35355   0.45592   0.82895   0.00000  Uiso   1.00
H1450  H     0.65345   0.37078   0.78402   0.00000  Uiso   1.00
H1451  H     0.37046   0.39888   0.75933   0.00000  Uiso   1.00
H1452  H     0.39715   0.39582   0.82651   0.00000  Uiso   1.00
H1453  H     0.37633   0.34404   0.80733   0.00000  Uiso   1.00
H1454  H     0.34547   0.37152   0.85651   0.00000  Uiso   1.00
H1455  H     0.59937   0.39365   0.68921   0.00000  Uiso   1.00
H1456  H     0.56519   0.38496   0.92314   0.00000  Uiso   1.00
H1457  H     0.52628   0.38340   0.50722   0.00000  Uiso   1.00
H1458  H     0.54487   0.40450   0.88111   0.00000  Uiso   1.00
H1459  H     0.53272   0.64649   0.90437   0.00000  Uiso   1.00
H1460  H     0.50779   0.66520   0.86585   0.00000  Uiso   1.00
H1461  H     0.60463   0.33770   0.85566   0.00000  Uiso   1.00
H1462  H     0.57297   0.63430   0.82441   0.00000  Uiso   1.00
H1463  H     0.57873   0.35595   0.81731   0.00000  Uiso   1.00
H1464  H     0.55439   0.60007   0.53387   0.00000  Uiso   1.00
H1465  H     0.38868   0.59482   0.88861   0.00000  Uiso   1.00
H1466  H     0.42337   0.49785   0.61066   0.00000  Uiso   1.00
H1467  H     0.41490   0.47818   0.55630   0.00000  Uiso   1.00
H1468  H     0.34770   0.53541   0.72026   0.00000  Uiso   1.00
H1469  H     0.36879   0.54677   0.62053   0.00000  Uiso   1.00
H1470  H     0.35975   0.52650   0.56584   0.00000  Uiso   1.00
H1471  H     0.33792   0.45478   0.59329   0.00000  Uiso   1.00
H1472  H     0.63822   0.49226   0.62711   0.00000  Uiso   1.00
H1473  H     0.34576   0.47558   0.64825   0.00000  Uiso   1.00
H1474  H     0.36482   0.62815   0.53168   0.00000  Uiso   1.00
H1475  H     0.40136   0.45949   0.92952   0.00000  Uiso   1.00
H1476  H     0.59334   0.40213   0.61160   0.00000  Uiso   1.00
H1477  H     0.60220   0.43854   0.57022   0.00000  Uiso   1.00
H1478  H     0.58896   0.34187   0.55341   0.00000  Uiso   1.00
H1479  H     0.59741   0.37746   0.51035   0.00000  Uiso   1.00
H1480  H     0.66060   0.37129   0.56774   0.00000  Uiso   1.00
H1481  H     0.66457   0.35113   0.50945   0.00000  Uiso   1.00
O1482  O     0.50000   0.50000   0.75000   0.00000  Uiso   1.00
O1483  O     0.48784   0.45970   0.65459   0.00000  Uiso   1.00
O1484  O     0.46274   0.53724   0.84968   0.00000  Uiso   1.00
O1485  O     0.54157   0.51092   0.64606   0.00000  Uiso   1.00
O1486  O     0.50785   0.49213   0.84968   0.00000  Uiso   1.00
O1487  O     0.54089   0.40256   0.58698   0.00000  Uiso   1.00
O1488  O     0.64711   0.45286   0.78312   0.00000  Uiso   1.00
O1489  O     0.59361   0.66016   0.71680   0.00000  Uiso   1.00
O1490  O     0.56816   0.38293   0.70166   0.00000  Uiso   1.00
O1491  O     0.49934   0.38376   0.93893   0.00000  Uiso   1.00
O1492  O     0.52047   0.56284   0.59924   0.00000  Uiso   1.00
O1493  O     0.51264   0.41352   0.78214   0.00000  Uiso   1.00
O1494  O     0.54864   0.56918   0.52426   0.00000  Uiso   1.00
O1495  O     0.44589   0.62349   0.92379   0.00000  Uiso   1.00
O1496  O     0.39735   0.57200   0.90272   0.00000  Uiso   1.00
O1497  O     0.44413   0.54135   0.56409   0.00000  Uiso   1.00
O1498  O     0.42859   0.61858   0.55179   0.00000  Uiso   1.00
O1499  O     0.37870   0.60498   0.51062   0.00000  Uiso   1.00
O1500  O     0.46612   0.40159   0.87184   0.00000  Uiso   1.00
O1501  O     0.41228   0.43981   0.90218   0.00000  Uiso   1.00
O1502  O     0.47965   0.59418   0.77013   0.00000  Uiso   1.00
O1503  O     0.40745   0.46625   0.73413   0.00000  Uiso   1.00
O1504  O     0.60026   0.52605   0.71361   0.00000  Uiso   1.00
O1505  O     0.40405   0.52211   0.78213   0.00000  Uiso   1.00
O1506  O     0.58824   0.48559   0.77014   0.00000  Uiso   1.00
O1507  O     0.47093   0.40277   0.73413   0.00000  Uiso   1.00
O1508  O     0.53678   0.58953   0.71360   0.00000  Uiso   1.00
Zn1509 Zn    0.52672   0.47327   0.78734   0.00000  Uiso   1.00
Zn1510 Zn    0.46713   0.45791   0.71875   0.00000  Uiso   1.00
Zn1511 Zn    0.54389   0.53109   0.70657   0.00000  Uiso   1.00
Zn1512 Zn    0.46226   0.53773   0.78733   0.00000  Uiso   1.00
C1513  C     0.71957   0.49295   0.75915   0.00000  Uiso   1.00
C1514  C     0.85052   0.49949   0.55224   0.00000  Uiso   1.00
C1515  C     0.86349   0.42996   0.56197   0.00000  Uiso   1.00
C1516  C     0.94738   0.50724   0.74045   0.00000  Uiso   1.00
C1517  C     0.80084   0.52246   0.92234   0.00000  Uiso   1.00
C1518  C     0.99266   0.51167   0.73989   0.00000  Uiso   1.00
C1519  C     0.67388   0.48737   0.76361   0.00000  Uiso   1.00
C1520  C     0.85205   0.65691   0.74078   0.00000  Uiso   1.00
C1521  C     0.81905   0.34466   0.76063   0.00000  Uiso   1.00
C1522  C     0.82215   0.38913   0.76037   0.00000  Uiso   1.00
C1523  C     0.84436   0.61149   0.74117   0.00000  Uiso   1.00
C1524  C     0.77383   0.56398   0.99391   0.00000  Uiso   1.00
C1525  C     0.85165   0.48135   0.62884   0.00000  Uiso   1.00
C1526  C     0.81376   0.51722   0.87158   0.00000  Uiso   1.00
C1527  C     0.85627   0.41566   0.51950   0.00000  Uiso   1.00
C1528  C     0.85836   0.47142   0.57966   0.00000  Uiso   1.00
C1529  C     0.78074   0.55751   0.94626   0.00000  Uiso   1.00
C1530  C     0.91925   0.40681   0.57940   0.00000  Uiso   1.00
C1531  C     0.93759   0.37332   0.54303   0.00000  Uiso   1.00
C1532  C     0.98584   0.37589   0.53581   0.00000  Uiso   1.00
C1533  C     0.99630   0.43456   0.81400   0.00000  Uiso   1.00
C1534  C     0.68006   0.39370   0.79185   0.00000  Uiso   1.00
C1535  C     0.78930   0.53762   0.51703   0.00000  Uiso   1.00
C1536  C     0.70097   0.37519   0.82264   0.00000  Uiso   1.00
C1537  C     0.89576   0.34419   0.71928   0.00000  Uiso   1.00
C1538  C     0.87170   0.38067   0.90617   0.00000  Uiso   1.00
C1539  C     0.86943   0.33728   0.88053   0.00000  Uiso   1.00
C1540  C     0.90906   0.66616   0.84210   0.00000  Uiso   1.00
C1541  C     0.86221   0.54550   0.56091   0.00000  Uiso   1.00
C1542  C     0.76459   0.58652   0.92295   0.00000  Uiso   1.00
C1543  C     0.74791   0.50664   0.58073   0.00000  Uiso   1.00
C1544  C     0.70273   0.51877   0.59572   0.00000  Uiso   1.00
C1545  C     0.67088   0.48310   0.61748   0.00000  Uiso   1.00
C1546  C     0.81366   0.50599   0.99241   0.00000  Uiso   1.00
C1547  C     0.74952   0.59769   0.52056   0.00000  Uiso   1.00
C1548  C     0.78603   0.42930   0.89997   0.00000  Uiso   1.00
C1549  C     0.81004   0.49313   0.94787   0.00000  Uiso   1.00
C1550  C     0.83583   0.48297   0.51305   0.00000  Uiso   1.00
C1551  C     0.84176   0.44147   0.99497   0.00000  Uiso   1.00
C1552  C     0.83032   0.42539   0.95430   0.00000  Uiso   1.00
C1553  C     0.81186   0.45038   0.93215   0.00000  Uiso   1.00
H1554  H     0.78738   0.66164   0.77372   0.00000  Uiso   1.00
H1555  H     0.66853   0.40671   0.52412   0.00000  Uiso   1.00
H1556  H     0.96901   0.42671   0.84318   0.00000  Uiso   1.00
H1557  H     0.68688   0.45592   0.82895   0.00000  Uiso   1.00
H1558  H     0.98678   0.37078   0.78402   0.00000  Uiso   1.00
H1559  H     0.70379   0.39888   0.75933   0.00000  Uiso   1.00
H1560  H     0.73049   0.39582   0.82651   0.00000  Uiso   1.00
H1561  H     0.70967   0.34404   0.80733   0.00000  Uiso   1.00
H1562  H     0.67880   0.37152   0.85651   0.00000  Uiso   1.00
H1563  H     0.93270   0.39365   0.68921   0.00000  Uiso   1.00
H1564  H     0.89852   0.38496   0.92314   0.00000  Uiso   1.00
H1565  H     0.85962   0.38340   0.50722   0.00000  Uiso   1.00
H1566  H     0.87821   0.40450   0.88111   0.00000  Uiso   1.00
H1567  H     0.86606   0.64649   0.90437   0.00000  Uiso   1.00
H1568  H     0.84112   0.66520   0.86585   0.00000  Uiso   1.00
H1569  H     0.93797   0.33770   0.85566   0.00000  Uiso   1.00
H1570  H     0.90630   0.63430   0.82441   0.00000  Uiso   1.00
H1571  H     0.91207   0.35595   0.81731   0.00000  Uiso   1.00
H1572  H     0.88772   0.60007   0.53387   0.00000  Uiso   1.00
H1573  H     0.72201   0.59482   0.88861   0.00000  Uiso   1.00
H1574  H     0.75671   0.49785   0.61066   0.00000  Uiso   1.00
H1575  H     0.74823   0.47818   0.55630   0.00000  Uiso   1.00
H1576  H     0.68104   0.53541   0.72026   0.00000  Uiso   1.00
H1577  H     0.70212   0.54677   0.62053   0.00000  Uiso   1.00
H1578  H     0.69308   0.52650   0.56584   0.00000  Uiso   1.00
H1579  H     0.67126   0.45478   0.59329   0.00000  Uiso   1.00
H1580  H     0.97156   0.49226   0.62711   0.00000  Uiso   1.00
H1581  H     0.67910   0.47558   0.64825   0.00000  Uiso   1.00
H1582  H     0.69815   0.62815   0.53168   0.00000  Uiso   1.00
H1583  H     0.73470   0.45949   0.92952   0.00000  Uiso   1.00
H1584  H     0.92668   0.40213   0.61160   0.00000  Uiso   1.00
H1585  H     0.93554   0.43854   0.57022   0.00000  Uiso   1.00
H1586  H     0.92229   0.34187   0.55341   0.00000  Uiso   1.00
H1587  H     0.93074   0.37746   0.51035   0.00000  Uiso   1.00
H1588  H     0.99393   0.37129   0.56774   0.00000  Uiso   1.00
H1589  H     0.99790   0.35113   0.50945   0.00000  Uiso   1.00
O1590  O     0.83333   0.50000   0.75000   0.00000  Uiso   1.00
O1591  O     0.82118   0.45970   0.65459   0.00000  Uiso   1.00
O1592  O     0.79607   0.53724   0.84968   0.00000  Uiso   1.00
O1593  O     0.87491   0.51092   0.64606   0.00000  Uiso   1.00
O1594  O     0.84118   0.49213   0.84968   0.00000  Uiso   1.00
O1595  O     0.87422   0.40256   0.58698   0.00000  Uiso   1.00
O1596  O     0.98044   0.45286   0.78312   0.00000  Uiso   1.00
O1597  O     0.92695   0.66016   0.71680   0.00000  Uiso   1.00
O1598  O     0.90150   0.38293   0.70166   0.00000  Uiso   1.00
O1599  O     0.83267   0.38376   0.93893   0.00000  Uiso   1.00
O1600  O     0.85380   0.56284   0.59924   0.00000  Uiso   1.00
O1601  O     0.84597   0.41352   0.78214   0.00000  Uiso   1.00
O1602  O     0.88197   0.56918   0.52426   0.00000  Uiso   1.00
O1603  O     0.77923   0.62349   0.92379   0.00000  Uiso   1.00
O1604  O     0.73068   0.57200   0.90272   0.00000  Uiso   1.00
O1605  O     0.77747   0.54135   0.56409   0.00000  Uiso   1.00
O1606  O     0.76193   0.61858   0.55179   0.00000  Uiso   1.00
O1607  O     0.71203   0.60498   0.51062   0.00000  Uiso   1.00
O1608  O     0.79945   0.40159   0.87184   0.00000  Uiso   1.00
O1609  O     0.74562   0.43981   0.90218   0.00000  Uiso   1.00
O1610  O     0.81298   0.59418   0.77013   0.00000  Uiso   1.00
O1611  O     0.74078   0.46625   0.73413   0.00000  Uiso   1.00
O1612  O     0.93360   0.52605   0.71361   0.00000  Uiso   1.00
O1613  O     0.73738   0.52211   0.78213   0.00000  Uiso   1.00
O1614  O     0.92158   0.48559   0.77014   0.00000  Uiso   1.00
O1615  O     0.80426   0.40277   0.73413   0.00000  Uiso   1.00
O1616  O     0.87012   0.58953   0.71360   0.00000  Uiso   1.00
Zn1617 Zn    0.86005   0.47327   0.78734   0.00000  Uiso   1.00
Zn1618 Zn    0.80046   0.45791   0.71875   0.00000  Uiso   1.00
Zn1619 Zn    0.87723   0.53109   0.70657   0.00000  Uiso   1.00
Zn1620 Zn    0.79560   0.53773   0.78733   0.00000  Uiso   1.00
C1621  C     0.05290   0.82628   0.75915   0.00000  Uiso   1.00
C1622  C     0.18386   0.83283   0.55224   0.00000  Uiso   1.00
C1623  C     0.19682   0.76330   0.56197   0.00000  Uiso   1.00
C1624  C     0.28072   0.84057   0.74045   0.00000  Uiso   1.00
C1625  C     0.13417   0.85579   0.92234   0.00000  Uiso   1.00
C1626  C     0.32599   0.84500   0.73989   0.00000  Uiso   1.00
C1627  C     0.00722   0.82070   0.76361   0.00000  Uiso   1.00
C1628  C     0.18538   0.99024   0.74078   0.00000  Uiso   1.00
C1629  C     0.15239   0.67800   0.76063   0.00000  Uiso   1.00
C1630  C     0.15548   0.72246   0.76037   0.00000  Uiso   1.00
C1631  C     0.17770   0.94483   0.74117   0.00000  Uiso   1.00
C1632  C     0.10716   0.89731   0.99391   0.00000  Uiso   1.00
C1633  C     0.18498   0.81468   0.62884   0.00000  Uiso   1.00
C1634  C     0.14709   0.85055   0.87158   0.00000  Uiso   1.00
C1635  C     0.18961   0.74899   0.51950   0.00000  Uiso   1.00
C1636  C     0.19169   0.80475   0.57966   0.00000  Uiso   1.00
C1637  C     0.11407   0.89084   0.94626   0.00000  Uiso   1.00
C1638  C     0.25258   0.74014   0.57940   0.00000  Uiso   1.00
C1639  C     0.27092   0.70666   0.54303   0.00000  Uiso   1.00
C1640  C     0.31917   0.70922   0.53581   0.00000  Uiso   1.00
C1641  C     0.32964   0.76789   0.81400   0.00000  Uiso   1.00
C1642  C     0.01340   0.72703   0.79185   0.00000  Uiso   1.00
C1643  C     0.12263   0.87095   0.51703   0.00000  Uiso   1.00
C1644  C     0.03430   0.70852   0.82264   0.00000  Uiso   1.00
C1645  C     0.22909   0.67752   0.71928   0.00000  Uiso   1.00
C1646  C     0.20503   0.71400   0.90617   0.00000  Uiso   1.00
C1647  C     0.20276   0.67061   0.88053   0.00000  Uiso   1.00
C1648  C     0.24239   0.99949   0.84210   0.00000  Uiso   1.00
C1649  C     0.19554   0.87883   0.56091   0.00000  Uiso   1.00
C1650  C     0.09792   0.91986   0.92295   0.00000  Uiso   1.00
C1651  C     0.08125   0.83998   0.58073   0.00000  Uiso   1.00
C1652  C     0.03606   0.85210   0.59572   0.00000  Uiso   1.00
C1653  C     0.00421   0.81643   0.61748   0.00000  Uiso   1.00
C1654  C     0.14699   0.83933   0.99241   0.00000  Uiso   1.00
C1655  C     0.08285   0.93102   0.52056   0.00000  Uiso   1.00
C1656  C     0.11937   0.76264   0.89997   0.00000  Uiso   1.00
C1657  C     0.14337   0.82646   0.94787   0.00000  Uiso   1.00
C1658  C     0.16916   0.81630   0.51305   0.00000  Uiso   1.00
C1659  C     0.17509   0.77480   0.99497   0.00000  Uiso   1.00
C1660  C     0.16365   0.75872   0.95430   0.00000  Uiso   1.00
C1661  C     0.14520   0.78371   0.93215   0.00000  Uiso   1.00
H1662  H     0.12072   0.99497   0.77372   0.00000  Uiso   1.00
H1663  H     0.00186   0.74004   0.52412   0.00000  Uiso   1.00
H1664  H     0.30234   0.76005   0.84318   0.00000  Uiso   1.00
H1665  H     0.02021   0.78926   0.82895   0.00000  Uiso   1.00
H1666  H     0.32012   0.70411   0.78402   0.00000  Uiso   1.00
H1667  H     0.03712   0.73222   0.75933   0.00000  Uiso   1.00
H1668  H     0.06382   0.72915   0.82651   0.00000  Uiso   1.00
H1669  H     0.04300   0.67737   0.80733   0.00000  Uiso   1.00
H1670  H     0.01213   0.70485   0.85651   0.00000  Uiso   1.00
H1671  H     0.26604   0.72698   0.68921   0.00000  Uiso   1.00
H1672  H     0.23185   0.71829   0.92314   0.00000  Uiso   1.00
H1673  H     0.19295   0.71673   0.50722   0.00000  Uiso   1.00
H1674  H     0.21154   0.73783   0.88111   0.00000  Uiso   1.00
H1675  H     0.19939   0.97982   0.90437   0.00000  Uiso   1.00
H1676  H     0.17446   0.99853   0.86585   0.00000  Uiso   1.00
H1677  H     0.27130   0.67104   0.85566   0.00000  Uiso   1.00
H1678  H     0.23963   0.96763   0.82441   0.00000  Uiso   1.00
H1679  H     0.24540   0.68928   0.81731   0.00000  Uiso   1.00
H1680  H     0.22106   0.93340   0.53387   0.00000  Uiso   1.00
H1681  H     0.05535   0.92816   0.88861   0.00000  Uiso   1.00
H1682  H     0.09004   0.83118   0.61066   0.00000  Uiso   1.00
H1683  H     0.08157   0.81151   0.55630   0.00000  Uiso   1.00
H1684  H     0.01437   0.86874   0.72026   0.00000  Uiso   1.00
H1685  H     0.03545   0.88011   0.62053   0.00000  Uiso   1.00
H1686  H     0.02642   0.85983   0.56584   0.00000  Uiso   1.00
H1687  H     0.00459   0.78811   0.59329   0.00000  Uiso   1.00
H1688  H     0.30489   0.82559   0.62711   0.00000  Uiso   1.00
H1689  H     0.01243   0.80892   0.64825   0.00000  Uiso   1.00
H1690  H     0.03149   0.96148   0.53168   0.00000  Uiso   1.00
H1691  H     0.06803   0.79283   0.92952   0.00000  Uiso   1.00
H1692  H     0.26001   0.73547   0.61160   0.00000  Uiso   1.00
H1693  H     0.26887   0.77187   0.57022   0.00000  Uiso   1.00
H1694  H     0.25563   0.67521   0.55341   0.00000  Uiso   1.00
H1695  H     0.26408   0.71079   0.51035   0.00000  Uiso   1.00
H1696  H     0.32726   0.70463   0.56774   0.00000  Uiso   1.00
H1697  H     0.33124   0.68446   0.50945   0.00000  Uiso   1.00
O1698  O     0.16667   0.83333   0.75000   0.00000  Uiso   1.00
O1699  O     0.15451   0.79304   0.65459   0.00000  Uiso   1.00
O1700  O     0.12940   0.87058   0.84968   0.00000  Uiso   1.00
O1701  O     0.20824   0.84425   0.64606   0.00000  Uiso   1.00
O1702  O     0.17451   0.82546   0.84968   0.00000  Uiso   1.00
O1703  O     0.20755   0.73589   0.58698   0.00000  Uiso   1.00
O1704  O     0.31378   0.78619   0.78312   0.00000  Uiso   1.00
O1705  O     0.26028   0.99349   0.71680   0.00000  Uiso   1.00
O1706  O     0.23483   0.71626   0.70166   0.00000  Uiso   1.00
O1707  O     0.16601   0.71709   0.93893   0.00000  Uiso   1.00
O1708  O     0.18713   0.89617   0.59924   0.00000  Uiso   1.00
O1709  O     0.17930   0.74686   0.78214   0.00000  Uiso   1.00
O1710  O     0.21531   0.90251   0.52426   0.00000  Uiso   1.00
O1711  O     0.11256   0.95682   0.92379   0.00000  Uiso   1.00
O1712  O     0.06402   0.90534   0.90272   0.00000  Uiso   1.00
O1713  O     0.11080   0.87468   0.56409   0.00000  Uiso   1.00
O1714  O     0.09526   0.95191   0.55179   0.00000  Uiso   1.00
O1715  O     0.04537   0.93832   0.51062   0.00000  Uiso   1.00
O1716  O     0.13278   0.73492   0.87184   0.00000  Uiso   1.00
O1717  O     0.07895   0.77314   0.90218   0.00000  Uiso   1.00
O1718  O     0.14632   0.92751   0.77013   0.00000  Uiso   1.00
O1719  O     0.07412   0.79958   0.73413   0.00000  Uiso   1.00
O1720  O     0.26693   0.85939   0.71361   0.00000  Uiso   1.00
O1721  O     0.07071   0.85544   0.78213   0.00000  Uiso   1.00
O1722  O     0.25491   0.81892   0.77014   0.00000  Uiso   1.00
O1723  O     0.13760   0.73610   0.73413   0.00000  Uiso   1.00
O1724  O     0.20345   0.92286   0.71360   0.00000  Uiso   1.00
Zn1725 Zn    0.19338   0.80661   0.78734   0.00000  Uiso   1.00
Zn1726 Zn    0.13379   0.79124   0.71875   0.00000  Uiso   1.00
Zn1727 Zn    0.21056   0.86442   0.70657   0.00000  Uiso   1.00
Zn1728 Zn    0.12893   0.87106   0.78733   0.00000  Uiso   1.00
C1729  C     0.38624   0.82628   0.75915   0.00000  Uiso   1.00
C1730  C     0.51719   0.83283   0.55224   0.00000  Uiso   1.00
C1731  C     0.53015   0.76330   0.56197   0.00000  Uiso   1.00
C1732  C     0.61405   0.84057   0.74045   0.00000  Uiso   1.00
C1733  C     0.46751   0.85579   0.92234   0.00000  Uiso   1.00
C1734  C     0.65932   0.84500   0.73989   0.00000  Uiso   1.00
C1735  C     0.34055   0.82070   0.76361   0.00000  Uiso   1.00
C1736  C     0.51871   0.99024   0.74078   0.00000  Uiso   1.00
C1737  C     0.48572   0.67800   0.76063   0.00000  Uiso   1.00
C1738  C     0.48882   0.72246   0.76037   0.00000  Uiso   1.00
C1739  C     0.51103   0.94483   0.74117   0.00000  Uiso   1.00
C1740  C     0.44049   0.89731   0.99391   0.00000  Uiso   1.00
C1741  C     0.51831   0.81468   0.62884   0.00000  Uiso   1.00
C1742  C     0.48042   0.85055   0.87158   0.00000  Uiso   1.00
C1743  C     0.52294   0.74899   0.51950   0.00000  Uiso   1.00
C1744  C     0.52502   0.80475   0.57966   0.00000  Uiso   1.00
C1745  C     0.44740   0.89084   0.94626   0.00000  Uiso   1.00
C1746  C     0.58592   0.74014   0.57940   0.00000  Uiso   1.00
C1747  C     0.60426   0.70666   0.54303   0.00000  Uiso   1.00
C1748  C     0.65250   0.70922   0.53581   0.00000  Uiso   1.00
C1749  C     0.66297   0.76789   0.81400   0.00000  Uiso   1.00
C1750  C     0.34673   0.72703   0.79185   0.00000  Uiso   1.00
C1751  C     0.45597   0.87095   0.51703   0.00000  Uiso   1.00
C1752  C     0.36763   0.70852   0.82264   0.00000  Uiso   1.00
C1753  C     0.56242   0.67752   0.71928   0.00000  Uiso   1.00
C1754  C     0.53836   0.71400   0.90617   0.00000  Uiso   1.00
C1755  C     0.53609   0.67061   0.88053   0.00000  Uiso   1.00
C1756  C     0.57572   0.99949   0.84210   0.00000  Uiso   1.00
C1757  C     0.52888   0.87883   0.56091   0.00000  Uiso   1.00
C1758  C     0.43125   0.91986   0.92295   0.00000  Uiso   1.00
C1759  C     0.41458   0.83998   0.58073   0.00000  Uiso   1.00
C1760  C     0.36940   0.85210   0.59572   0.00000  Uiso   1.00
C1761  C     0.33755   0.81643   0.61748   0.00000  Uiso   1.00
C1762  C     0.48033   0.83933   0.99241   0.00000  Uiso   1.00
C1763  C     0.41618   0.93102   0.52056   0.00000  Uiso   1.00
C1764  C     0.45270   0.76264   0.89997   0.00000  Uiso   1.00
C1765  C     0.47671   0.82646   0.94787   0.00000  Uiso   1.00
C1766  C     0.50250   0.81630   0.51305   0.00000  Uiso   1.00
C1767  C     0.50843   0.77480   0.99497   0.00000  Uiso   1.00
C1768  C     0.49698   0.75872   0.95430   0.00000  Uiso   1.00
C1769  C     0.47853   0.78371   0.93215   0.00000  Uiso   1.00
H1770  H     0.45405   0.99497   0.77372   0.00000  Uiso   1.00
H1771  H     0.33520   0.74004   0.52412   0.00000  Uiso   1.00
H1772  H     0.63567   0.76005   0.84318   0.00000  Uiso   1.00
H1773  H     0.35355   0.78926   0.82895   0.00000  Uiso   1.00
H1774  H     0.65345   0.70411   0.78402   0.00000  Uiso   1.00
H1775  H     0.37046   0.73222   0.75933   0.00000  Uiso   1.00
H1776  H     0.39715   0.72915   0.82651   0.00000  Uiso   1.00
H1777  H     0.37633   0.67737   0.80733   0.00000  Uiso   1.00
H1778  H     0.34547   0.70485   0.85651   0.00000  Uiso   1.00
H1779  H     0.59937   0.72698   0.68921   0.00000  Uiso   1.00
H1780  H     0.56519   0.71829   0.92314   0.00000  Uiso   1.00
H1781  H     0.52628   0.71673   0.50722   0.00000  Uiso   1.00
H1782  H     0.54487   0.73783   0.88111   0.00000  Uiso   1.00
H1783  H     0.53272   0.97982   0.90437   0.00000  Uiso   1.00
H1784  H     0.50779   0.99853   0.86585   0.00000  Uiso   1.00
H1785  H     0.60463   0.67104   0.85566   0.00000  Uiso   1.00
H1786  H     0.57297   0.96763   0.82441   0.00000  Uiso   1.00
H1787  H     0.57873   0.68928   0.81731   0.00000  Uiso   1.00
H1788  H     0.55439   0.93340   0.53387   0.00000  Uiso   1.00
H1789  H     0.38868   0.92816   0.88861   0.00000  Uiso   1.00
H1790  H     0.42337   0.83118   0.61066   0.00000  Uiso   1.00
H1791  H     0.41490   0.81151   0.55630   0.00000  Uiso   1.00
H1792  H     0.34770   0.86874   0.72026   0.00000  Uiso   1.00
H1793  H     0.36879   0.88011   0.62053   0.00000  Uiso   1.00
H1794  H     0.35975   0.85983   0.56584   0.00000  Uiso   1.00
H1795  H     0.33792   0.78811   0.59329   0.00000  Uiso   1.00
H1796  H     0.63822   0.82559   0.62711   0.00000  Uiso   1.00
H1797  H     0.34576   0.80892   0.64825   0.00000  Uiso   1.00
H1798  H     0.36482   0.96148   0.53168   0.00000  Uiso   1.00
H1799  H     0.40136   0.79283   0.92952   0.00000  Uiso   1.00
H1800  H     0.59334   0.73547   0.61160   0.00000  Uiso   1.00
H1801  H     0.60220   0.77187   0.57022   0.00000  Uiso   1.00
H1802  H     0.58896   0.67521   0.55341   0.00000  Uiso   1.00
H1803  H     0.59741   0.71079   0.51035   0.00000  Uiso   1.00
H1804  H     0.66060   0.70463   0.56774   0.00000  Uiso   1.00
H1805  H     0.66457   0.68446   0.50945   0.00000  Uiso   1.00
O1806  O     0.50000   0.83333   0.75000   0.00000  Uiso   1.00
O1807  O     0.48784   0.79304   0.65459   0.00000  Uiso   1.00
O1808  O     0.46274   0.87058   0.84968   0.00000  Uiso   1.00
O1809  O     0.54157   0.84425   0.64606   0.00000  Uiso   1.00
O1810  O     0.50785   0.82546   0.84968   0.00000  Uiso   1.00
O1811  O     0.54089   0.73589   0.58698   0.00000  Uiso   1.00
O1812  O     0.64711   0.78619   0.78312   0.00000  Uiso   1.00
O1813  O     0.59361   0.99349   0.71680   0.00000  Uiso   1.00
O1814  O     0.56816   0.71626   0.70166   0.00000  Uiso   1.00
O1815  O     0.49934   0.71709   0.93893   0.00000  Uiso   1.00
O1816  O     0.52047   0.89617   0.59924   0.00000  Uiso   1.00
O1817  O     0.51264   0.74686   0.78214   0.00000  Uiso   1.00
O1818  O     0.54864   0.90251   0.52426   0.00000  Uiso   1.00
O1819  O     0.44589   0.95682   0.92379   0.00000  Uiso   1.00
O1820  O     0.39735   0.90534   0.90272   0.00000  Uiso   1.00
O1821  O     0.44413   0.87468   0.56409   0.00000  Uiso   1.00
O1822  O     0.42859   0.95191   0.55179   0.00000  Uiso   1.00
O1823  O     0.37870   0.93832   0.51062   0.00000  Uiso   1.00
O1824  O     0.46612   0.73492   0.87184   0.00000  Uiso   1.00
O1825  O     0.41228   0.77314   0.90218   0.00000  Uiso   1.00
O1826  O     0.47965   0.92751   0.77013   0.00000  Uiso   1.00
O1827  O     0.40745   0.79958   0.73413   0.00000  Uiso   1.00
O1828  O     0.60026   0.85939   0.71361   0.00000  Uiso   1.00
O1829  O     0.40405   0.85544   0.78213   0.00000  Uiso   1.00
O1830  O     0.58824   0.81892   0.77014   0.00000  Uiso   1.00
O1831  O     0.47093   0.73610   0.73413   0.00000  Uiso   1.00
O1832  O     0.53678   0.92286   0.71360   0.00000  Uiso   1.00
Zn1833 Zn    0.52672   0.80661   0.78734   0.00000  Uiso   1.00
Zn1834 Zn    0.46713   0.79124   0.71875   0.00000  Uiso   1.00
Zn1835 Zn    0.54389   0.86442   0.70657   0.00000  Uiso   1.00
Zn1836 Zn    0.46226   0.87106   0.78733   0.00000  Uiso   1.00
C1837  C     0.71957   0.82628   0.75915   0.00000  Uiso   1.00
C1838  C     0.85052   0.83283   0.55224   0.00000  Uiso   1.00
C1839  C     0.86349   0.76330   0.56197   0.00000  Uiso   1.00
C1840  C     0.94738   0.84057   0.74045   0.00000  Uiso   1.00
C1841  C     0.80084   0.85579   0.92234   0.00000  Uiso   1.00
C1842  C     0.99266   0.84500   0.73989   0.00000  Uiso   1.00
C1843  C     0.67388   0.82070   0.76361   0.00000  Uiso   1.00
C1844  C     0.85205   0.99024   0.74078   0.00000  Uiso   1.00
C1845  C     0.81905   0.67800   0.76063   0.00000  Uiso   1.00
C1846  C     0.82215   0.72246   0.76037   0.00000  Uiso   1.00
C1847  C     0.84436   0.94483   0.74117   0.00000  Uiso   1.00
C1848  C     0.77383   0.89731   0.99391   0.00000  Uiso   1.00
C1849  C     0.85165   0.81468   0.62884   0.00000  Uiso   1.00
C1850  C     0.81376   0.85055   0.87158   0.00000  Uiso   1.00
C1851  C     0.85627   0.74899   0.51950   0.00000  Uiso   1.00
C1852  C     0.85836   0.80475   0.57966   0.00000  Uiso   1.00
C1853  C     0.78074   0.89084   0.94626   0.00000  Uiso   1.00
C1854  C     0.91925   0.74014   0.57940   0.00000  Uiso   1.00
C1855  C     0.93759   0.70666   0.54303   0.00000  Uiso   1.00
C1856  C     0.98584   0.70922   0.53581   0.00000  Uiso   1.00
C1857  C     0.99630   0.76789   0.81400   0.00000  Uiso   1.00
C1858  C     0.68006   0.72703   0.79185   0.00000  Uiso   1.00
C1859  C     0.78930   0.87095   0.51703   0.00000  Uiso   1.00
C1860  C     0.70097   0.70852   0.82264   0.00000  Uiso   1.00
C1861  C     0.89576   0.67752   0.71928   0.00000  Uiso   1.00
C1862  C     0.87170   0.71400   0.90617   0.00000  Uiso   1.00
C1863  C     0.86943   0.67061   0.88053   0.00000  Uiso   1.00
C1864  C     0.90906   0.99949   0.84210   0.00000  Uiso   1.00
C1865  C     0.86221   0.87883   0.56091   0.00000  Uiso   1.00
C1866  C     0.76459   0.91986   0.92295   0.00000  Uiso   1.00
C1867  C     0.74791   0.83998   0.58073   0.00000  Uiso   1.00
C1868  C     0.70273   0.85210   0.59572   0.00000  Uiso   1.00
C1869  C     0.67088   0.81643   0.61748   0.00000  Uiso   1.00
C1870  C     0.81366   0.83933   0.99241   0.00000  Uiso   1.00
C1871  C     0.74952   0.93102   0.52056   0.00000  Uiso   1.00
C1872  C     0.78603   0.76264   0.89997   0.00000  Uiso   1.00
C1873  C     0.81004   0.82646   0.94787   0.00000  Uiso   1.00
C1874  C     0.83583   0.81630   0.51305   0.00000  Uiso   1.00
C1875  C     0.84176   0.77480   0.99497   0.00000  Uiso   1.00
C1876  C     0.83032   0.75872   0.95430   0.00000  Uiso   1.00
C1877  C     0.81186   0.78371   0.93215   0.00000  Uiso   1.00
H1878  H     0.78738   0.99497   0.77372   0.00000  Uiso   1.00
H1879  H     0.66853   0.74004   0.52412   0.00000  Uiso   1.00
H1880  H     0.96901   0.76005   0.84318   0.00000  Uiso   1.00
H1881  H     0.68688   0.78926   0.82895   0.00000  Uiso   1.00
H1882  H     0.98678   0.70411   0.78402   0.00000  Uiso   1.00
H1883  H     0.70379   0.73222   0.75933   0.00000  Uiso   1.00
H1884  H     0.73049   0.72915   0.82651   0.00000  Uiso   1.00
H1885  H     0.70967   0.67737   0.80733   0.00000  Uiso   1.00
H1886  H     0.67880   0.70485   0.85651   0.00000  Uiso   1.00
H1887  H     0.93270   0.72698   0.68921   0.00000  Uiso   1.00
H1888  H     0.89852   0.71829   0.92314   0.00000  Uiso   1.00
H1889  H     0.85962   0.71673   0.50722   0.00000  Uiso   1.00
H1890  H     0.87821   0.73783   0.88111   0.00000  Uiso   1.00
H1891  H     0.86606   0.97982   0.90437   0.00000  Uiso   1.00
H1892  H     0.84112   0.99853   0.86585   0.00000  Uiso   1.00
H1893  H     0.93797   0.67104   0.85566   0.00000  Uiso   1.00
H1894  H     0.90630   0.96763   0.82441   0.00000  Uiso   1.00
H1895  H     0.91207   0.68928   0.81731   0.00000  Uiso   1.00
H1896  H     0.88772   0.93340   0.53387   0.00000  Uiso   1.00
H1897  H     0.72201   0.92816   0.88861   0.00000  Uiso   1.00
H1898  H     0.75671   0.83118   0.61066   0.00000  Uiso   1.00
H1899  H     0.74823   0.81151   0.55630   0.00000  Uiso   1.00
H1900  H     0.68104   0.86874   0.72026   0.00000  Uiso   1.00
H1901  H     0.70212   0.88011   0.62053   0.00000  Uiso   1.00
H1902  H     0.69308   0.85983   0.56584   0.00000  Uiso   1.00
H1903  H     0.67126   0.78811   0.59329   0.00000  Uiso   1.00
H1904  H     0.97156   0.82559   0.62711   0.00000  Uiso   1.00
H1905  H     0.67910   0.80892   0.64825   0.00000  Uiso   1.00
H1906  H     0.69815   0.96148   0.53168   0.00000  Uiso   1.00
H1907  H     0.73470   0.79283   0.92952   0.00000  Uiso   1.00
H1908  H     0.92668   0.73547   0.61160   0.00000  Uiso   1.00
H1909  H     0.93554   0.77187   0.57022   0.00000  Uiso   1.00
H1910  H     0.92229   0.67521   0.55341   0.00000  Uiso   1.00
H1911  H     0.93074   0.71079   0.51035   0.00000  Uiso   1.00
H1912  H     0.99393   0.70463   0.56774   0.00000  Uiso   1.00
H1913  H     0.99790   0.68446   0.50945   0.00000  Uiso   1.00
O1914  O     0.83333   0.83333   0.75000   0.00000  Uiso   1.00
O1915  O     0.82118   0.79304   0.65459   0.00000  Uiso   1.00
O1916  O     0.79607   0.87058   0.84968   0.00000  Uiso   1.00
O1917  O     0.87491   0.84425   0.64606   0.00000  Uiso   1.00
O1918  O     0.84118   0.82546   0.84968   0.00000  Uiso   1.00
O1919  O     0.87422   0.73589   0.58698   0.00000  Uiso   1.00
O1920  O     0.98044   0.78619   0.78312   0.00000  Uiso   1.00
O1921  O     0.92695   0.99349   0.71680   0.00000  Uiso   1.00
O1922  O     0.90150   0.71626   0.70166   0.00000  Uiso   1.00
O1923  O     0.83267   0.71709   0.93893   0.00000  Uiso   1.00
O1924  O     0.85380   0.89617   0.59924   0.00000  Uiso   1.00
O1925  O     0.84597   0.74686   0.78214   0.00000  Uiso   1.00
O1926  O     0.88197   0.90251   0.52426   0.00000  Uiso   1.00
O1927  O     0.77923   0.95682   0.92379   0.00000  Uiso   1.00
O1928  O     0.73068   0.90534   0.90272   0.00000  Uiso   1.00
O1929  O     0.77747   0.87468   0.56409   0.00000  Uiso   1.00
O1930  O     0.76193   0.95191   0.55179   0.00000  Uiso   1.00
O1931  O     0.71203   0.93832   0.51062   0.00000  Uiso   1.00
O1932  O     0.79945   0.73492   0.87184   0.00000  Uiso   1.00
O1933  O     0.74562   0.77314   0.90218   0.00000  Uiso   1.00
O1934  O     0.81298   0.92751   0.77013   0.00000  Uiso   1.00
O1935  O     0.74078   0.79958   0.73413   0.00000  Uiso   1.00
O1936  O     0.93360   0.85939   0.71361   0.00000  Uiso   1.00
O1937  O     0.73738   0.85544   0.78213   0.00000  Uiso   1.00
O1938  O     0.92158   0.81892   0.77014   0.00000  Uiso   1.00
O1939  O     0.80426   0.73610   0.73413   0.00000  Uiso   1.00
O1940  O     0.87012   0.92286   0.71360   0.00000  Uiso   1.00
Zn1941 Zn    0.86005   0.80661   0.78734   0.00000  Uiso   1.00
Zn1942 Zn    0.80046   0.79124   0.71875   0.00000  Uiso   1.00
Zn1943 Zn    0.87723   0.86442   0.70657   0.00000  Uiso   1.00
Zn1944 Zn    0.79560   0.87106   0.78733   0.00000  Uiso   1.00
loop_
_geom_bond_atom_site_label_1
_geom_bond_atom_site_label_2
_geom_bond_distance
_geom_bond_site_symmetry_2
_ccdc_geom_bond_type
C1     O99     1.255   .     A
C1     C7      1.449   .     S
C1     O101    1.268   .     A
C2     C16     1.408   .     A
C2     C38     1.422   .     A
C2     C29     1.493   .     S
C3     C15     1.394   .     A
C3     O83     1.383   .     S
C3     C16     1.409   .     A
C4     O102    1.269   .     A
C4     C6      1.461   .     S
C4     O100    1.288   .     A
C5     C37     1.418   .     A
C5     C17     1.432   .     A
C5     C14     1.500   .     S
C6     C115    1.350   .     S
C6     H172    1.088   .     S
C7     C222    1.350   1_455 S
C7     O300    1.403   1_455 S
C8     C11     1.460   .     S
C8     C333    1.340   .     S
C8     C349    1.499   .     S
C9     C10     1.435   .     S
C9     C656    1.340   1_545 S
C9     H690    1.087   1_545 S
C10    O103    1.265   .     A
C10    O89     1.275   .     A
C11    O104    1.268   .     A
C11    O98     1.277   .     A
C12    C17     1.414   .     A
C12    C995    1.402   .     S
C12    C1007   1.490   .     S
C13    O79     1.273   .     A
C13    O81     1.278   .     A
C13    C16     1.469   .     S
C14    O80     1.280   .     A
C14    O82     1.306   .     A
C15    H53     1.083   .     S
C15    C1011   1.401   1_554 S
C17    C30     1.483   .     S
C18    C19     1.533   .     S
C18    H72     1.109   .     S
C18    O83     1.417   .     S
C18    H73     1.118   .     S
C19    C20     1.526   .     S
C19    H74     1.111   .     S
C19    H75     1.110   .     S
C20    H77     1.110   .     S
C20    H76     1.111   .     S
C20    H151    1.111   .     S
C21    H44     1.111   .     S
C21    O84     1.418   .     S
C21    C130    1.535   .     S
C21    H153    1.114   .     S
C22    H47     1.107   .     S
C22    C24     1.525   .     S
C22    C237    1.535   1_455 S
C22    H262    1.109   1_455 S
C23    O93     1.390   .     S
C23    C984    1.402   1_554 S
C23    C1006   1.421   1_554 S
C24    H50     1.111   .     S
C24    H48     1.110   .     S
C24    H49     1.110   .     S
C25    O86     1.399   .     S
C25    C656    1.499   1_545 S
C25    O733    1.223   1_545 S
C26    C27     1.529   .     S
C26    O87     1.415   .     S
C26    H54     1.117   .     S
C26    H52     1.113   .     S
C27    C676    1.522   1_545 S
C27    H703    1.112   1_545 S
C27    H704    1.111   1_545 S
C28    H58     1.111   .     S
C28    C351    1.522   .     S
C28    H381    1.110   .     S
C28    H383    1.111   .     S
C29    O88     1.222   .     D
C29    O90     1.399   .     S
C30    O92     1.398   .     S
C30    O91     1.222   .     D
C31    H62     1.111   .     S
C31    H63     1.116   .     S
C31    O93     1.418   .     S
C31    C32     1.529   .     S
C32    H66     1.111   .     S
C32    C33     1.526   .     S
C32    H65     1.112   .     S
C33    H69     1.110   .     S
C33    H67     1.109   .     S
C33    H284    1.110   1_455 S
C34    C37     1.408   .     A
C34    C995    1.421   .     S
C34    C1010   1.419   .     S
C35    O94     1.223   .     D
C35    O95     1.398   .     S
C35    C984    1.490   1_554 S
C36    O96     1.219   .     D
C36    C41     1.496   .     S
C36    O97     1.400   .     S
C37    C41     1.420   .     A
C38    C1006   1.419   1_554 S
C38    C1011   1.418   1_554 S
C39    C40     1.410   .     A
C39    C1010   1.418   .     S
C39    C987    1.401   .     S
C40    O87     1.385   .     S
C40    C41     1.411   .     A
H42    C333    1.087   .     S
H43    C236    1.111   1_455 S
H45    C237    1.114   1_455 S
H46    C130    1.109   .     S
H51    O86     1.014   .     S
H55    C351    1.112   .     S
H56    C351    1.111   .     S
H57    C676    1.110   1_545 S
H59    C676    1.111   1_545 S
H60    O90     1.014   .     S
H61    O92     1.014   .     S
H64    C222    1.088   1_455 S
H68    C141    1.110   .     S
H70    O95     1.013   .     S
H71    O97     1.013   .     S
O78    Zn105   1.958   .     S
O78    Zn108   1.934   .     S
O78    Zn107   1.935   .     S
O78    Zn106   1.922   .     S
O79    Zn106   1.914   .     S
O80    Zn108   1.918   .     S
O81    Zn107   1.907   .     S
O82    Zn105   1.906   .     S
O84    C115    1.403   .     S
O85    C349    1.223   .     S
O89    Zn105   1.922   .     S
O98    Zn108   1.931   .     S
O99    Zn106   1.940   .     S
O100   Zn107   1.945   .     S
O101   Zn108   1.934   .     S
O102   Zn105   1.933   .     S
O103   Zn106   1.940   .     S
O104   Zn107   1.930   .     S
C109   O207    1.255   .     A
C109   C115    1.449   .     S
C109   O209    1.268   .     A
C110   C124    1.408   .     A
C110   C146    1.422   .     A
C110   C137    1.493   .     S
C111   C123    1.394   .     A
C111   O191    1.383   .     S
C111   C124    1.409   .     A
C112   O210    1.269   .     A
C112   C114    1.461   .     S
C112   O208    1.288   .     A
C113   C145    1.418   .     A
C113   C125    1.432   .     A
C113   C122    1.500   .     S
C114   C223    1.350   .     S
C114   H280    1.088   .     S
C116   C119    1.460   .     S
C116   C441    1.340   .     S
C116   C457    1.499   .     S
C117   C118    1.435   .     S
C117   C764    1.340   1_545 S
C117   H798    1.087   1_545 S
C118   O211    1.265   .     A
C118   O197    1.275   .     A
C119   O212    1.268   .     A
C119   O206    1.277   .     A
C120   C125    1.414   .     A
C120   C1103   1.402   .     S
C120   C1115   1.490   .     S
C121   O187    1.273   .     A
C121   O189    1.278   .     A
C121   C124    1.469   .     S
C122   O188    1.280   .     A
C122   O190    1.306   .     A
C123   H161    1.083   .     S
C123   C1119   1.401   1_554 S
C125   C138    1.483   .     S
C126   C127    1.533   .     S
C126   H180    1.109   .     S
C126   O191    1.417   .     S
C126   H181    1.118   .     S
C127   C128    1.526   .     S
C127   H182    1.111   .     S
C127   H183    1.110   .     S
C128   H185    1.110   .     S
C128   H184    1.111   .     S
C128   H259    1.111   .     S
C129   H152    1.111   .     S
C129   O192    1.418   .     S
C129   C238    1.535   .     S
C129   H261    1.114   .     S
C130   H155    1.107   .     S
C130   C132    1.525   .     S
C131   O201    1.390   .     S
C131   C1092   1.402   1_554 S
C131   C1114   1.421   1_554 S
C132   H158    1.111   .     S
C132   H156    1.110   .     S
C132   H157    1.110   .     S
C133   O194    1.399   .     S
C133   C764    1.499   1_545 S
C133   O841    1.223   1_545 S
C134   C135    1.529   .     S
C134   O195    1.415   .     S
C134   H162    1.117   .     S
C134   H160    1.113   .     S
C135   C784    1.522   1_545 S
C135   H811    1.112   1_545 S
C135   H812    1.111   1_545 S
C136   H166    1.111   .     S
C136   C459    1.522   .     S
C136   H489    1.110   .     S
C136   H491    1.111   .     S
C137   O196    1.222   .     D
C137   O198    1.399   .     S
C138   O200    1.398   .     S
C138   O199    1.222   .     D
C139   H170    1.111   .     S
C139   H171    1.116   .     S
C139   O201    1.418   .     S
C139   C140    1.529   .     S
C140   H174    1.111   .     S
C140   C141    1.526   .     S
C140   H173    1.112   .     S
C141   H177    1.110   .     S
C141   H175    1.109   .     S
C142   C145    1.408   .     A
C142   C1103   1.421   .     S
C142   C1118   1.419   .     S
C143   O202    1.223   .     D
C143   O203    1.398   .     S
C143   C1092   1.490   1_554 S
C144   O204    1.219   .     D
C144   C149    1.496   .     S
C144   O205    1.400   .     S
C145   C149    1.420   .     A
C146   C1114   1.419   1_554 S
C146   C1119   1.418   1_554 S
C147   C148    1.410   .     A
C147   C1118   1.418   .     S
C147   C1095   1.401   .     S
C148   O195    1.385   .     S
C148   C149    1.411   .     A
H150   C441    1.087   .     S
H154   C238    1.109   .     S
H159   O194    1.014   .     S
H163   C459    1.112   .     S
H164   C459    1.111   .     S
H165   C784    1.110   1_545 S
H167   C784    1.111   1_545 S
H168   O198    1.014   .     S
H169   O200    1.014   .     S
H176   C249    1.110   .     S
H178   O203    1.013   .     S
H179   O205    1.013   .     S
O186   Zn213   1.958   .     S
O186   Zn216   1.934   .     S
O186   Zn215   1.935   .     S
O186   Zn214   1.922   .     S
O187   Zn214   1.914   .     S
O188   Zn216   1.918   .     S
O189   Zn215   1.907   .     S
O190   Zn213   1.906   .     S
O192   C223    1.403   .     S
O193   C457    1.223   .     S
O197   Zn213   1.922   .     S
O206   Zn216   1.931   .     S
O207   Zn214   1.940   .     S
O208   Zn215   1.945   .     S
O209   Zn216   1.934   .     S
O210   Zn213   1.933   .     S
O211   Zn214   1.940   .     S
O212   Zn215   1.930   .     S
C217   O315    1.255   .     A
C217   C223    1.449   .     S
C217   O317    1.268   .     A
C218   C232    1.408   .     A
C218   C254    1.422   .     A
C218   C245    1.493   .     S
C219   C231    1.394   .     A
C219   O299    1.383   .     S
C219   C232    1.409   .     A
C220   O318    1.269   .     A
C220   C222    1.461   .     S
C220   O316    1.288   .     A
C221   C253    1.418   .     A
C221   C233    1.432   .     A
C221   C230    1.500   .     S
C222   C7      1.350   1_655 S
C222   H64     1.088   1_655 S
C224   C227    1.460   .     S
C224   C549    1.340   .     S
C224   C565    1.499   .     S
C225   C226    1.435   .     S
C225   C872    1.340   1_545 S
C225   H906    1.087   1_545 S
C226   O319    1.265   .     A
C226   O305    1.275   .     A
C227   O320    1.268   .     A
C227   O314    1.277   .     A
C228   C233    1.414   .     A
C228   C1211   1.402   .     S
C228   C1223   1.490   .     S
C229   O295    1.273   .     A
C229   O297    1.278   .     A
C229   C232    1.469   .     S
C230   O296    1.280   .     A
C230   O298    1.306   .     A
C231   H269    1.083   .     S
C231   C1227   1.401   1_554 S
C233   C246    1.483   .     S
C234   C235    1.533   .     S
C234   H288    1.109   .     S
C234   O299    1.417   .     S
C234   H289    1.118   .     S
C235   C236    1.526   .     S
C235   H290    1.111   .     S
C235   H291    1.110   .     S
C236   H293    1.110   .     S
C236   H292    1.111   .     S
C236   H43     1.111   1_655 S
C237   H260    1.111   .     S
C237   O300    1.418   .     S
C237   C22     1.535   1_655 S
C237   H45     1.114   1_655 S
C238   H263    1.107   .     S
C238   C240    1.525   .     S
C239   O309    1.390   .     S
C239   C1200   1.402   1_554 S
C239   C1222   1.421   1_554 S
C240   H266    1.111   .     S
C240   H264    1.110   .     S
C240   H265    1.110   .     S
C241   O302    1.399   .     S
C241   C872    1.499   1_545 S
C241   O949    1.223   1_545 S
C242   C243    1.529   .     S
C242   O303    1.415   .     S
C242   H270    1.117   .     S
C242   H268    1.113   .     S
C243   C892    1.522   1_545 S
C243   H919    1.112   1_545 S
C243   H920    1.111   1_545 S
C244   H274    1.111   .     S
C244   C567    1.522   .     S
C244   H597    1.110   .     S
C244   H599    1.111   .     S
C245   O304    1.222   .     D
C245   O306    1.399   .     S
C246   O308    1.398   .     S
C246   O307    1.222   .     D
C247   H278    1.111   .     S
C247   H279    1.116   .     S
C247   O309    1.418   .     S
C247   C248    1.529   .     S
C248   H282    1.111   .     S
C248   C249    1.526   .     S
C248   H281    1.112   .     S
C249   H285    1.110   .     S
C249   H283    1.109   .     S
C250   C253    1.408   .     A
C250   C1211   1.421   .     S
C250   C1226   1.419   .     S
C251   O310    1.223   .     D
C251   O311    1.398   .     S
C251   C1200   1.490   1_554 S
C252   O312    1.219   .     D
C252   C257    1.496   .     S
C252   O313    1.400   .     S
C253   C257    1.420   .     A
C254   C1222   1.419   1_554 S
C254   C1227   1.418   1_554 S
C255   C256    1.410   .     A
C255   C1226   1.418   .     S
C255   C1203   1.401   .     S
C256   O303    1.385   .     S
C256   C257    1.411   .     A
H258   C549    1.087   .     S
H262   C22     1.109   1_655 S
H267   O302    1.014   .     S
H271   C567    1.112   .     S
H272   C567    1.111   .     S
H273   C892    1.110   1_545 S
H275   C892    1.111   1_545 S
H276   O306    1.014   .     S
H277   O308    1.014   .     S
H284   C33     1.110   1_655 S
H286   O311    1.013   .     S
H287   O313    1.013   .     S
O294   Zn321   1.958   .     S
O294   Zn324   1.934   .     S
O294   Zn323   1.935   .     S
O294   Zn322   1.922   .     S
O295   Zn322   1.914   .     S
O296   Zn324   1.918   .     S
O297   Zn323   1.907   .     S
O298   Zn321   1.906   .     S
O300   C7      1.403   1_655 S
O301   C565    1.223   .     S
O305   Zn321   1.922   .     S
O314   Zn324   1.931   .     S
O315   Zn322   1.940   .     S
O316   Zn323   1.945   .     S
O317   Zn324   1.934   .     S
O318   Zn321   1.933   .     S
O319   Zn322   1.940   .     S
O320   Zn323   1.930   .     S
C325   O423    1.255   .     A
C325   C331    1.449   .     S
C325   O425    1.268   .     A
C326   C340    1.408   .     A
C326   C362    1.422   .     A
C326   C353    1.493   .     S
C327   C339    1.394   .     A
C327   O407    1.383   .     S
C327   C340    1.409   .     A
C328   O426    1.269   .     A
C328   C330    1.461   .     S
C328   O424    1.288   .     A
C329   C361    1.418   .     A
C329   C341    1.432   .     A
C329   C338    1.500   .     S
C330   C439    1.350   .     S
C330   H496    1.088   .     S
C331   C546    1.350   1_455 S
C331   O624    1.403   1_455 S
C332   C335    1.460   .     S
C332   C657    1.340   .     S
C332   C673    1.499   .     S
C333   C334    1.435   .     S
C334   O427    1.265   .     A
C334   O413    1.275   .     A
C335   O428    1.268   .     A
C335   O422    1.277   .     A
C336   C341    1.414   .     A
C336   C1319   1.402   .     S
C336   C1331   1.490   .     S
C337   O403    1.273   .     A
C337   O405    1.278   .     A
C337   C340    1.469   .     S
C338   O404    1.280   .     A
C338   O406    1.306   .     A
C339   H377    1.083   .     S
C339   C1335   1.401   1_554 S
C341   C354    1.483   .     S
C342   C343    1.533   .     S
C342   H396    1.109   .     S
C342   O407    1.417   .     S
C342   H397    1.118   .     S
C343   C344    1.526   .     S
C343   H398    1.111   .     S
C343   H399    1.110   .     S
C344   H401    1.110   .     S
C344   H400    1.111   .     S
C344   H475    1.111   .     S
C345   H368    1.111   .     S
C345   O408    1.418   .     S
C345   C454    1.535   .     S
C345   H477    1.114   .     S
C346   H371    1.107   .     S
C346   C348    1.525   .     S
C346   C561    1.535   1_455 S
C346   H586    1.109   1_455 S
C347   O417    1.390   .     S
C347   C1308   1.402   1_554 S
C347   C1330   1.421   1_554 S
C348   H374    1.111   .     S
C348   H372    1.110   .     S
C348   H373    1.110   .     S
C349   O410    1.399   .     S
C350   C351    1.529   .     S
C350   O411    1.415   .     S
C350   H378    1.117   .     S
C350   H376    1.113   .     S
C352   H382    1.111   .     S
C352   C675    1.522   .     S
C352   H705    1.110   .     S
C352   H707    1.111   .     S
C353   O412    1.222   .     D
C353   O414    1.399   .     S
C354   O416    1.398   .     S
C354   O415    1.222   .     D
C355   H386    1.111   .     S
C355   H387    1.116   .     S
C355   O417    1.418   .     S
C355   C356    1.529   .     S
C356   H390    1.111   .     S
C356   C357    1.526   .     S
C356   H389    1.112   .     S
C357   H393    1.110   .     S
C357   H391    1.109   .     S
C357   H608    1.110   1_455 S
C358   C361    1.408   .     A
C358   C1319   1.421   .     S
C358   C1334   1.419   .     S
C359   O418    1.223   .     D
C359   O419    1.398   .     S
C359   C1308   1.490   1_554 S
C360   O420    1.219   .     D
C360   C365    1.496   .     S
C360   O421    1.400   .     S
C361   C365    1.420   .     A
C362   C1330   1.419   1_554 S
C362   C1335   1.418   1_554 S
C363   C364    1.410   .     A
C363   C1334   1.418   .     S
C363   C1311   1.401   .     S
C364   O411    1.385   .     S
C364   C365    1.411   .     A
H366   C657    1.087   .     S
H367   C560    1.111   1_455 S
H369   C561    1.114   1_455 S
H370   C454    1.109   .     S
H375   O410    1.014   .     S
H379   C675    1.112   .     S
H380   C675    1.111   .     S
H384   O414    1.014   .     S
H385   O416    1.014   .     S
H388   C546    1.088   1_455 S
H392   C465    1.110   .     S
H394   O419    1.013   .     S
H395   O421    1.013   .     S
O402   Zn429   1.958   .     S
O402   Zn432   1.934   .     S
O402   Zn431   1.935   .     S
O402   Zn430   1.922   .     S
O403   Zn430   1.914   .     S
O404   Zn432   1.918   .     S
O405   Zn431   1.907   .     S
O406   Zn429   1.906   .     S
O408   C439    1.403   .     S
O409   C673    1.223   .     S
O413   Zn429   1.922   .     S
O422   Zn432   1.931   .     S
O423   Zn430   1.940   .     S
O424   Zn431   1.945   .     S
O425   Zn432   1.934   .     S
O426   Zn429   1.933   .     S
O427   Zn430   1.940   .     S
O428   Zn431   1.930   .     S
C433   O531    1.255   .     A
C433   C439    1.449   .     S
C433   O533    1.268   .     A
C434   C448    1.408   .     A
C434   C470    1.422   .     A
C434   C461    1.493   .     S
C435   C447    1.394   .     A
C435   O515    1.383   .     S
C435   C448    1.409   .     A
C436   O534    1.269   .     A
C436   C438    1.461   .     S
C436   O532    1.288   .     A
C437   C469    1.418   .     A
C437   C449    1.432   .     A
C437   C446    1.500   .     S
C438   C547    1.350   .     S
C438   H604    1.088   .     S
C440   C443    1.460   .     S
C440   C765    1.340   .     S
C440   C781    1.499   .     S
C441   C442    1.435   .     S
C442   O535    1.265   .     A
C442   O521    1.275   .     A
C443   O536    1.268   .     A
C443   O530    1.277   .     A
C444   C449    1.414   .     A
C444   C1427   1.402   .     S
C444   C1439   1.490   .     S
C445   O511    1.273   .     A
C445   O513    1.278   .     A
C445   C448    1.469   .     S
C446   O512    1.280   .     A
C446   O514    1.306   .     A
C447   H485    1.083   .     S
C447   C1443   1.401   1_554 S
C449   C462    1.483   .     S
C450   C451    1.533   .     S
C450   H504    1.109   .     S
C450   O515    1.417   .     S
C450   H505    1.118   .     S
C451   C452    1.526   .     S
C451   H506    1.111   .     S
C451   H507    1.110   .     S
C452   H509    1.110   .     S
C452   H508    1.111   .     S
C452   H583    1.111   .     S
C453   H476    1.111   .     S
C453   O516    1.418   .     S
C453   C562    1.535   .     S
C453   H585    1.114   .     S
C454   H479    1.107   .     S
C454   C456    1.525   .     S
C455   O525    1.390   .     S
C455   C1416   1.402   1_554 S
C455   C1438   1.421   1_554 S
C456   H482    1.111   .     S
C456   H480    1.110   .     S
C456   H481    1.110   .     S
C457   O518    1.399   .     S
C458   C459    1.529   .     S
C458   O519    1.415   .     S
C458   H486    1.117   .     S
C458   H484    1.113   .     S
C460   H490    1.111   .     S
C460   C783    1.522   .     S
C460   H813    1.110   .     S
C460   H815    1.111   .     S
C461   O520    1.222   .     D
C461   O522    1.399   .     S
C462   O524    1.398   .     S
C462   O523    1.222   .     D
C463   H494    1.111   .     S
C463   H495    1.116   .     S
C463   O525    1.418   .     S
C463   C464    1.529   .     S
C464   H498    1.111   .     S
C464   C465    1.526   .     S
C464   H497    1.112   .     S
C465   H501    1.110   .     S
C465   H499    1.109   .     S
C466   C469    1.408   .     A
C466   C1427   1.421   .     S
C466   C1442   1.419   .     S
C467   O526    1.223   .     D
C467   O527    1.398   .     S
C467   C1416   1.490   1_554 S
C468   O528    1.219   .     D
C468   C473    1.496   .     S
C468   O529    1.400   .     S
C469   C473    1.420   .     A
C470   C1438   1.419   1_554 S
C470   C1443   1.418   1_554 S
C471   C472    1.410   .     A
C471   C1442   1.418   .     S
C471   C1419   1.401   .     S
C472   O519    1.385   .     S
C472   C473    1.411   .     A
H474   C765    1.087   .     S
H478   C562    1.109   .     S
H483   O518    1.014   .     S
H487   C783    1.112   .     S
H488   C783    1.111   .     S
H492   O522    1.014   .     S
H493   O524    1.014   .     S
H500   C573    1.110   .     S
H502   O527    1.013   .     S
H503   O529    1.013   .     S
O510   Zn537   1.958   .     S
O510   Zn540   1.934   .     S
O510   Zn539   1.935   .     S
O510   Zn538   1.922   .     S
O511   Zn538   1.914   .     S
O512   Zn540   1.918   .     S
O513   Zn539   1.907   .     S
O514   Zn537   1.906   .     S
O516   C547    1.403   .     S
O517   C781    1.223   .     S
O521   Zn537   1.922   .     S
O530   Zn540   1.931   .     S
O531   Zn538   1.940   .     S
O532   Zn539   1.945   .     S
O533   Zn540   1.934   .     S
O534   Zn537   1.933   .     S
O535   Zn538   1.940   .     S
O536   Zn539   1.930   .     S
C541   O639    1.255   .     A
C541   C547    1.449   .     S
C541   O641    1.268   .     A
C542   C556    1.408   .     A
C542   C578    1.422   .     A
C542   C569    1.493   .     S
C543   C555    1.394   .     A
C543   O623    1.383   .     S
C543   C556    1.409   .     A
C544   O642    1.269   .     A
C544   C546    1.461   .     S
C544   O640    1.288   .     A
C545   C577    1.418   .     A
C545   C557    1.432   .     A
C545   C554    1.500   .     S
C546   C331    1.350   1_655 S
C546   H388    1.088   1_655 S
C548   C551    1.460   .     S
C548   C873    1.340   .     S
C548   C889    1.499   .     S
C549   C550    1.435   .     S
C550   O643    1.265   .     A
C550   O629    1.275   .     A
C551   O644    1.268   .     A
C551   O638    1.277   .     A
C552   C557    1.414   .     A
C552   C1535   1.402   .     S
C552   C1547   1.490   .     S
C553   O619    1.273   .     A
C553   O621    1.278   .     A
C553   C556    1.469   .     S
C554   O620    1.280   .     A
C554   O622    1.306   .     A
C555   H593    1.083   .     S
C555   C1551   1.401   1_554 S
C557   C570    1.483   .     S
C558   C559    1.533   .     S
C558   H612    1.109   .     S
C558   O623    1.417   .     S
C558   H613    1.118   .     S
C559   C560    1.526   .     S
C559   H614    1.111   .     S
C559   H615    1.110   .     S
C560   H617    1.110   .     S
C560   H616    1.111   .     S
C560   H367    1.111   1_655 S
C561   H584    1.111   .     S
C561   O624    1.418   .     S
C561   C346    1.535   1_655 S
C561   H369    1.114   1_655 S
C562   H587    1.107   .     S
C562   C564    1.525   .     S
C563   O633    1.390   .     S
C563   C1524   1.402   1_554 S
C563   C1546   1.421   1_554 S
C564   H590    1.111   .     S
C564   H588    1.110   .     S
C564   H589    1.110   .     S
C565   O626    1.399   .     S
C566   C567    1.529   .     S
C566   O627    1.415   .     S
C566   H594    1.117   .     S
C566   H592    1.113   .     S
C568   H598    1.111   .     S
C568   C891    1.522   .     S
C568   H921    1.110   .     S
C568   H923    1.111   .     S
C569   O628    1.222   .     D
C569   O630    1.399   .     S
C570   O632    1.398   .     S
C570   O631    1.222   .     D
C571   H602    1.111   .     S
C571   H603    1.116   .     S
C571   O633    1.418   .     S
C571   C572    1.529   .     S
C572   H606    1.111   .     S
C572   C573    1.526   .     S
C572   H605    1.112   .     S
C573   H609    1.110   .     S
C573   H607    1.109   .     S
C574   C577    1.408   .     A
C574   C1535   1.421   .     S
C574   C1550   1.419   .     S
C575   O634    1.223   .     D
C575   O635    1.398   .     S
C575   C1524   1.490   1_554 S
C576   O636    1.219   .     D
C576   C581    1.496   .     S
C576   O637    1.400   .     S
C577   C581    1.420   .     A
C578   C1546   1.419   1_554 S
C578   C1551   1.418   1_554 S
C579   C580    1.410   .     A
C579   C1550   1.418   .     S
C579   C1527   1.401   .     S
C580   O627    1.385   .     S
C580   C581    1.411   .     A
H582   C873    1.087   .     S
H586   C346    1.109   1_655 S
H591   O626    1.014   .     S
H595   C891    1.112   .     S
H596   C891    1.111   .     S
H600   O630    1.014   .     S
H601   O632    1.014   .     S
H608   C357    1.110   1_655 S
H610   O635    1.013   .     S
H611   O637    1.013   .     S
O618   Zn645   1.958   .     S
O618   Zn648   1.934   .     S
O618   Zn647   1.935   .     S
O618   Zn646   1.922   .     S
O619   Zn646   1.914   .     S
O620   Zn648   1.918   .     S
O621   Zn647   1.907   .     S
O622   Zn645   1.906   .     S
O624   C331    1.403   1_655 S
O625   C889    1.223   .     S
O629   Zn645   1.922   .     S
O638   Zn648   1.931   .     S
O639   Zn646   1.940   .     S
O640   Zn647   1.945   .     S
O641   Zn648   1.934   .     S
O642   Zn645   1.933   .     S
O643   Zn646   1.940   .     S
O644   Zn647   1.930   .     S
C649   O747    1.255   .     A
C649   C655    1.449   .     S
C649   O749    1.268   .     A
C650   C664    1.408   .     A
C650   C686    1.422   .     A
C650   C677    1.493   .     S
C651   C663    1.394   .     A
C651   O731    1.383   .     S
C651   C664    1.409   .     A
C652   O750    1.269   .     A
C652   C654    1.461   .     S
C652   O748    1.288   .     A
C653   C685    1.418   .     A
C653   C665    1.432   .     A
C653   C662    1.500   .     S
C654   C763    1.350   .     S
C654   H820    1.088   .     S
C655   C870    1.350   1_455 S
C655   O948    1.403   1_455 S
C656   C659    1.460   .     S
C656   C9      1.340   1_565 S
C656   C25     1.499   1_565 S
C657   C658    1.435   .     S
C658   O751    1.265   .     A
C658   O737    1.275   .     A
C659   O752    1.268   .     A
C659   O746    1.277   .     A
C660   C665    1.414   .     A
C660   C1643   1.402   .     S
C660   C1655   1.490   .     S
C661   O727    1.273   .     A
C661   O729    1.278   .     A
C661   C664    1.469   .     S
C662   O728    1.280   .     A
C662   O730    1.306   .     A
C663   H701    1.083   .     S
C663   C1659   1.401   1_554 S
C665   C678    1.483   .     S
C666   C667    1.533   .     S
C666   H720    1.109   .     S
C666   O731    1.417   .     S
C666   H721    1.118   .     S
C667   C668    1.526   .     S
C667   H722    1.111   .     S
C667   H723    1.110   .     S
C668   H725    1.110   .     S
C668   H724    1.111   .     S
C668   H799    1.111   .     S
C669   H692    1.111   .     S
C669   O732    1.418   .     S
C669   C778    1.535   .     S
C669   H801    1.114   .     S
C670   H695    1.107   .     S
C670   C672    1.525   .     S
C670   C885    1.535   1_455 S
C670   H910    1.109   1_455 S
C671   O741    1.390   .     S
C671   C1632   1.402   1_554 S
C671   C1654   1.421   1_554 S
C672   H698    1.111   .     S
C672   H696    1.110   .     S
C672   H697    1.110   .     S
C673   O734    1.399   .     S
C674   C675    1.529   .     S
C674   O735    1.415   .     S
C674   H702    1.117   .     S
C674   H700    1.113   .     S
C676   H706    1.111   .     S
C676   C27     1.522   1_565 S
C676   H57     1.110   1_565 S
C676   H59     1.111   1_565 S
C677   O736    1.222   .     D
C677   O738    1.399   .     S
C678   O740    1.398   .     S
C678   O739    1.222   .     D
C679   H710    1.111   .     S
C679   H711    1.116   .     S
C679   O741    1.418   .     S
C679   C680    1.529   .     S
C680   H714    1.111   .     S
C680   C681    1.526   .     S
C680   H713    1.112   .     S
C681   H717    1.110   .     S
C681   H715    1.109   .     S
C681   H932    1.110   1_455 S
C682   C685    1.408   .     A
C682   C1643   1.421   .     S
C682   C1658   1.419   .     S
C683   O742    1.223   .     D
C683   O743    1.398   .     S
C683   C1632   1.490   1_554 S
C684   O744    1.219   .     D
C684   C689    1.496   .     S
C684   O745    1.400   .     S
C685   C689    1.420   .     A
C686   C1654   1.419   1_554 S
C686   C1659   1.418   1_554 S
C687   C688    1.410   .     A
C687   C1658   1.418   .     S
C687   C1635   1.401   .     S
C688   O735    1.385   .     S
C688   C689    1.411   .     A
H690   C9      1.087   1_565 S
H691   C884    1.111   1_455 S
H693   C885    1.114   1_455 S
H694   C778    1.109   .     S
H699   O734    1.014   .     S
H703   C27     1.112   1_565 S
H704   C27     1.111   1_565 S
H708   O738    1.014   .     S
H709   O740    1.014   .     S
H712   C870    1.088   1_455 S
H716   C789    1.110   .     S
H718   O743    1.013   .     S
H719   O745    1.013   .     S
O726   Zn753   1.958   .     S
O726   Zn756   1.934   .     S
O726   Zn755   1.935   .     S
O726   Zn754   1.922   .     S
O727   Zn754   1.914   .     S
O728   Zn756   1.918   .     S
O729   Zn755   1.907   .     S
O730   Zn753   1.906   .     S
O732   C763    1.403   .     S
O733   C25     1.223   1_565 S
O737   Zn753   1.922   .     S
O746   Zn756   1.931   .     S
O747   Zn754   1.940   .     S
O748   Zn755   1.945   .     S
O749   Zn756   1.934   .     S
O750   Zn753   1.933   .     S
O751   Zn754   1.940   .     S
O752   Zn755   1.930   .     S
C757   O855    1.255   .     A
C757   C763    1.449   .     S
C757   O857    1.268   .     A
C758   C772    1.408   .     A
C758   C794    1.422   .     A
C758   C785    1.493   .     S
C759   C771    1.394   .     A
C759   O839    1.383   .     S
C759   C772    1.409   .     A
C760   O858    1.269   .     A
C760   C762    1.461   .     S
C760   O856    1.288   .     A
C761   C793    1.418   .     A
C761   C773    1.432   .     A
C761   C770    1.500   .     S
C762   C871    1.350   .     S
C762   H928    1.088   .     S
C764   C767    1.460   .     S
C764   C117    1.340   1_565 S
C764   C133    1.499   1_565 S
C765   C766    1.435   .     S
C766   O859    1.265   .     A
C766   O845    1.275   .     A
C767   O860    1.268   .     A
C767   O854    1.277   .     A
C768   C773    1.414   .     A
C768   C1751   1.402   .     S
C768   C1763   1.490   .     S
C769   O835    1.273   .     A
C769   O837    1.278   .     A
C769   C772    1.469   .     S
C770   O836    1.280   .     A
C770   O838    1.306   .     A
C771   H809    1.083   .     S
C771   C1767   1.401   1_554 S
C773   C786    1.483   .     S
C774   C775    1.533   .     S
C774   H828    1.109   .     S
C774   O839    1.417   .     S
C774   H829    1.118   .     S
C775   C776    1.526   .     S
C775   H830    1.111   .     S
C775   H831    1.110   .     S
C776   H833    1.110   .     S
C776   H832    1.111   .     S
C776   H907    1.111   .     S
C777   H800    1.111   .     S
C777   O840    1.418   .     S
C777   C886    1.535   .     S
C777   H909    1.114   .     S
C778   H803    1.107   .     S
C778   C780    1.525   .     S
C779   O849    1.390   .     S
C779   C1740   1.402   1_554 S
C779   C1762   1.421   1_554 S
C780   H806    1.111   .     S
C780   H804    1.110   .     S
C780   H805    1.110   .     S
C781   O842    1.399   .     S
C782   C783    1.529   .     S
C782   O843    1.415   .     S
C782   H810    1.117   .     S
C782   H808    1.113   .     S
C784   H814    1.111   .     S
C784   C135    1.522   1_565 S
C784   H165    1.110   1_565 S
C784   H167    1.111   1_565 S
C785   O844    1.222   .     D
C785   O846    1.399   .     S
C786   O848    1.398   .     S
C786   O847    1.222   .     D
C787   H818    1.111   .     S
C787   H819    1.116   .     S
C787   O849    1.418   .     S
C787   C788    1.529   .     S
C788   H822    1.111   .     S
C788   C789    1.526   .     S
C788   H821    1.112   .     S
C789   H825    1.110   .     S
C789   H823    1.109   .     S
C790   C793    1.408   .     A
C790   C1751   1.421   .     S
C790   C1766   1.419   .     S
C791   O850    1.223   .     D
C791   O851    1.398   .     S
C791   C1740   1.490   1_554 S
C792   O852    1.219   .     D
C792   C797    1.496   .     S
C792   O853    1.400   .     S
C793   C797    1.420   .     A
C794   C1762   1.419   1_554 S
C794   C1767   1.418   1_554 S
C795   C796    1.410   .     A
C795   C1766   1.418   .     S
C795   C1743   1.401   .     S
C796   O843    1.385   .     S
C796   C797    1.411   .     A
H798   C117    1.087   1_565 S
H802   C886    1.109   .     S
H807   O842    1.014   .     S
H811   C135    1.112   1_565 S
H812   C135    1.111   1_565 S
H816   O846    1.014   .     S
H817   O848    1.014   .     S
H824   C897    1.110   .     S
H826   O851    1.013   .     S
H827   O853    1.013   .     S
O834   Zn861   1.958   .     S
O834   Zn864   1.934   .     S
O834   Zn863   1.935   .     S
O834   Zn862   1.922   .     S
O835   Zn862   1.914   .     S
O836   Zn864   1.918   .     S
O837   Zn863   1.907   .     S
O838   Zn861   1.906   .     S
O840   C871    1.403   .     S
O841   C133    1.223   1_565 S
O845   Zn861   1.922   .     S
O854   Zn864   1.931   .     S
O855   Zn862   1.940   .     S
O856   Zn863   1.945   .     S
O857   Zn864   1.934   .     S
O858   Zn861   1.933   .     S
O859   Zn862   1.940   .     S
O860   Zn863   1.930   .     S
C865   O963    1.255   .     A
C865   C871    1.449   .     S
C865   O965    1.268   .     A
C866   C880    1.408   .     A
C866   C902    1.422   .     A
C866   C893    1.493   .     S
C867   C879    1.394   .     A
C867   O947    1.383   .     S
C867   C880    1.409   .     A
C868   O966    1.269   .     A
C868   C870    1.461   .     S
C868   O964    1.288   .     A
C869   C901    1.418   .     A
C869   C881    1.432   .     A
C869   C878    1.500   .     S
C870   C655    1.350   1_655 S
C870   H712    1.088   1_655 S
C872   C875    1.460   .     S
C872   C225    1.340   1_565 S
C872   C241    1.499   1_565 S
C873   C874    1.435   .     S
C874   O967    1.265   .     A
C874   O953    1.275   .     A
C875   O968    1.268   .     A
C875   O962    1.277   .     A
C876   C881    1.414   .     A
C876   C1859   1.402   .     S
C876   C1871   1.490   .     S
C877   O943    1.273   .     A
C877   O945    1.278   .     A
C877   C880    1.469   .     S
C878   O944    1.280   .     A
C878   O946    1.306   .     A
C879   H917    1.083   .     S
C879   C1875   1.401   1_554 S
C881   C894    1.483   .     S
C882   C883    1.533   .     S
C882   H936    1.109   .     S
C882   O947    1.417   .     S
C882   H937    1.118   .     S
C883   C884    1.526   .     S
C883   H938    1.111   .     S
C883   H939    1.110   .     S
C884   H941    1.110   .     S
C884   H940    1.111   .     S
C884   H691    1.111   1_655 S
C885   H908    1.111   .     S
C885   O948    1.418   .     S
C885   C670    1.535   1_655 S
C885   H693    1.114   1_655 S
C886   H911    1.107   .     S
C886   C888    1.525   .     S
C887   O957    1.390   .     S
C887   C1848   1.402   1_554 S
C887   C1870   1.421   1_554 S
C888   H914    1.111   .     S
C888   H912    1.110   .     S
C888   H913    1.110   .     S
C889   O950    1.399   .     S
C890   C891    1.529   .     S
C890   O951    1.415   .     S
C890   H918    1.117   .     S
C890   H916    1.113   .     S
C892   H922    1.111   .     S
C892   C243    1.522   1_565 S
C892   H273    1.110   1_565 S
C892   H275    1.111   1_565 S
C893   O952    1.222   .     D
C893   O954    1.399   .     S
C894   O956    1.398   .     S
C894   O955    1.222   .     D
C895   H926    1.111   .     S
C895   H927    1.116   .     S
C895   O957    1.418   .     S
C895   C896    1.529   .     S
C896   H930    1.111   .     S
C896   C897    1.526   .     S
C896   H929    1.112   .     S
C897   H933    1.110   .     S
C897   H931    1.109   .     S
C898   C901    1.408   .     A
C898   C1859   1.421   .     S
C898   C1874   1.419   .     S
C899   O958    1.223   .     D
C899   O959    1.398   .     S
C899   C1848   1.490   1_554 S
C900   O960    1.219   .     D
C900   C905    1.496   .     S
C900   O961    1.400   .     S
C901   C905    1.420   .     A
C902   C1870   1.419   1_554 S
C902   C1875   1.418   1_554 S
C903   C904    1.410   .     A
C903   C1874   1.418   .     S
C903   C1851   1.401   .     S
C904   O951    1.385   .     S
C904   C905    1.411   .     A
H906   C225    1.087   1_565 S
H910   C670    1.109   1_655 S
H915   O950    1.014   .     S
H919   C243    1.112   1_565 S
H920   C243    1.111   1_565 S
H924   O954    1.014   .     S
H925   O956    1.014   .     S
H932   C681    1.110   1_655 S
H934   O959    1.013   .     S
H935   O961    1.013   .     S
O942   Zn969   1.958   .     S
O942   Zn972   1.934   .     S
O942   Zn971   1.935   .     S
O942   Zn970   1.922   .     S
O943   Zn970   1.914   .     S
O944   Zn972   1.918   .     S
O945   Zn971   1.907   .     S
O946   Zn969   1.906   .     S
O948   C655    1.403   1_655 S
O949   C241    1.223   1_565 S
O953   Zn969   1.922   .     S
O962   Zn972   1.931   .     S
O963   Zn970   1.940   .     S
O964   Zn971   1.945   .     S
O965   Zn972   1.934   .     S
O966   Zn969   1.933   .     S
O967   Zn970   1.940   .     S
O968   Zn971   1.930   .     S
C973   O1071   1.255   .     A
C973   C979    1.449   .     S
C973   O1073   1.268   .     A
C974   C988    1.408   .     A
C974   C1010   1.422   .     A
C974   C1001   1.493   .     S
C975   C987    1.394   .     A
C975   O1055   1.383   .     S
C975   C988    1.409   .     A
C976   O1074   1.269   .     A
C976   C978    1.461   .     S
C976   O1072   1.288   .     A
C977   C1009   1.418   .     A
C977   C989    1.432   .     A
C977   C986    1.500   .     S
C978   C1087   1.350   .     S
C978   H1144   1.088   .     S
C979   C1194   1.350   1_455 S
C979   O1272   1.403   1_455 S
C980   C983    1.460   .     S
C980   C1305   1.340   .     S
C980   C1321   1.499   .     S
C981   C982    1.435   .     S
C981   C1628   1.340   1_545 S
C981   H1662   1.087   1_545 S
C982   O1075   1.265   .     A
C982   O1061   1.275   .     A
C983   O1076   1.268   .     A
C983   O1070   1.277   .     A
C984   C989    1.414   .     A
C984   C23     1.402   1_556 S
C984   C35     1.490   1_556 S
C985   O1051   1.273   .     A
C985   O1053   1.278   .     A
C985   C988    1.469   .     S
C986   O1052   1.280   .     A
C986   O1054   1.306   .     A
C987   H1025   1.083   .     S
C989   C1002   1.483   .     S
C990   C991    1.533   .     S
C990   H1044   1.109   .     S
C990   O1055   1.417   .     S
C990   H1045   1.118   .     S
C991   C992    1.526   .     S
C991   H1046   1.111   .     S
C991   H1047   1.110   .     S
C992   H1049   1.110   .     S
C992   H1048   1.111   .     S
C992   H1123   1.111   .     S
C993   H1016   1.111   .     S
C993   O1056   1.418   .     S
C993   C1102   1.535   .     S
C993   H1125   1.114   .     S
C994   H1019   1.107   .     S
C994   C996    1.525   .     S
C994   C1209   1.535   1_455 S
C994   H1234   1.109   1_455 S
C995   O1065   1.390   .     S
C996   H1022   1.111   .     S
C996   H1020   1.110   .     S
C996   H1021   1.110   .     S
C997   O1058   1.399   .     S
C997   C1628   1.499   1_545 S
C997   O1705   1.223   1_545 S
C998   C999    1.529   .     S
C998   O1059   1.415   .     S
C998   H1026   1.117   .     S
C998   H1024   1.113   .     S
C999   C1648   1.522   1_545 S
C999   H1675   1.112   1_545 S
C999   H1676   1.111   1_545 S
C1000  H1030   1.111   .     S
C1000  C1323   1.522   .     S
C1000  H1353   1.110   .     S
C1000  H1355   1.111   .     S
C1001  O1060   1.222   .     D
C1001  O1062   1.399   .     S
C1002  O1064   1.398   .     S
C1002  O1063   1.222   .     D
C1003  H1034   1.111   .     S
C1003  H1035   1.116   .     S
C1003  O1065   1.418   .     S
C1003  C1004   1.529   .     S
C1004  H1038   1.111   .     S
C1004  C1005   1.526   .     S
C1004  H1037   1.112   .     S
C1005  H1041   1.110   .     S
C1005  H1039   1.109   .     S
C1005  H1256   1.110   1_455 S
C1006  C1009   1.408   .     A
C1006  C23     1.421   1_556 S
C1006  C38     1.419   1_556 S
C1007  O1066   1.223   .     D
C1007  O1067   1.398   .     S
C1008  O1068   1.219   .     D
C1008  C1013   1.496   .     S
C1008  O1069   1.400   .     S
C1009  C1013   1.420   .     A
C1011  C1012   1.410   .     A
C1011  C38     1.418   1_556 S
C1011  C15     1.401   1_556 S
C1012  O1059   1.385   .     S
C1012  C1013   1.411   .     A
H1014  C1305   1.087   .     S
H1015  C1208   1.111   1_455 S
H1017  C1209   1.114   1_455 S
H1018  C1102   1.109   .     S
H1023  O1058   1.014   .     S
H1027  C1323   1.112   .     S
H1028  C1323   1.111   .     S
H1029  C1648   1.110   1_545 S
H1031  C1648   1.111   1_545 S
H1032  O1062   1.014   .     S
H1033  O1064   1.014   .     S
H1036  C1194   1.088   1_455 S
H1040  C1113   1.110   .     S
H1042  O1067   1.013   .     S
H1043  O1069   1.013   .     S
O1050  Zn1077  1.958   .     S
O1050  Zn1080  1.934   .     S
O1050  Zn1079  1.935   .     S
O1050  Zn1078  1.922   .     S
O1051  Zn1078  1.914   .     S
O1052  Zn1080  1.918   .     S
O1053  Zn1079  1.907   .     S
O1054  Zn1077  1.906   .     S
O1056  C1087   1.403   .     S
O1057  C1321   1.223   .     S
O1061  Zn1077  1.922   .     S
O1070  Zn1080  1.931   .     S
O1071  Zn1078  1.940   .     S
O1072  Zn1079  1.945   .     S
O1073  Zn1080  1.934   .     S
O1074  Zn1077  1.933   .     S
O1075  Zn1078  1.940   .     S
O1076  Zn1079  1.930   .     S
C1081  O1179   1.255   .     A
C1081  C1087   1.449   .     S
C1081  O1181   1.268   .     A
C1082  C1096   1.408   .     A
C1082  C1118   1.422   .     A
C1082  C1109   1.493   .     S
C1083  C1095   1.394   .     A
C1083  O1163   1.383   .     S
C1083  C1096   1.409   .     A
C1084  O1182   1.269   .     A
C1084  C1086   1.461   .     S
C1084  O1180   1.288   .     A
C1085  C1117   1.418   .     A
C1085  C1097   1.432   .     A
C1085  C1094   1.500   .     S
C1086  C1195   1.350   .     S
C1086  H1252   1.088   .     S
C1088  C1091   1.460   .     S
C1088  C1413   1.340   .     S
C1088  C1429   1.499   .     S
C1089  C1090   1.435   .     S
C1089  C1736   1.340   1_545 S
C1089  H1770   1.087   1_545 S
C1090  O1183   1.265   .     A
C1090  O1169   1.275   .     A
C1091  O1184   1.268   .     A
C1091  O1178   1.277   .     A
C1092  C1097   1.414   .     A
C1092  C131    1.402   1_556 S
C1092  C143    1.490   1_556 S
C1093  O1159   1.273   .     A
C1093  O1161   1.278   .     A
C1093  C1096   1.469   .     S
C1094  O1160   1.280   .     A
C1094  O1162   1.306   .     A
C1095  H1133   1.083   .     S
C1097  C1110   1.483   .     S
C1098  C1099   1.533   .     S
C1098  H1152   1.109   .     S
C1098  O1163   1.417   .     S
C1098  H1153   1.118   .     S
C1099  C1100   1.526   .     S
C1099  H1154   1.111   .     S
C1099  H1155   1.110   .     S
C1100  H1157   1.110   .     S
C1100  H1156   1.111   .     S
C1100  H1231   1.111   .     S
C1101  H1124   1.111   .     S
C1101  O1164   1.418   .     S
C1101  C1210   1.535   .     S
C1101  H1233   1.114   .     S
C1102  H1127   1.107   .     S
C1102  C1104   1.525   .     S
C1103  O1173   1.390   .     S
C1104  H1130   1.111   .     S
C1104  H1128   1.110   .     S
C1104  H1129   1.110   .     S
C1105  O1166   1.399   .     S
C1105  C1736   1.499   1_545 S
C1105  O1813   1.223   1_545 S
C1106  C1107   1.529   .     S
C1106  O1167   1.415   .     S
C1106  H1134   1.117   .     S
C1106  H1132   1.113   .     S
C1107  C1756   1.522   1_545 S
C1107  H1783   1.112   1_545 S
C1107  H1784   1.111   1_545 S
C1108  H1138   1.111   .     S
C1108  C1431   1.522   .     S
C1108  H1461   1.110   .     S
C1108  H1463   1.111   .     S
C1109  O1168   1.222   .     D
C1109  O1170   1.399   .     S
C1110  O1172   1.398   .     S
C1110  O1171   1.222   .     D
C1111  H1142   1.111   .     S
C1111  H1143   1.116   .     S
C1111  O1173   1.418   .     S
C1111  C1112   1.529   .     S
C1112  H1146   1.111   .     S
C1112  C1113   1.526   .     S
C1112  H1145   1.112   .     S
C1113  H1149   1.110   .     S
C1113  H1147   1.109   .     S
C1114  C1117   1.408   .     A
C1114  C131    1.421   1_556 S
C1114  C146    1.419   1_556 S
C1115  O1174   1.223   .     D
C1115  O1175   1.398   .     S
C1116  O1176   1.219   .     D
C1116  C1121   1.496   .     S
C1116  O1177   1.400   .     S
C1117  C1121   1.420   .     A
C1119  C1120   1.410   .     A
C1119  C146    1.418   1_556 S
C1119  C123    1.401   1_556 S
C1120  O1167   1.385   .     S
C1120  C1121   1.411   .     A
H1122  C1413   1.087   .     S
H1126  C1210   1.109   .     S
H1131  O1166   1.014   .     S
H1135  C1431   1.112   .     S
H1136  C1431   1.111   .     S
H1137  C1756   1.110   1_545 S
H1139  C1756   1.111   1_545 S
H1140  O1170   1.014   .     S
H1141  O1172   1.014   .     S
H1148  C1221   1.110   .     S
H1150  O1175   1.013   .     S
H1151  O1177   1.013   .     S
O1158  Zn1185  1.958   .     S
O1158  Zn1188  1.934   .     S
O1158  Zn1187  1.935   .     S
O1158  Zn1186  1.922   .     S
O1159  Zn1186  1.914   .     S
O1160  Zn1188  1.918   .     S
O1161  Zn1187  1.907   .     S
O1162  Zn1185  1.906   .     S
O1164  C1195   1.403   .     S
O1165  C1429   1.223   .     S
O1169  Zn1185  1.922   .     S
O1178  Zn1188  1.931   .     S
O1179  Zn1186  1.940   .     S
O1180  Zn1187  1.945   .     S
O1181  Zn1188  1.934   .     S
O1182  Zn1185  1.933   .     S
O1183  Zn1186  1.940   .     S
O1184  Zn1187  1.930   .     S
C1189  O1287   1.255   .     A
C1189  C1195   1.449   .     S
C1189  O1289   1.268   .     A
C1190  C1204   1.408   .     A
C1190  C1226   1.422   .     A
C1190  C1217   1.493   .     S
C1191  C1203   1.394   .     A
C1191  O1271   1.383   .     S
C1191  C1204   1.409   .     A
C1192  O1290   1.269   .     A
C1192  C1194   1.461   .     S
C1192  O1288   1.288   .     A
C1193  C1225   1.418   .     A
C1193  C1205   1.432   .     A
C1193  C1202   1.500   .     S
C1194  C979    1.350   1_655 S
C1194  H1036   1.088   1_655 S
C1196  C1199   1.460   .     S
C1196  C1521   1.340   .     S
C1196  C1537   1.499   .     S
C1197  C1198   1.435   .     S
C1197  C1844   1.340   1_545 S
C1197  H1878   1.087   1_545 S
C1198  O1291   1.265   .     A
C1198  O1277   1.275   .     A
C1199  O1292   1.268   .     A
C1199  O1286   1.277   .     A
C1200  C1205   1.414   .     A
C1200  C239    1.402   1_556 S
C1200  C251    1.490   1_556 S
C1201  O1267   1.273   .     A
C1201  O1269   1.278   .     A
C1201  C1204   1.469   .     S
C1202  O1268   1.280   .     A
C1202  O1270   1.306   .     A
C1203  H1241   1.083   .     S
C1205  C1218   1.483   .     S
C1206  C1207   1.533   .     S
C1206  H1260   1.109   .     S
C1206  O1271   1.417   .     S
C1206  H1261   1.118   .     S
C1207  C1208   1.526   .     S
C1207  H1262   1.111   .     S
C1207  H1263   1.110   .     S
C1208  H1265   1.110   .     S
C1208  H1264   1.111   .     S
C1208  H1015   1.111   1_655 S
C1209  H1232   1.111   .     S
C1209  O1272   1.418   .     S
C1209  C994    1.535   1_655 S
C1209  H1017   1.114   1_655 S
C1210  H1235   1.107   .     S
C1210  C1212   1.525   .     S
C1211  O1281   1.390   .     S
C1212  H1238   1.111   .     S
C1212  H1236   1.110   .     S
C1212  H1237   1.110   .     S
C1213  O1274   1.399   .     S
C1213  C1844   1.499   1_545 S
C1213  O1921   1.223   1_545 S
C1214  C1215   1.529   .     S
C1214  O1275   1.415   .     S
C1214  H1242   1.117   .     S
C1214  H1240   1.113   .     S
C1215  C1864   1.522   1_545 S
C1215  H1891   1.112   1_545 S
C1215  H1892   1.111   1_545 S
C1216  H1246   1.111   .     S
C1216  C1539   1.522   .     S
C1216  H1569   1.110   .     S
C1216  H1571   1.111   .     S
C1217  O1276   1.222   .     D
C1217  O1278   1.399   .     S
C1218  O1280   1.398   .     S
C1218  O1279   1.222   .     D
C1219  H1250   1.111   .     S
C1219  H1251   1.116   .     S
C1219  O1281   1.418   .     S
C1219  C1220   1.529   .     S
C1220  H1254   1.111   .     S
C1220  C1221   1.526   .     S
C1220  H1253   1.112   .     S
C1221  H1257   1.110   .     S
C1221  H1255   1.109   .     S
C1222  C1225   1.408   .     A
C1222  C239    1.421   1_556 S
C1222  C254    1.419   1_556 S
C1223  O1282   1.223   .     D
C1223  O1283   1.398   .     S
C1224  O1284   1.219   .     D
C1224  C1229   1.496   .     S
C1224  O1285   1.400   .     S
C1225  C1229   1.420   .     A
C1227  C1228   1.410   .     A
C1227  C254    1.418   1_556 S
C1227  C231    1.401   1_556 S
C1228  O1275   1.385   .     S
C1228  C1229   1.411   .     A
H1230  C1521   1.087   .     S
H1234  C994    1.109   1_655 S
H1239  O1274   1.014   .     S
H1243  C1539   1.112   .     S
H1244  C1539   1.111   .     S
H1245  C1864   1.110   1_545 S
H1247  C1864   1.111   1_545 S
H1248  O1278   1.014   .     S
H1249  O1280   1.014   .     S
H1256  C1005   1.110   1_655 S
H1258  O1283   1.013   .     S
H1259  O1285   1.013   .     S
O1266  Zn1293  1.958   .     S
O1266  Zn1296  1.934   .     S
O1266  Zn1295  1.935   .     S
O1266  Zn1294  1.922   .     S
O1267  Zn1294  1.914   .     S
O1268  Zn1296  1.918   .     S
O1269  Zn1295  1.907   .     S
O1270  Zn1293  1.906   .     S
O1272  C979    1.403   1_655 S
O1273  C1537   1.223   .     S
O1277  Zn1293  1.922   .     S
O1286  Zn1296  1.931   .     S
O1287  Zn1294  1.940   .     S
O1288  Zn1295  1.945   .     S
O1289  Zn1296  1.934   .     S
O1290  Zn1293  1.933   .     S
O1291  Zn1294  1.940   .     S
O1292  Zn1295  1.930   .     S
C1297  O1395   1.255   .     A
C1297  C1303   1.449   .     S
C1297  O1397   1.268   .     A
C1298  C1312   1.408   .     A
C1298  C1334   1.422   .     A
C1298  C1325   1.493   .     S
C1299  C1311   1.394   .     A
C1299  O1379   1.383   .     S
C1299  C1312   1.409   .     A
C1300  O1398   1.269   .     A
C1300  C1302   1.461   .     S
C1300  O1396   1.288   .     A
C1301  C1333   1.418   .     A
C1301  C1313   1.432   .     A
C1301  C1310   1.500   .     S
C1302  C1411   1.350   .     S
C1302  H1468   1.088   .     S
C1303  C1518   1.350   1_455 S
C1303  O1596   1.403   1_455 S
C1304  C1307   1.460   .     S
C1304  C1629   1.340   .     S
C1304  C1645   1.499   .     S
C1305  C1306   1.435   .     S
C1306  O1399   1.265   .     A
C1306  O1385   1.275   .     A
C1307  O1400   1.268   .     A
C1307  O1394   1.277   .     A
C1308  C1313   1.414   .     A
C1308  C347    1.402   1_556 S
C1308  C359    1.490   1_556 S
C1309  O1375   1.273   .     A
C1309  O1377   1.278   .     A
C1309  C1312   1.469   .     S
C1310  O1376   1.280   .     A
C1310  O1378   1.306   .     A
C1311  H1349   1.083   .     S
C1313  C1326   1.483   .     S
C1314  C1315   1.533   .     S
C1314  H1368   1.109   .     S
C1314  O1379   1.417   .     S
C1314  H1369   1.118   .     S
C1315  C1316   1.526   .     S
C1315  H1370   1.111   .     S
C1315  H1371   1.110   .     S
C1316  H1373   1.110   .     S
C1316  H1372   1.111   .     S
C1316  H1447   1.111   .     S
C1317  H1340   1.111   .     S
C1317  O1380   1.418   .     S
C1317  C1426   1.535   .     S
C1317  H1449   1.114   .     S
C1318  H1343   1.107   .     S
C1318  C1320   1.525   .     S
C1318  C1533   1.535   1_455 S
C1318  H1558   1.109   1_455 S
C1319  O1389   1.390   .     S
C1320  H1346   1.111   .     S
C1320  H1344   1.110   .     S
C1320  H1345   1.110   .     S
C1321  O1382   1.399   .     S
C1322  C1323   1.529   .     S
C1322  O1383   1.415   .     S
C1322  H1350   1.117   .     S
C1322  H1348   1.113   .     S
C1324  H1354   1.111   .     S
C1324  C1647   1.522   .     S
C1324  H1677   1.110   .     S
C1324  H1679   1.111   .     S
C1325  O1384   1.222   .     D
C1325  O1386   1.399   .     S
C1326  O1388   1.398   .     S
C1326  O1387   1.222   .     D
C1327  H1358   1.111   .     S
C1327  H1359   1.116   .     S
C1327  O1389   1.418   .     S
C1327  C1328   1.529   .     S
C1328  H1362   1.111   .     S
C1328  C1329   1.526   .     S
C1328  H1361   1.112   .     S
C1329  H1365   1.110   .     S
C1329  H1363   1.109   .     S
C1329  H1580   1.110   1_455 S
C1330  C1333   1.408   .     A
C1330  C347    1.421   1_556 S
C1330  C362    1.419   1_556 S
C1331  O1390   1.223   .     D
C1331  O1391   1.398   .     S
C1332  O1392   1.219   .     D
C1332  C1337   1.496   .     S
C1332  O1393   1.400   .     S
C1333  C1337   1.420   .     A
C1335  C1336   1.410   .     A
C1335  C362    1.418   1_556 S
C1335  C339    1.401   1_556 S
C1336  O1383   1.385   .     S
C1336  C1337   1.411   .     A
H1338  C1629   1.087   .     S
H1339  C1532   1.111   1_455 S
H1341  C1533   1.114   1_455 S
H1342  C1426   1.109   .     S
H1347  O1382   1.014   .     S
H1351  C1647   1.112   .     S
H1352  C1647   1.111   .     S
H1356  O1386   1.014   .     S
H1357  O1388   1.014   .     S
H1360  C1518   1.088   1_455 S
H1364  C1437   1.110   .     S
H1366  O1391   1.013   .     S
H1367  O1393   1.013   .     S
O1374  Zn1401  1.958   .     S
O1374  Zn1404  1.934   .     S
O1374  Zn1403  1.935   .     S
O1374  Zn1402  1.922   .     S
O1375  Zn1402  1.914   .     S
O1376  Zn1404  1.918   .     S
O1377  Zn1403  1.907   .     S
O1378  Zn1401  1.906   .     S
O1380  C1411   1.403   .     S
O1381  C1645   1.223   .     S
O1385  Zn1401  1.922   .     S
O1394  Zn1404  1.931   .     S
O1395  Zn1402  1.940   .     S
O1396  Zn1403  1.945   .     S
O1397  Zn1404  1.934   .     S
O1398  Zn1401  1.933   .     S
O1399  Zn1402  1.940   .     S
O1400  Zn1403  1.930   .     S
C1405  O1503   1.255   .     A
C1405  C1411   1.449   .     S
C1405  O1505   1.268   .     A
C1406  C1420   1.408   .     A
C1406  C1442   1.422   .     A
C1406  C1433   1.493   .     S
C1407  C1419   1.394   .     A
C1407  O1487   1.383   .     S
C1407  C1420   1.409   .     A
C1408  O1506   1.269   .     A
C1408  C1410   1.461   .     S
C1408  O1504   1.288   .     A
C1409  C1441   1.418   .     A
C1409  C1421   1.432   .     A
C1409  C1418   1.500   .     S
C1410  C1519   1.350   .     S
C1410  H1576   1.088   .     S
C1412  C1415   1.460   .     S
C1412  C1737   1.340   .     S
C1412  C1753   1.499   .     S
C1413  C1414   1.435   .     S
C1414  O1507   1.265   .     A
C1414  O1493   1.275   .     A
C1415  O1508   1.268   .     A
C1415  O1502   1.277   .     A
C1416  C1421   1.414   .     A
C1416  C455    1.402   1_556 S
C1416  C467    1.490   1_556 S
C1417  O1483   1.273   .     A
C1417  O1485   1.278   .     A
C1417  C1420   1.469   .     S
C1418  O1484   1.280   .     A
C1418  O1486   1.306   .     A
C1419  H1457   1.083   .     S
C1421  C1434   1.483   .     S
C1422  C1423   1.533   .     S
C1422  H1476   1.109   .     S
C1422  O1487   1.417   .     S
C1422  H1477   1.118   .     S
C1423  C1424   1.526   .     S
C1423  H1478   1.111   .     S
C1423  H1479   1.110   .     S
C1424  H1481   1.110   .     S
C1424  H1480   1.111   .     S
C1424  H1555   1.111   .     S
C1425  H1448   1.111   .     S
C1425  O1488   1.418   .     S
C1425  C1534   1.535   .     S
C1425  H1557   1.114   .     S
C1426  H1451   1.107   .     S
C1426  C1428   1.525   .     S
C1427  O1497   1.390   .     S
C1428  H1454   1.111   .     S
C1428  H1452   1.110   .     S
C1428  H1453   1.110   .     S
C1429  O1490   1.399   .     S
C1430  C1431   1.529   .     S
C1430  O1491   1.415   .     S
C1430  H1458   1.117   .     S
C1430  H1456   1.113   .     S
C1432  H1462   1.111   .     S
C1432  C1755   1.522   .     S
C1432  H1785   1.110   .     S
C1432  H1787   1.111   .     S
C1433  O1492   1.222   .     D
C1433  O1494   1.399   .     S
C1434  O1496   1.398   .     S
C1434  O1495   1.222   .     D
C1435  H1466   1.111   .     S
C1435  H1467   1.116   .     S
C1435  O1497   1.418   .     S
C1435  C1436   1.529   .     S
C1436  H1470   1.111   .     S
C1436  C1437   1.526   .     S
C1436  H1469   1.112   .     S
C1437  H1473   1.110   .     S
C1437  H1471   1.109   .     S
C1438  C1441   1.408   .     A
C1438  C455    1.421   1_556 S
C1438  C470    1.419   1_556 S
C1439  O1498   1.223   .     D
C1439  O1499   1.398   .     S
C1440  O1500   1.219   .     D
C1440  C1445   1.496   .     S
C1440  O1501   1.400   .     S
C1441  C1445   1.420   .     A
C1443  C1444   1.410   .     A
C1443  C470    1.418   1_556 S
C1443  C447    1.401   1_556 S
C1444  O1491   1.385   .     S
C1444  C1445   1.411   .     A
H1446  C1737   1.087   .     S
H1450  C1534   1.109   .     S
H1455  O1490   1.014   .     S
H1459  C1755   1.112   .     S
H1460  C1755   1.111   .     S
H1464  O1494   1.014   .     S
H1465  O1496   1.014   .     S
H1472  C1545   1.110   .     S
H1474  O1499   1.013   .     S
H1475  O1501   1.013   .     S
O1482  Zn1509  1.958   .     S
O1482  Zn1512  1.934   .     S
O1482  Zn1511  1.935   .     S
O1482  Zn1510  1.922   .     S
O1483  Zn1510  1.914   .     S
O1484  Zn1512  1.918   .     S
O1485  Zn1511  1.907   .     S
O1486  Zn1509  1.906   .     S
O1488  C1519   1.403   .     S
O1489  C1753   1.223   .     S
O1493  Zn1509  1.922   .     S
O1502  Zn1512  1.931   .     S
O1503  Zn1510  1.940   .     S
O1504  Zn1511  1.945   .     S
O1505  Zn1512  1.934   .     S
O1506  Zn1509  1.933   .     S
O1507  Zn1510  1.940   .     S
O1508  Zn1511  1.930   .     S
C1513  O1611   1.255   .     A
C1513  C1519   1.449   .     S
C1513  O1613   1.268   .     A
C1514  C1528   1.408   .     A
C1514  C1550   1.422   .     A
C1514  C1541   1.493   .     S
C1515  C1527   1.394   .     A
C1515  O1595   1.383   .     S
C1515  C1528   1.409   .     A
C1516  O1614   1.269   .     A
C1516  C1518   1.461   .     S
C1516  O1612   1.288   .     A
C1517  C1549   1.418   .     A
C1517  C1529   1.432   .     A
C1517  C1526   1.500   .     S
C1518  C1303   1.350   1_655 S
C1518  H1360   1.088   1_655 S
C1520  C1523   1.460   .     S
C1520  C1845   1.340   .     S
C1520  C1861   1.499   .     S
C1521  C1522   1.435   .     S
C1522  O1615   1.265   .     A
C1522  O1601   1.275   .     A
C1523  O1616   1.268   .     A
C1523  O1610   1.277   .     A
C1524  C1529   1.414   .     A
C1524  C563    1.402   1_556 S
C1524  C575    1.490   1_556 S
C1525  O1591   1.273   .     A
C1525  O1593   1.278   .     A
C1525  C1528   1.469   .     S
C1526  O1592   1.280   .     A
C1526  O1594   1.306   .     A
C1527  H1565   1.083   .     S
C1529  C1542   1.483   .     S
C1530  C1531   1.533   .     S
C1530  H1584   1.109   .     S
C1530  O1595   1.417   .     S
C1530  H1585   1.118   .     S
C1531  C1532   1.526   .     S
C1531  H1586   1.111   .     S
C1531  H1587   1.110   .     S
C1532  H1589   1.110   .     S
C1532  H1588   1.111   .     S
C1532  H1339   1.111   1_655 S
C1533  H1556   1.111   .     S
C1533  O1596   1.418   .     S
C1533  C1318   1.535   1_655 S
C1533  H1341   1.114   1_655 S
C1534  H1559   1.107   .     S
C1534  C1536   1.525   .     S
C1535  O1605   1.390   .     S
C1536  H1562   1.111   .     S
C1536  H1560   1.110   .     S
C1536  H1561   1.110   .     S
C1537  O1598   1.399   .     S
C1538  C1539   1.529   .     S
C1538  O1599   1.415   .     S
C1538  H1566   1.117   .     S
C1538  H1564   1.113   .     S
C1540  H1570   1.111   .     S
C1540  C1863   1.522   .     S
C1540  H1893   1.110   .     S
C1540  H1895   1.111   .     S
C1541  O1600   1.222   .     D
C1541  O1602   1.399   .     S
C1542  O1604   1.398   .     S
C1542  O1603   1.222   .     D
C1543  H1574   1.111   .     S
C1543  H1575   1.116   .     S
C1543  O1605   1.418   .     S
C1543  C1544   1.529   .     S
C1544  H1578   1.111   .     S
C1544  C1545   1.526   .     S
C1544  H1577   1.112   .     S
C1545  H1581   1.110   .     S
C1545  H1579   1.109   .     S
C1546  C1549   1.408   .     A
C1546  C563    1.421   1_556 S
C1546  C578    1.419   1_556 S
C1547  O1606   1.223   .     D
C1547  O1607   1.398   .     S
C1548  O1608   1.219   .     D
C1548  C1553   1.496   .     S
C1548  O1609   1.400   .     S
C1549  C1553   1.420   .     A
C1551  C1552   1.410   .     A
C1551  C578    1.418   1_556 S
C1551  C555    1.401   1_556 S
C1552  O1599   1.385   .     S
C1552  C1553   1.411   .     A
H1554  C1845   1.087   .     S
H1558  C1318   1.109   1_655 S
H1563  O1598   1.014   .     S
H1567  C1863   1.112   .     S
H1568  C1863   1.111   .     S
H1572  O1602   1.014   .     S
H1573  O1604   1.014   .     S
H1580  C1329   1.110   1_655 S
H1582  O1607   1.013   .     S
H1583  O1609   1.013   .     S
O1590  Zn1617  1.958   .     S
O1590  Zn1620  1.934   .     S
O1590  Zn1619  1.935   .     S
O1590  Zn1618  1.922   .     S
O1591  Zn1618  1.914   .     S
O1592  Zn1620  1.918   .     S
O1593  Zn1619  1.907   .     S
O1594  Zn1617  1.906   .     S
O1596  C1303   1.403   1_655 S
O1597  C1861   1.223   .     S
O1601  Zn1617  1.922   .     S
O1610  Zn1620  1.931   .     S
O1611  Zn1618  1.940   .     S
O1612  Zn1619  1.945   .     S
O1613  Zn1620  1.934   .     S
O1614  Zn1617  1.933   .     S
O1615  Zn1618  1.940   .     S
O1616  Zn1619  1.930   .     S
C1621  O1719   1.255   .     A
C1621  C1627   1.449   .     S
C1621  O1721   1.268   .     A
C1622  C1636   1.408   .     A
C1622  C1658   1.422   .     A
C1622  C1649   1.493   .     S
C1623  C1635   1.394   .     A
C1623  O1703   1.383   .     S
C1623  C1636   1.409   .     A
C1624  O1722   1.269   .     A
C1624  C1626   1.461   .     S
C1624  O1720   1.288   .     A
C1625  C1657   1.418   .     A
C1625  C1637   1.432   .     A
C1625  C1634   1.500   .     S
C1626  C1735   1.350   .     S
C1626  H1792   1.088   .     S
C1627  C1842   1.350   1_455 S
C1627  O1920   1.403   1_455 S
C1628  C1631   1.460   .     S
C1628  C981    1.340   1_565 S
C1628  C997    1.499   1_565 S
C1629  C1630   1.435   .     S
C1630  O1723   1.265   .     A
C1630  O1709   1.275   .     A
C1631  O1724   1.268   .     A
C1631  O1718   1.277   .     A
C1632  C1637   1.414   .     A
C1632  C671    1.402   1_556 S
C1632  C683    1.490   1_556 S
C1633  O1699   1.273   .     A
C1633  O1701   1.278   .     A
C1633  C1636   1.469   .     S
C1634  O1700   1.280   .     A
C1634  O1702   1.306   .     A
C1635  H1673   1.083   .     S
C1637  C1650   1.483   .     S
C1638  C1639   1.533   .     S
C1638  H1692   1.109   .     S
C1638  O1703   1.417   .     S
C1638  H1693   1.118   .     S
C1639  C1640   1.526   .     S
C1639  H1694   1.111   .     S
C1639  H1695   1.110   .     S
C1640  H1697   1.110   .     S
C1640  H1696   1.111   .     S
C1640  H1771   1.111   .     S
C1641  H1664   1.111   .     S
C1641  O1704   1.418   .     S
C1641  C1750   1.535   .     S
C1641  H1773   1.114   .     S
C1642  H1667   1.107   .     S
C1642  C1644   1.525   .     S
C1642  C1857   1.535   1_455 S
C1642  H1882   1.109   1_455 S
C1643  O1713   1.390   .     S
C1644  H1670   1.111   .     S
C1644  H1668   1.110   .     S
C1644  H1669   1.110   .     S
C1645  O1706   1.399   .     S
C1646  C1647   1.529   .     S
C1646  O1707   1.415   .     S
C1646  H1674   1.117   .     S
C1646  H1672   1.113   .     S
C1648  H1678   1.111   .     S
C1648  C999    1.522   1_565 S
C1648  H1029   1.110   1_565 S
C1648  H1031   1.111   1_565 S
C1649  O1708   1.222   .     D
C1649  O1710   1.399   .     S
C1650  O1712   1.398   .     S
C1650  O1711   1.222   .     D
C1651  H1682   1.111   .     S
C1651  H1683   1.116   .     S
C1651  O1713   1.418   .     S
C1651  C1652   1.529   .     S
C1652  H1686   1.111   .     S
C1652  C1653   1.526   .     S
C1652  H1685   1.112   .     S
C1653  H1689   1.110   .     S
C1653  H1687   1.109   .     S
C1653  H1904   1.110   1_455 S
C1654  C1657   1.408   .     A
C1654  C671    1.421   1_556 S
C1654  C686    1.419   1_556 S
C1655  O1714   1.223   .     D
C1655  O1715   1.398   .     S
C1656  O1716   1.219   .     D
C1656  C1661   1.496   .     S
C1656  O1717   1.400   .     S
C1657  C1661   1.420   .     A
C1659  C1660   1.410   .     A
C1659  C686    1.418   1_556 S
C1659  C663    1.401   1_556 S
C1660  O1707   1.385   .     S
C1660  C1661   1.411   .     A
H1662  C981    1.087   1_565 S
H1663  C1856   1.111   1_455 S
H1665  C1857   1.114   1_455 S
H1666  C1750   1.109   .     S
H1671  O1706   1.014   .     S
H1675  C999    1.112   1_565 S
H1676  C999    1.111   1_565 S
H1680  O1710   1.014   .     S
H1681  O1712   1.014   .     S
H1684  C1842   1.088   1_455 S
H1688  C1761   1.110   .     S
H1690  O1715   1.013   .     S
H1691  O1717   1.013   .     S
O1698  Zn1725  1.958   .     S
O1698  Zn1728  1.934   .     S
O1698  Zn1727  1.935   .     S
O1698  Zn1726  1.922   .     S
O1699  Zn1726  1.914   .     S
O1700  Zn1728  1.918   .     S
O1701  Zn1727  1.907   .     S
O1702  Zn1725  1.906   .     S
O1704  C1735   1.403   .     S
O1705  C997    1.223   1_565 S
O1709  Zn1725  1.922   .     S
O1718  Zn1728  1.931   .     S
O1719  Zn1726  1.940   .     S
O1720  Zn1727  1.945   .     S
O1721  Zn1728  1.934   .     S
O1722  Zn1725  1.933   .     S
O1723  Zn1726  1.940   .     S
O1724  Zn1727  1.930   .     S
C1729  O1827   1.255   .     A
C1729  C1735   1.449   .     S
C1729  O1829   1.268   .     A
C1730  C1744   1.408   .     A
C1730  C1766   1.422   .     A
C1730  C1757   1.493   .     S
C1731  C1743   1.394   .     A
C1731  O1811   1.383   .     S
C1731  C1744   1.409   .     A
C1732  O1830   1.269   .     A
C1732  C1734   1.461   .     S
C1732  O1828   1.288   .     A
C1733  C1765   1.418   .     A
C1733  C1745   1.432   .     A
C1733  C1742   1.500   .     S
C1734  C1843   1.350   .     S
C1734  H1900   1.088   .     S
C1736  C1739   1.460   .     S
C1736  C1089   1.340   1_565 S
C1736  C1105   1.499   1_565 S
C1737  C1738   1.435   .     S
C1738  O1831   1.265   .     A
C1738  O1817   1.275   .     A
C1739  O1832   1.268   .     A
C1739  O1826   1.277   .     A
C1740  C1745   1.414   .     A
C1740  C779    1.402   1_556 S
C1740  C791    1.490   1_556 S
C1741  O1807   1.273   .     A
C1741  O1809   1.278   .     A
C1741  C1744   1.469   .     S
C1742  O1808   1.280   .     A
C1742  O1810   1.306   .     A
C1743  H1781   1.083   .     S
C1745  C1758   1.483   .     S
C1746  C1747   1.533   .     S
C1746  H1800   1.109   .     S
C1746  O1811   1.417   .     S
C1746  H1801   1.118   .     S
C1747  C1748   1.526   .     S
C1747  H1802   1.111   .     S
C1747  H1803   1.110   .     S
C1748  H1805   1.110   .     S
C1748  H1804   1.111   .     S
C1748  H1879   1.111   .     S
C1749  H1772   1.111   .     S
C1749  O1812   1.418   .     S
C1749  C1858   1.535   .     S
C1749  H1881   1.114   .     S
C1750  H1775   1.107   .     S
C1750  C1752   1.525   .     S
C1751  O1821   1.390   .     S
C1752  H1778   1.111   .     S
C1752  H1776   1.110   .     S
C1752  H1777   1.110   .     S
C1753  O1814   1.399   .     S
C1754  C1755   1.529   .     S
C1754  O1815   1.415   .     S
C1754  H1782   1.117   .     S
C1754  H1780   1.113   .     S
C1756  H1786   1.111   .     S
C1756  C1107   1.522   1_565 S
C1756  H1137   1.110   1_565 S
C1756  H1139   1.111   1_565 S
C1757  O1816   1.222   .     D
C1757  O1818   1.399   .     S
C1758  O1820   1.398   .     S
C1758  O1819   1.222   .     D
C1759  H1790   1.111   .     S
C1759  H1791   1.116   .     S
C1759  O1821   1.418   .     S
C1759  C1760   1.529   .     S
C1760  H1794   1.111   .     S
C1760  C1761   1.526   .     S
C1760  H1793   1.112   .     S
C1761  H1797   1.110   .     S
C1761  H1795   1.109   .     S
C1762  C1765   1.408   .     A
C1762  C779    1.421   1_556 S
C1762  C794    1.419   1_556 S
C1763  O1822   1.223   .     D
C1763  O1823   1.398   .     S
C1764  O1824   1.219   .     D
C1764  C1769   1.496   .     S
C1764  O1825   1.400   .     S
C1765  C1769   1.420   .     A
C1767  C1768   1.410   .     A
C1767  C794    1.418   1_556 S
C1767  C771    1.401   1_556 S
C1768  O1815   1.385   .     S
C1768  C1769   1.411   .     A
H1770  C1089   1.087   1_565 S
H1774  C1858   1.109   .     S
H1779  O1814   1.014   .     S
H1783  C1107   1.112   1_565 S
H1784  C1107   1.111   1_565 S
H1788  O1818   1.014   .     S
H1789  O1820   1.014   .     S
H1796  C1869   1.110   .     S
H1798  O1823   1.013   .     S
H1799  O1825   1.013   .     S
O1806  Zn1833  1.958   .     S
O1806  Zn1836  1.934   .     S
O1806  Zn1835  1.935   .     S
O1806  Zn1834  1.922   .     S
O1807  Zn1834  1.914   .     S
O1808  Zn1836  1.918   .     S
O1809  Zn1835  1.907   .     S
O1810  Zn1833  1.906   .     S
O1812  C1843   1.403   .     S
O1813  C1105   1.223   1_565 S
O1817  Zn1833  1.922   .     S
O1826  Zn1836  1.931   .     S
O1827  Zn1834  1.940   .     S
O1828  Zn1835  1.945   .     S
O1829  Zn1836  1.934   .     S
O1830  Zn1833  1.933   .     S
O1831  Zn1834  1.940   .     S
O1832  Zn1835  1.930   .     S
C1837  O1935   1.255   .     A
C1837  C1843   1.449   .     S
C1837  O1937   1.268   .     A
C1838  C1852   1.408   .     A
C1838  C1874   1.422   .     A
C1838  C1865   1.493   .     S
C1839  C1851   1.394   .     A
C1839  O1919   1.383   .     S
C1839  C1852   1.409   .     A
C1840  O1938   1.269   .     A
C1840  C1842   1.461   .     S
C1840  O1936   1.288   .     A
C1841  C1873   1.418   .     A
C1841  C1853   1.432   .     A
C1841  C1850   1.500   .     S
C1842  C1627   1.350   1_655 S
C1842  H1684   1.088   1_655 S
C1844  C1847   1.460   .     S
C1844  C1197   1.340   1_565 S
C1844  C1213   1.499   1_565 S
C1845  C1846   1.435   .     S
C1846  O1939   1.265   .     A
C1846  O1925   1.275   .     A
C1847  O1940   1.268   .     A
C1847  O1934   1.277   .     A
C1848  C1853   1.414   .     A
C1848  C887    1.402   1_556 S
C1848  C899    1.490   1_556 S
C1849  O1915   1.273   .     A
C1849  O1917   1.278   .     A
C1849  C1852   1.469   .     S
C1850  O1916   1.280   .     A
C1850  O1918   1.306   .     A
C1851  H1889   1.083   .     S
C1853  C1866   1.483   .     S
C1854  C1855   1.533   .     S
C1854  H1908   1.109   .     S
C1854  O1919   1.417   .     S
C1854  H1909   1.118   .     S
C1855  C1856   1.526   .     S
C1855  H1910   1.111   .     S
C1855  H1911   1.110   .     S
C1856  H1913   1.110   .     S
C1856  H1912   1.111   .     S
C1856  H1663   1.111   1_655 S
C1857  H1880   1.111   .     S
C1857  O1920   1.418   .     S
C1857  C1642   1.535   1_655 S
C1857  H1665   1.114   1_655 S
C1858  H1883   1.107   .     S
C1858  C1860   1.525   .     S
C1859  O1929   1.390   .     S
C1860  H1886   1.111   .     S
C1860  H1884   1.110   .     S
C1860  H1885   1.110   .     S
C1861  O1922   1.399   .     S
C1862  C1863   1.529   .     S
C1862  O1923   1.415   .     S
C1862  H1890   1.117   .     S
C1862  H1888   1.113   .     S
C1864  H1894   1.111   .     S
C1864  C1215   1.522   1_565 S
C1864  H1245   1.110   1_565 S
C1864  H1247   1.111   1_565 S
C1865  O1924   1.222   .     D
C1865  O1926   1.399   .     S
C1866  O1928   1.398   .     S
C1866  O1927   1.222   .     D
C1867  H1898   1.111   .     S
C1867  H1899   1.116   .     S
C1867  O1929   1.418   .     S
C1867  C1868   1.529   .     S
C1868  H1902   1.111   .     S
C1868  C1869   1.526   .     S
C1868  H1901   1.112   .     S
C1869  H1905   1.110   .     S
C1869  H1903   1.109   .     S
C1870  C1873   1.408   .     A
C1870  C887    1.421   1_556 S
C1870  C902    1.419   1_556 S
C1871  O1930   1.223   .     D
C1871  O1931   1.398   .     S
C1872  O1932   1.219   .     D
C1872  C1877   1.496   .     S
C1872  O1933   1.400   .     S
C1873  C1877   1.420   .     A
C1875  C1876   1.410   .     A
C1875  C902    1.418   1_556 S
C1875  C879    1.401   1_556 S
C1876  O1923   1.385   .     S
C1876  C1877   1.411   .     A
H1878  C1197   1.087   1_565 S
H1882  C1642   1.109   1_655 S
H1887  O1922   1.014   .     S
H1891  C1215   1.112   1_565 S
H1892  C1215   1.111   1_565 S
H1896  O1926   1.014   .     S
H1897  O1928   1.014   .     S
H1904  C1653   1.110   1_655 S
H1906  O1931   1.013   .     S
H1907  O1933   1.013   .     S
O1914  Zn1941  1.958   .     S
O1914  Zn1944  1.934   .     S
O1914  Zn1943  1.935   .     S
O1914  Zn1942  1.922   .     S
O1915  Zn1942  1.914   .     S
O1916  Zn1944  1.918   .     S
O1917  Zn1943  1.907   .     S
O1918  Zn1941  1.906   .     S
O1920  C1627   1.403   1_655 S
O1921  C1213   1.223   1_565 S
O1925  Zn1941  1.922   .     S
O1934  Zn1944  1.931   .     S
O1935  Zn1942  1.940   .     S
O1936  Zn1943  1.945   .     S
O1937  Zn1944  1.934   .     S
O1938  Zn1941  1.933   .     S
O1939  Zn1942  1.940   .     S
O1940  Zn1943  1.930   .     S
