data_str_m2_o1_o5_pcu_sym.32
_audit_creation_date              2020-01-03
_audit_creation_method            'Materials Studio'
_symmetry_space_group_name_H-M    'P1'
_symmetry_Int_Tables_number       1
_symmetry_cell_setting            triclinic
loop_
_symmetry_equiv_pos_as_xyz
  x,y,z
_cell_length_a                    32.4312
_cell_length_b                    28.8859
_cell_length_c                    27.1332
_cell_angle_alpha                 90.6069
_cell_angle_beta                  92.0709
_cell_angle_gamma                 89.7752
loop_
_atom_site_label
_atom_site_type_symbol
_atom_site_fract_x
_atom_site_fract_y
_atom_site_fract_z
_atom_site_U_iso_or_equiv
_atom_site_adp_type
_atom_site_occupancy
C1     C     0.08748   0.16673   0.16736   0.00000  Uiso   1.00
C2     C     0.02154   0.20712   0.18085   0.00000  Uiso   1.00
C3     C     0.29050   0.16682   0.16683   0.00000  Uiso   1.00
C4     C     0.04280   0.16679   0.16776   0.00000  Uiso   1.00
C5     C     0.14813   0.02440   0.12820   0.00000  Uiso   1.00
C6     C     0.18464   0.30895   0.20524   0.00000  Uiso   1.00
C7     C     0.18710   0.02527   0.20332   0.00000  Uiso   1.00
C8     C     0.14696   0.30820   0.12909   0.00000  Uiso   1.00
C9     C     0.09883   0.06065   0.07760   0.00000  Uiso   1.00
C10    C     0.08428   0.05396   0.02391   0.00000  Uiso   1.00
C11    C     0.18440   0.29523   0.28877   0.00000  Uiso   1.00
C12    C     0.24585   0.16666   0.16666   0.00000  Uiso   1.00
C13    C     0.21345   0.28181   0.33158   0.00000  Uiso   1.00
C14    C     0.25224   0.04205   0.23346   0.00000  Uiso   1.00
C15    C     0.27654   0.07579   0.26660   0.00000  Uiso   1.00
C16    C     0.08788   0.27829   0.09113   0.00000  Uiso   1.00
C17    C     0.07384   0.23732   0.05896   0.00000  Uiso   1.00
C18    C     0.16687   0.16650   0.07367   0.00000  Uiso   1.00
C19    C     0.16669   0.16679   0.25968   0.00000  Uiso   1.00
C20    C     0.16669   0.16637   0.02189   0.00000  Uiso   1.00
C21    C     0.16661   0.16676   0.31144   0.00000  Uiso   1.00
C22    C     0.02105   0.12645   0.15474   0.00000  Uiso   1.00
C23    C     0.31216   0.20713   0.18042   0.00000  Uiso   1.00
C24    C     0.31176   0.12662   0.15366   0.00000  Uiso   1.00
Cu25   Cu    0.16667   0.21355   0.16667   0.00000  Uiso   1.00
Cu26   Cu    0.16667   0.11978   0.16667   0.00000  Uiso   1.00
H27    H     0.03681   0.09489   0.14494   0.00000  Uiso   1.00
H28    H     0.15547   0.27497   0.29077   0.00000  Uiso   1.00
H29    H     0.17607   0.33225   0.29405   0.00000  Uiso   1.00
H30    H     0.19807   0.28735   0.03370   0.00000  Uiso   1.00
H31    H     0.22248   0.24484   0.32826   0.00000  Uiso   1.00
H32    H     0.24166   0.30347   0.33155   0.00000  Uiso   1.00
H33    H     0.26106   0.04721   0.19468   0.00000  Uiso   1.00
H34    H     0.26132   0.00650   0.24468   0.00000  Uiso   1.00
H35    H     0.27004   0.06931   0.30585   0.00000  Uiso   1.00
H36    H     0.31011   0.07118   0.26127   0.00000  Uiso   1.00
H37    H     0.26776   0.11198   0.25762   0.00000  Uiso   1.00
H38    H     0.29619   0.23848   0.19112   0.00000  Uiso   1.00
H39    H     0.07101   0.30816   0.07590   0.00000  Uiso   1.00
H40    H     0.07769   0.27385   0.12940   0.00000  Uiso   1.00
H41    H     0.08304   0.24255   0.02037   0.00000  Uiso   1.00
H42    H     0.08753   0.20455   0.07255   0.00000  Uiso   1.00
H43    H     0.03973   0.23422   0.05936   0.00000  Uiso   1.00
H44    H     0.29556   0.09549   0.14203   0.00000  Uiso   1.00
H45    H     0.03783   0.23837   0.19200   0.00000  Uiso   1.00
H46    H     0.09680   0.09823   0.08485   0.00000  Uiso   1.00
H47    H     0.07741   0.04371   0.10281   0.00000  Uiso   1.00
H48    H     0.09010   0.01801   0.01107   0.00000  Uiso   1.00
H49    H     0.05076   0.06167   0.01984   0.00000  Uiso   1.00
H50    H     0.10128   0.07784   0.00011   0.00000  Uiso   1.00
N51    N     0.16667   0.28402   0.16667   0.00000  Uiso   1.00
N52    N     0.16667   0.04931   0.16667   0.00000  Uiso   1.00
O53    O     0.10655   0.20625   0.16666   0.00000  Uiso   1.00
O54    O     0.20397   0.28545   0.24385   0.00000  Uiso   1.00
O55    O     0.20961   0.04983   0.23908   0.00000  Uiso   1.00
O56    O     0.13105   0.28445   0.08802   0.00000  Uiso   1.00
O57    O     0.22679   0.12709   0.16667   0.00000  Uiso   1.00
O58    O     0.22679   0.20625   0.16667   0.00000  Uiso   1.00
O59    O     0.10655   0.12709   0.16666   0.00000  Uiso   1.00
O60    O     0.16667   0.20625   0.09613   0.00000  Uiso   1.00
O61    O     0.16667   0.12708   0.23720   0.00000  Uiso   1.00
O62    O     0.16667   0.20625   0.23720   0.00000  Uiso   1.00
O63    O     0.16667   0.12708   0.09613   0.00000  Uiso   1.00
O64    O     0.14026   0.04555   0.08320   0.00000  Uiso   1.00
C65    C     0.42081   0.16673   0.16736   0.00000  Uiso   1.00
C66    C     0.35487   0.20712   0.18085   0.00000  Uiso   1.00
C67    C     0.62383   0.16682   0.16683   0.00000  Uiso   1.00
C68    C     0.37613   0.16679   0.16776   0.00000  Uiso   1.00
C69    C     0.48147   0.02440   0.12820   0.00000  Uiso   1.00
C70    C     0.51797   0.30895   0.20524   0.00000  Uiso   1.00
C71    C     0.52043   0.02527   0.20332   0.00000  Uiso   1.00
C72    C     0.48029   0.30820   0.12909   0.00000  Uiso   1.00
C73    C     0.43217   0.06065   0.07760   0.00000  Uiso   1.00
C74    C     0.41761   0.05396   0.02391   0.00000  Uiso   1.00
C75    C     0.51773   0.29523   0.28877   0.00000  Uiso   1.00
C76    C     0.57918   0.16666   0.16666   0.00000  Uiso   1.00
C77    C     0.54678   0.28181   0.33158   0.00000  Uiso   1.00
C78    C     0.58557   0.04205   0.23346   0.00000  Uiso   1.00
C79    C     0.60988   0.07579   0.26660   0.00000  Uiso   1.00
C80    C     0.42122   0.27829   0.09113   0.00000  Uiso   1.00
C81    C     0.40717   0.23732   0.05896   0.00000  Uiso   1.00
C82    C     0.50020   0.16650   0.07367   0.00000  Uiso   1.00
C83    C     0.50002   0.16679   0.25968   0.00000  Uiso   1.00
C84    C     0.50002   0.16637   0.02189   0.00000  Uiso   1.00
C85    C     0.49994   0.16676   0.31144   0.00000  Uiso   1.00
C86    C     0.35438   0.12645   0.15474   0.00000  Uiso   1.00
C87    C     0.64550   0.20713   0.18042   0.00000  Uiso   1.00
C88    C     0.64510   0.12662   0.15366   0.00000  Uiso   1.00
Cu89   Cu    0.50000   0.21355   0.16667   0.00000  Uiso   1.00
Cu90   Cu    0.50000   0.11978   0.16667   0.00000  Uiso   1.00
H91    H     0.37014   0.09489   0.14494   0.00000  Uiso   1.00
H92    H     0.48881   0.27497   0.29077   0.00000  Uiso   1.00
H93    H     0.50941   0.33225   0.29405   0.00000  Uiso   1.00
H94    H     0.53141   0.28735   0.03370   0.00000  Uiso   1.00
H95    H     0.55581   0.24484   0.32826   0.00000  Uiso   1.00
H96    H     0.57500   0.30347   0.33155   0.00000  Uiso   1.00
H97    H     0.59439   0.04721   0.19468   0.00000  Uiso   1.00
H98    H     0.59465   0.00650   0.24468   0.00000  Uiso   1.00
H99    H     0.60338   0.06931   0.30585   0.00000  Uiso   1.00
H100   H     0.64344   0.07118   0.26127   0.00000  Uiso   1.00
H101   H     0.60109   0.11198   0.25762   0.00000  Uiso   1.00
H102   H     0.62952   0.23848   0.19112   0.00000  Uiso   1.00
H103   H     0.40434   0.30816   0.07590   0.00000  Uiso   1.00
H104   H     0.41102   0.27385   0.12940   0.00000  Uiso   1.00
H105   H     0.41637   0.24255   0.02037   0.00000  Uiso   1.00
H106   H     0.42087   0.20455   0.07255   0.00000  Uiso   1.00
H107   H     0.37306   0.23422   0.05936   0.00000  Uiso   1.00
H108   H     0.62889   0.09549   0.14203   0.00000  Uiso   1.00
H109   H     0.37116   0.23837   0.19200   0.00000  Uiso   1.00
H110   H     0.43013   0.09823   0.08485   0.00000  Uiso   1.00
H111   H     0.41075   0.04371   0.10281   0.00000  Uiso   1.00
H112   H     0.42343   0.01801   0.01107   0.00000  Uiso   1.00
H113   H     0.38410   0.06167   0.01984   0.00000  Uiso   1.00
H114   H     0.43461   0.07784   0.00011   0.00000  Uiso   1.00
N115   N     0.50000   0.28402   0.16667   0.00000  Uiso   1.00
N116   N     0.50000   0.04931   0.16667   0.00000  Uiso   1.00
O117   O     0.43988   0.20625   0.16666   0.00000  Uiso   1.00
O118   O     0.53730   0.28545   0.24385   0.00000  Uiso   1.00
O119   O     0.54294   0.04983   0.23908   0.00000  Uiso   1.00
O120   O     0.46438   0.28445   0.08802   0.00000  Uiso   1.00
O121   O     0.56012   0.12709   0.16667   0.00000  Uiso   1.00
O122   O     0.56012   0.20625   0.16667   0.00000  Uiso   1.00
O123   O     0.43988   0.12709   0.16666   0.00000  Uiso   1.00
O124   O     0.50000   0.20625   0.09613   0.00000  Uiso   1.00
O125   O     0.50000   0.12708   0.23720   0.00000  Uiso   1.00
O126   O     0.50000   0.20625   0.23720   0.00000  Uiso   1.00
O127   O     0.50000   0.12708   0.09613   0.00000  Uiso   1.00
O128   O     0.47359   0.04555   0.08320   0.00000  Uiso   1.00
C129   C     0.75415   0.16673   0.16736   0.00000  Uiso   1.00
C130   C     0.68821   0.20712   0.18085   0.00000  Uiso   1.00
C131   C     0.95716   0.16682   0.16683   0.00000  Uiso   1.00
C132   C     0.70947   0.16679   0.16776   0.00000  Uiso   1.00
C133   C     0.81480   0.02440   0.12820   0.00000  Uiso   1.00
C134   C     0.85131   0.30895   0.20524   0.00000  Uiso   1.00
C135   C     0.85377   0.02527   0.20332   0.00000  Uiso   1.00
C136   C     0.81362   0.30820   0.12909   0.00000  Uiso   1.00
C137   C     0.76550   0.06065   0.07760   0.00000  Uiso   1.00
C138   C     0.75095   0.05396   0.02391   0.00000  Uiso   1.00
C139   C     0.85107   0.29523   0.28877   0.00000  Uiso   1.00
C140   C     0.91251   0.16666   0.16666   0.00000  Uiso   1.00
C141   C     0.88011   0.28181   0.33158   0.00000  Uiso   1.00
C142   C     0.91891   0.04205   0.23346   0.00000  Uiso   1.00
C143   C     0.94321   0.07579   0.26660   0.00000  Uiso   1.00
C144   C     0.75455   0.27829   0.09113   0.00000  Uiso   1.00
C145   C     0.74051   0.23732   0.05896   0.00000  Uiso   1.00
C146   C     0.83353   0.16650   0.07367   0.00000  Uiso   1.00
C147   C     0.83335   0.16679   0.25968   0.00000  Uiso   1.00
C148   C     0.83335   0.16637   0.02189   0.00000  Uiso   1.00
C149   C     0.83327   0.16676   0.31144   0.00000  Uiso   1.00
C150   C     0.68772   0.12645   0.15474   0.00000  Uiso   1.00
C151   C     0.97883   0.20713   0.18042   0.00000  Uiso   1.00
C152   C     0.97843   0.12662   0.15366   0.00000  Uiso   1.00
Cu153  Cu    0.83333   0.21355   0.16667   0.00000  Uiso   1.00
Cu154  Cu    0.83333   0.11978   0.16667   0.00000  Uiso   1.00
H155   H     0.70347   0.09489   0.14494   0.00000  Uiso   1.00
H156   H     0.82214   0.27497   0.29077   0.00000  Uiso   1.00
H157   H     0.84274   0.33225   0.29405   0.00000  Uiso   1.00
H158   H     0.86474   0.28735   0.03370   0.00000  Uiso   1.00
H159   H     0.88915   0.24484   0.32826   0.00000  Uiso   1.00
H160   H     0.90833   0.30347   0.33155   0.00000  Uiso   1.00
H161   H     0.92773   0.04721   0.19468   0.00000  Uiso   1.00
H162   H     0.92799   0.00650   0.24468   0.00000  Uiso   1.00
H163   H     0.93671   0.06931   0.30585   0.00000  Uiso   1.00
H164   H     0.97678   0.07118   0.26127   0.00000  Uiso   1.00
H165   H     0.93442   0.11198   0.25762   0.00000  Uiso   1.00
H166   H     0.96285   0.23848   0.19112   0.00000  Uiso   1.00
H167   H     0.73768   0.30816   0.07590   0.00000  Uiso   1.00
H168   H     0.74436   0.27385   0.12940   0.00000  Uiso   1.00
H169   H     0.74970   0.24255   0.02037   0.00000  Uiso   1.00
H170   H     0.75420   0.20455   0.07255   0.00000  Uiso   1.00
H171   H     0.70639   0.23422   0.05936   0.00000  Uiso   1.00
H172   H     0.96223   0.09549   0.14203   0.00000  Uiso   1.00
H173   H     0.70450   0.23837   0.19200   0.00000  Uiso   1.00
H174   H     0.76346   0.09823   0.08485   0.00000  Uiso   1.00
H175   H     0.74408   0.04371   0.10281   0.00000  Uiso   1.00
H176   H     0.75676   0.01801   0.01107   0.00000  Uiso   1.00
H177   H     0.71743   0.06167   0.01984   0.00000  Uiso   1.00
H178   H     0.76794   0.07784   0.00011   0.00000  Uiso   1.00
N179   N     0.83333   0.28402   0.16667   0.00000  Uiso   1.00
N180   N     0.83333   0.04931   0.16667   0.00000  Uiso   1.00
O181   O     0.77321   0.20625   0.16666   0.00000  Uiso   1.00
O182   O     0.87064   0.28545   0.24385   0.00000  Uiso   1.00
O183   O     0.87627   0.04983   0.23908   0.00000  Uiso   1.00
O184   O     0.79772   0.28445   0.08802   0.00000  Uiso   1.00
O185   O     0.89345   0.12709   0.16667   0.00000  Uiso   1.00
O186   O     0.89345   0.20625   0.16667   0.00000  Uiso   1.00
O187   O     0.77321   0.12709   0.16666   0.00000  Uiso   1.00
O188   O     0.83333   0.20625   0.09613   0.00000  Uiso   1.00
O189   O     0.83333   0.12708   0.23720   0.00000  Uiso   1.00
O190   O     0.83333   0.20625   0.23720   0.00000  Uiso   1.00
O191   O     0.83333   0.12708   0.09613   0.00000  Uiso   1.00
O192   O     0.80692   0.04555   0.08320   0.00000  Uiso   1.00
C193   C     0.08748   0.50006   0.16736   0.00000  Uiso   1.00
C194   C     0.02154   0.54045   0.18085   0.00000  Uiso   1.00
C195   C     0.29050   0.50015   0.16683   0.00000  Uiso   1.00
C196   C     0.04280   0.50012   0.16776   0.00000  Uiso   1.00
C197   C     0.14813   0.35773   0.12820   0.00000  Uiso   1.00
C198   C     0.18464   0.64229   0.20524   0.00000  Uiso   1.00
C199   C     0.18710   0.35860   0.20332   0.00000  Uiso   1.00
C200   C     0.14696   0.64153   0.12909   0.00000  Uiso   1.00
C201   C     0.09883   0.39399   0.07760   0.00000  Uiso   1.00
C202   C     0.08428   0.38730   0.02391   0.00000  Uiso   1.00
C203   C     0.18440   0.62856   0.28877   0.00000  Uiso   1.00
C204   C     0.24585   0.49999   0.16666   0.00000  Uiso   1.00
C205   C     0.21345   0.61514   0.33158   0.00000  Uiso   1.00
C206   C     0.25224   0.37539   0.23346   0.00000  Uiso   1.00
C207   C     0.27654   0.40912   0.26660   0.00000  Uiso   1.00
C208   C     0.08788   0.61163   0.09113   0.00000  Uiso   1.00
C209   C     0.07384   0.57065   0.05896   0.00000  Uiso   1.00
C210   C     0.16687   0.49983   0.07367   0.00000  Uiso   1.00
C211   C     0.16669   0.50013   0.25968   0.00000  Uiso   1.00
C212   C     0.16669   0.49970   0.02189   0.00000  Uiso   1.00
C213   C     0.16661   0.50010   0.31144   0.00000  Uiso   1.00
C214   C     0.02105   0.45979   0.15474   0.00000  Uiso   1.00
C215   C     0.31216   0.54047   0.18042   0.00000  Uiso   1.00
C216   C     0.31176   0.45995   0.15366   0.00000  Uiso   1.00
Cu217  Cu    0.16667   0.54689   0.16667   0.00000  Uiso   1.00
Cu218  Cu    0.16667   0.45311   0.16667   0.00000  Uiso   1.00
H219   H     0.03681   0.42822   0.14494   0.00000  Uiso   1.00
H220   H     0.15547   0.60831   0.29077   0.00000  Uiso   1.00
H221   H     0.17607   0.66558   0.29405   0.00000  Uiso   1.00
H222   H     0.19807   0.62068   0.03370   0.00000  Uiso   1.00
H223   H     0.22248   0.57818   0.32826   0.00000  Uiso   1.00
H224   H     0.24166   0.63680   0.33155   0.00000  Uiso   1.00
H225   H     0.26106   0.38054   0.19468   0.00000  Uiso   1.00
H226   H     0.26132   0.33983   0.24468   0.00000  Uiso   1.00
H227   H     0.27004   0.40265   0.30585   0.00000  Uiso   1.00
H228   H     0.31011   0.40451   0.26127   0.00000  Uiso   1.00
H229   H     0.26776   0.44531   0.25762   0.00000  Uiso   1.00
H230   H     0.29619   0.57181   0.19112   0.00000  Uiso   1.00
H231   H     0.07101   0.64150   0.07590   0.00000  Uiso   1.00
H232   H     0.07769   0.60719   0.12940   0.00000  Uiso   1.00
H233   H     0.08304   0.57588   0.02037   0.00000  Uiso   1.00
H234   H     0.08753   0.53788   0.07255   0.00000  Uiso   1.00
H235   H     0.03973   0.56755   0.05936   0.00000  Uiso   1.00
H236   H     0.29556   0.42882   0.14203   0.00000  Uiso   1.00
H237   H     0.03783   0.57170   0.19200   0.00000  Uiso   1.00
H238   H     0.09680   0.43156   0.08485   0.00000  Uiso   1.00
H239   H     0.07741   0.37704   0.10281   0.00000  Uiso   1.00
H240   H     0.09010   0.35134   0.01107   0.00000  Uiso   1.00
H241   H     0.05076   0.39500   0.01984   0.00000  Uiso   1.00
H242   H     0.10128   0.41118   0.00011   0.00000  Uiso   1.00
N243   N     0.16667   0.61736   0.16667   0.00000  Uiso   1.00
N244   N     0.16667   0.38264   0.16667   0.00000  Uiso   1.00
O245   O     0.10655   0.53958   0.16666   0.00000  Uiso   1.00
O246   O     0.20397   0.61878   0.24385   0.00000  Uiso   1.00
O247   O     0.20961   0.38316   0.23908   0.00000  Uiso   1.00
O248   O     0.13105   0.61778   0.08802   0.00000  Uiso   1.00
O249   O     0.22679   0.46042   0.16667   0.00000  Uiso   1.00
O250   O     0.22679   0.53958   0.16667   0.00000  Uiso   1.00
O251   O     0.10655   0.46042   0.16666   0.00000  Uiso   1.00
O252   O     0.16667   0.53959   0.09613   0.00000  Uiso   1.00
O253   O     0.16667   0.46041   0.23720   0.00000  Uiso   1.00
O254   O     0.16667   0.53959   0.23720   0.00000  Uiso   1.00
O255   O     0.16667   0.46041   0.09613   0.00000  Uiso   1.00
O256   O     0.14026   0.37889   0.08320   0.00000  Uiso   1.00
C257   C     0.42081   0.50006   0.16736   0.00000  Uiso   1.00
C258   C     0.35487   0.54045   0.18085   0.00000  Uiso   1.00
C259   C     0.62383   0.50015   0.16683   0.00000  Uiso   1.00
C260   C     0.37613   0.50012   0.16776   0.00000  Uiso   1.00
C261   C     0.48147   0.35773   0.12820   0.00000  Uiso   1.00
C262   C     0.51797   0.64229   0.20524   0.00000  Uiso   1.00
C263   C     0.52043   0.35860   0.20332   0.00000  Uiso   1.00
C264   C     0.48029   0.64153   0.12909   0.00000  Uiso   1.00
C265   C     0.43217   0.39399   0.07760   0.00000  Uiso   1.00
C266   C     0.41761   0.38730   0.02391   0.00000  Uiso   1.00
C267   C     0.51773   0.62856   0.28877   0.00000  Uiso   1.00
C268   C     0.57918   0.49999   0.16666   0.00000  Uiso   1.00
C269   C     0.54678   0.61514   0.33158   0.00000  Uiso   1.00
C270   C     0.58557   0.37539   0.23346   0.00000  Uiso   1.00
C271   C     0.60988   0.40912   0.26660   0.00000  Uiso   1.00
C272   C     0.42122   0.61163   0.09113   0.00000  Uiso   1.00
C273   C     0.40717   0.57065   0.05896   0.00000  Uiso   1.00
C274   C     0.50020   0.49983   0.07367   0.00000  Uiso   1.00
C275   C     0.50002   0.50013   0.25968   0.00000  Uiso   1.00
C276   C     0.50002   0.49970   0.02189   0.00000  Uiso   1.00
C277   C     0.49994   0.50010   0.31144   0.00000  Uiso   1.00
C278   C     0.35438   0.45979   0.15474   0.00000  Uiso   1.00
C279   C     0.64550   0.54047   0.18042   0.00000  Uiso   1.00
C280   C     0.64510   0.45995   0.15366   0.00000  Uiso   1.00
Cu281  Cu    0.50000   0.54689   0.16667   0.00000  Uiso   1.00
Cu282  Cu    0.50000   0.45311   0.16667   0.00000  Uiso   1.00
H283   H     0.37014   0.42822   0.14494   0.00000  Uiso   1.00
H284   H     0.48881   0.60831   0.29077   0.00000  Uiso   1.00
H285   H     0.50941   0.66558   0.29405   0.00000  Uiso   1.00
H286   H     0.53141   0.62068   0.03370   0.00000  Uiso   1.00
H287   H     0.55581   0.57818   0.32826   0.00000  Uiso   1.00
H288   H     0.57500   0.63680   0.33155   0.00000  Uiso   1.00
H289   H     0.59439   0.38054   0.19468   0.00000  Uiso   1.00
H290   H     0.59465   0.33983   0.24468   0.00000  Uiso   1.00
H291   H     0.60338   0.40265   0.30585   0.00000  Uiso   1.00
H292   H     0.64344   0.40451   0.26127   0.00000  Uiso   1.00
H293   H     0.60109   0.44531   0.25762   0.00000  Uiso   1.00
H294   H     0.62952   0.57181   0.19112   0.00000  Uiso   1.00
H295   H     0.40434   0.64150   0.07590   0.00000  Uiso   1.00
H296   H     0.41102   0.60719   0.12940   0.00000  Uiso   1.00
H297   H     0.41637   0.57588   0.02037   0.00000  Uiso   1.00
H298   H     0.42087   0.53788   0.07255   0.00000  Uiso   1.00
H299   H     0.37306   0.56755   0.05936   0.00000  Uiso   1.00
H300   H     0.62889   0.42882   0.14203   0.00000  Uiso   1.00
H301   H     0.37116   0.57170   0.19200   0.00000  Uiso   1.00
H302   H     0.43013   0.43156   0.08485   0.00000  Uiso   1.00
H303   H     0.41075   0.37704   0.10281   0.00000  Uiso   1.00
H304   H     0.42343   0.35134   0.01107   0.00000  Uiso   1.00
H305   H     0.38410   0.39500   0.01984   0.00000  Uiso   1.00
H306   H     0.43461   0.41118   0.00011   0.00000  Uiso   1.00
N307   N     0.50000   0.61736   0.16667   0.00000  Uiso   1.00
N308   N     0.50000   0.38264   0.16667   0.00000  Uiso   1.00
O309   O     0.43988   0.53958   0.16666   0.00000  Uiso   1.00
O310   O     0.53730   0.61878   0.24385   0.00000  Uiso   1.00
O311   O     0.54294   0.38316   0.23908   0.00000  Uiso   1.00
O312   O     0.46438   0.61778   0.08802   0.00000  Uiso   1.00
O313   O     0.56012   0.46042   0.16667   0.00000  Uiso   1.00
O314   O     0.56012   0.53958   0.16667   0.00000  Uiso   1.00
O315   O     0.43988   0.46042   0.16666   0.00000  Uiso   1.00
O316   O     0.50000   0.53959   0.09613   0.00000  Uiso   1.00
O317   O     0.50000   0.46041   0.23720   0.00000  Uiso   1.00
O318   O     0.50000   0.53959   0.23720   0.00000  Uiso   1.00
O319   O     0.50000   0.46041   0.09613   0.00000  Uiso   1.00
O320   O     0.47359   0.37889   0.08320   0.00000  Uiso   1.00
C321   C     0.75415   0.50006   0.16736   0.00000  Uiso   1.00
C322   C     0.68821   0.54045   0.18085   0.00000  Uiso   1.00
C323   C     0.95716   0.50015   0.16683   0.00000  Uiso   1.00
C324   C     0.70947   0.50012   0.16776   0.00000  Uiso   1.00
C325   C     0.81480   0.35773   0.12820   0.00000  Uiso   1.00
C326   C     0.85131   0.64229   0.20524   0.00000  Uiso   1.00
C327   C     0.85377   0.35860   0.20332   0.00000  Uiso   1.00
C328   C     0.81362   0.64153   0.12909   0.00000  Uiso   1.00
C329   C     0.76550   0.39399   0.07760   0.00000  Uiso   1.00
C330   C     0.75095   0.38730   0.02391   0.00000  Uiso   1.00
C331   C     0.85107   0.62856   0.28877   0.00000  Uiso   1.00
C332   C     0.91251   0.49999   0.16666   0.00000  Uiso   1.00
C333   C     0.88011   0.61514   0.33158   0.00000  Uiso   1.00
C334   C     0.91891   0.37539   0.23346   0.00000  Uiso   1.00
C335   C     0.94321   0.40912   0.26660   0.00000  Uiso   1.00
C336   C     0.75455   0.61163   0.09113   0.00000  Uiso   1.00
C337   C     0.74051   0.57065   0.05896   0.00000  Uiso   1.00
C338   C     0.83353   0.49983   0.07367   0.00000  Uiso   1.00
C339   C     0.83335   0.50013   0.25968   0.00000  Uiso   1.00
C340   C     0.83335   0.49970   0.02189   0.00000  Uiso   1.00
C341   C     0.83327   0.50010   0.31144   0.00000  Uiso   1.00
C342   C     0.68772   0.45979   0.15474   0.00000  Uiso   1.00
C343   C     0.97883   0.54047   0.18042   0.00000  Uiso   1.00
C344   C     0.97843   0.45995   0.15366   0.00000  Uiso   1.00
Cu345  Cu    0.83333   0.54689   0.16667   0.00000  Uiso   1.00
Cu346  Cu    0.83333   0.45311   0.16667   0.00000  Uiso   1.00
H347   H     0.70347   0.42822   0.14494   0.00000  Uiso   1.00
H348   H     0.82214   0.60831   0.29077   0.00000  Uiso   1.00
H349   H     0.84274   0.66558   0.29405   0.00000  Uiso   1.00
H350   H     0.86474   0.62068   0.03370   0.00000  Uiso   1.00
H351   H     0.88915   0.57818   0.32826   0.00000  Uiso   1.00
H352   H     0.90833   0.63680   0.33155   0.00000  Uiso   1.00
H353   H     0.92773   0.38054   0.19468   0.00000  Uiso   1.00
H354   H     0.92799   0.33983   0.24468   0.00000  Uiso   1.00
H355   H     0.93671   0.40265   0.30585   0.00000  Uiso   1.00
H356   H     0.97678   0.40451   0.26127   0.00000  Uiso   1.00
H357   H     0.93442   0.44531   0.25762   0.00000  Uiso   1.00
H358   H     0.96285   0.57181   0.19112   0.00000  Uiso   1.00
H359   H     0.73768   0.64150   0.07590   0.00000  Uiso   1.00
H360   H     0.74436   0.60719   0.12940   0.00000  Uiso   1.00
H361   H     0.74970   0.57588   0.02037   0.00000  Uiso   1.00
H362   H     0.75420   0.53788   0.07255   0.00000  Uiso   1.00
H363   H     0.70639   0.56755   0.05936   0.00000  Uiso   1.00
H364   H     0.96223   0.42882   0.14203   0.00000  Uiso   1.00
H365   H     0.70450   0.57170   0.19200   0.00000  Uiso   1.00
H366   H     0.76346   0.43156   0.08485   0.00000  Uiso   1.00
H367   H     0.74408   0.37704   0.10281   0.00000  Uiso   1.00
H368   H     0.75676   0.35134   0.01107   0.00000  Uiso   1.00
H369   H     0.71743   0.39500   0.01984   0.00000  Uiso   1.00
H370   H     0.76794   0.41118   0.00011   0.00000  Uiso   1.00
N371   N     0.83333   0.61736   0.16667   0.00000  Uiso   1.00
N372   N     0.83333   0.38264   0.16667   0.00000  Uiso   1.00
O373   O     0.77321   0.53958   0.16666   0.00000  Uiso   1.00
O374   O     0.87064   0.61878   0.24385   0.00000  Uiso   1.00
O375   O     0.87627   0.38316   0.23908   0.00000  Uiso   1.00
O376   O     0.79772   0.61778   0.08802   0.00000  Uiso   1.00
O377   O     0.89345   0.46042   0.16667   0.00000  Uiso   1.00
O378   O     0.89345   0.53958   0.16667   0.00000  Uiso   1.00
O379   O     0.77321   0.46042   0.16666   0.00000  Uiso   1.00
O380   O     0.83333   0.53959   0.09613   0.00000  Uiso   1.00
O381   O     0.83333   0.46041   0.23720   0.00000  Uiso   1.00
O382   O     0.83333   0.53959   0.23720   0.00000  Uiso   1.00
O383   O     0.83333   0.46041   0.09613   0.00000  Uiso   1.00
O384   O     0.80692   0.37889   0.08320   0.00000  Uiso   1.00
C385   C     0.08748   0.83340   0.16736   0.00000  Uiso   1.00
C386   C     0.02154   0.87378   0.18085   0.00000  Uiso   1.00
C387   C     0.29050   0.83348   0.16683   0.00000  Uiso   1.00
C388   C     0.04280   0.83346   0.16776   0.00000  Uiso   1.00
C389   C     0.14813   0.69106   0.12820   0.00000  Uiso   1.00
C390   C     0.18464   0.97562   0.20524   0.00000  Uiso   1.00
C391   C     0.18710   0.69194   0.20332   0.00000  Uiso   1.00
C392   C     0.14696   0.97486   0.12909   0.00000  Uiso   1.00
C393   C     0.09883   0.72732   0.07760   0.00000  Uiso   1.00
C394   C     0.08428   0.72063   0.02391   0.00000  Uiso   1.00
C395   C     0.18440   0.96190   0.28877   0.00000  Uiso   1.00
C396   C     0.24585   0.83333   0.16666   0.00000  Uiso   1.00
C397   C     0.21345   0.94848   0.33158   0.00000  Uiso   1.00
C398   C     0.25224   0.70872   0.23346   0.00000  Uiso   1.00
C399   C     0.27654   0.74245   0.26660   0.00000  Uiso   1.00
C400   C     0.08788   0.94496   0.09113   0.00000  Uiso   1.00
C401   C     0.07384   0.90398   0.05896   0.00000  Uiso   1.00
C402   C     0.16687   0.83317   0.07367   0.00000  Uiso   1.00
C403   C     0.16669   0.83346   0.25968   0.00000  Uiso   1.00
C404   C     0.16669   0.83304   0.02189   0.00000  Uiso   1.00
C405   C     0.16661   0.83343   0.31144   0.00000  Uiso   1.00
C406   C     0.02105   0.79312   0.15474   0.00000  Uiso   1.00
C407   C     0.31216   0.87380   0.18042   0.00000  Uiso   1.00
C408   C     0.31176   0.79329   0.15366   0.00000  Uiso   1.00
Cu409  Cu    0.16667   0.88022   0.16667   0.00000  Uiso   1.00
Cu410  Cu    0.16667   0.78645   0.16667   0.00000  Uiso   1.00
H411   H     0.03681   0.76155   0.14494   0.00000  Uiso   1.00
H412   H     0.15547   0.94164   0.29077   0.00000  Uiso   1.00
H413   H     0.17607   0.99891   0.29405   0.00000  Uiso   1.00
H414   H     0.19807   0.95401   0.03370   0.00000  Uiso   1.00
H415   H     0.22248   0.91151   0.32826   0.00000  Uiso   1.00
H416   H     0.24166   0.97013   0.33155   0.00000  Uiso   1.00
H417   H     0.26106   0.71388   0.19468   0.00000  Uiso   1.00
H418   H     0.26132   0.67316   0.24468   0.00000  Uiso   1.00
H419   H     0.27004   0.73598   0.30585   0.00000  Uiso   1.00
H420   H     0.31011   0.73784   0.26127   0.00000  Uiso   1.00
H421   H     0.26776   0.77865   0.25762   0.00000  Uiso   1.00
H422   H     0.29619   0.90514   0.19112   0.00000  Uiso   1.00
H423   H     0.07101   0.97483   0.07590   0.00000  Uiso   1.00
H424   H     0.07769   0.94052   0.12940   0.00000  Uiso   1.00
H425   H     0.08304   0.90921   0.02037   0.00000  Uiso   1.00
H426   H     0.08753   0.87121   0.07255   0.00000  Uiso   1.00
H427   H     0.03973   0.90088   0.05936   0.00000  Uiso   1.00
H428   H     0.29556   0.76216   0.14203   0.00000  Uiso   1.00
H429   H     0.03783   0.90504   0.19200   0.00000  Uiso   1.00
H430   H     0.09680   0.76489   0.08485   0.00000  Uiso   1.00
H431   H     0.07741   0.71037   0.10281   0.00000  Uiso   1.00
H432   H     0.09010   0.68468   0.01107   0.00000  Uiso   1.00
H433   H     0.05076   0.72834   0.01984   0.00000  Uiso   1.00
H434   H     0.10128   0.74451   0.00011   0.00000  Uiso   1.00
N435   N     0.16667   0.95069   0.16667   0.00000  Uiso   1.00
N436   N     0.16667   0.71598   0.16667   0.00000  Uiso   1.00
O437   O     0.10655   0.87291   0.16666   0.00000  Uiso   1.00
O438   O     0.20397   0.95211   0.24385   0.00000  Uiso   1.00
O439   O     0.20961   0.71649   0.23908   0.00000  Uiso   1.00
O440   O     0.13105   0.95111   0.08802   0.00000  Uiso   1.00
O441   O     0.22679   0.79375   0.16667   0.00000  Uiso   1.00
O442   O     0.22679   0.87291   0.16667   0.00000  Uiso   1.00
O443   O     0.10655   0.79375   0.16666   0.00000  Uiso   1.00
O444   O     0.16667   0.87292   0.09613   0.00000  Uiso   1.00
O445   O     0.16667   0.79375   0.23720   0.00000  Uiso   1.00
O446   O     0.16667   0.87292   0.23720   0.00000  Uiso   1.00
O447   O     0.16667   0.79375   0.09613   0.00000  Uiso   1.00
O448   O     0.14026   0.71222   0.08320   0.00000  Uiso   1.00
C449   C     0.42081   0.83340   0.16736   0.00000  Uiso   1.00
C450   C     0.35487   0.87378   0.18085   0.00000  Uiso   1.00
C451   C     0.62383   0.83348   0.16683   0.00000  Uiso   1.00
C452   C     0.37613   0.83346   0.16776   0.00000  Uiso   1.00
C453   C     0.48147   0.69106   0.12820   0.00000  Uiso   1.00
C454   C     0.51797   0.97562   0.20524   0.00000  Uiso   1.00
C455   C     0.52043   0.69194   0.20332   0.00000  Uiso   1.00
C456   C     0.48029   0.97486   0.12909   0.00000  Uiso   1.00
C457   C     0.43217   0.72732   0.07760   0.00000  Uiso   1.00
C458   C     0.41761   0.72063   0.02391   0.00000  Uiso   1.00
C459   C     0.51773   0.96190   0.28877   0.00000  Uiso   1.00
C460   C     0.57918   0.83333   0.16666   0.00000  Uiso   1.00
C461   C     0.54678   0.94848   0.33158   0.00000  Uiso   1.00
C462   C     0.58557   0.70872   0.23346   0.00000  Uiso   1.00
C463   C     0.60988   0.74245   0.26660   0.00000  Uiso   1.00
C464   C     0.42122   0.94496   0.09113   0.00000  Uiso   1.00
C465   C     0.40717   0.90398   0.05896   0.00000  Uiso   1.00
C466   C     0.50020   0.83317   0.07367   0.00000  Uiso   1.00
C467   C     0.50002   0.83346   0.25968   0.00000  Uiso   1.00
C468   C     0.50002   0.83304   0.02189   0.00000  Uiso   1.00
C469   C     0.49994   0.83343   0.31144   0.00000  Uiso   1.00
C470   C     0.35438   0.79312   0.15474   0.00000  Uiso   1.00
C471   C     0.64550   0.87380   0.18042   0.00000  Uiso   1.00
C472   C     0.64510   0.79329   0.15366   0.00000  Uiso   1.00
Cu473  Cu    0.50000   0.88022   0.16667   0.00000  Uiso   1.00
Cu474  Cu    0.50000   0.78645   0.16667   0.00000  Uiso   1.00
H475   H     0.37014   0.76155   0.14494   0.00000  Uiso   1.00
H476   H     0.48881   0.94164   0.29077   0.00000  Uiso   1.00
H477   H     0.50941   0.99891   0.29405   0.00000  Uiso   1.00
H478   H     0.53141   0.95401   0.03370   0.00000  Uiso   1.00
H479   H     0.55581   0.91151   0.32826   0.00000  Uiso   1.00
H480   H     0.57500   0.97013   0.33155   0.00000  Uiso   1.00
H481   H     0.59439   0.71388   0.19468   0.00000  Uiso   1.00
H482   H     0.59465   0.67316   0.24468   0.00000  Uiso   1.00
H483   H     0.60338   0.73598   0.30585   0.00000  Uiso   1.00
H484   H     0.64344   0.73784   0.26127   0.00000  Uiso   1.00
H485   H     0.60109   0.77865   0.25762   0.00000  Uiso   1.00
H486   H     0.62952   0.90514   0.19112   0.00000  Uiso   1.00
H487   H     0.40434   0.97483   0.07590   0.00000  Uiso   1.00
H488   H     0.41102   0.94052   0.12940   0.00000  Uiso   1.00
H489   H     0.41637   0.90921   0.02037   0.00000  Uiso   1.00
H490   H     0.42087   0.87121   0.07255   0.00000  Uiso   1.00
H491   H     0.37306   0.90088   0.05936   0.00000  Uiso   1.00
H492   H     0.62889   0.76216   0.14203   0.00000  Uiso   1.00
H493   H     0.37116   0.90504   0.19200   0.00000  Uiso   1.00
H494   H     0.43013   0.76489   0.08485   0.00000  Uiso   1.00
H495   H     0.41075   0.71037   0.10281   0.00000  Uiso   1.00
H496   H     0.42343   0.68468   0.01107   0.00000  Uiso   1.00
H497   H     0.38410   0.72834   0.01984   0.00000  Uiso   1.00
H498   H     0.43461   0.74451   0.00011   0.00000  Uiso   1.00
N499   N     0.50000   0.95069   0.16667   0.00000  Uiso   1.00
N500   N     0.50000   0.71598   0.16667   0.00000  Uiso   1.00
O501   O     0.43988   0.87291   0.16666   0.00000  Uiso   1.00
O502   O     0.53730   0.95211   0.24385   0.00000  Uiso   1.00
O503   O     0.54294   0.71649   0.23908   0.00000  Uiso   1.00
O504   O     0.46438   0.95111   0.08802   0.00000  Uiso   1.00
O505   O     0.56012   0.79375   0.16667   0.00000  Uiso   1.00
O506   O     0.56012   0.87291   0.16667   0.00000  Uiso   1.00
O507   O     0.43988   0.79375   0.16666   0.00000  Uiso   1.00
O508   O     0.50000   0.87292   0.09613   0.00000  Uiso   1.00
O509   O     0.50000   0.79375   0.23720   0.00000  Uiso   1.00
O510   O     0.50000   0.87292   0.23720   0.00000  Uiso   1.00
O511   O     0.50000   0.79375   0.09613   0.00000  Uiso   1.00
O512   O     0.47359   0.71222   0.08320   0.00000  Uiso   1.00
C513   C     0.75415   0.83340   0.16736   0.00000  Uiso   1.00
C514   C     0.68821   0.87378   0.18085   0.00000  Uiso   1.00
C515   C     0.95716   0.83348   0.16683   0.00000  Uiso   1.00
C516   C     0.70947   0.83346   0.16776   0.00000  Uiso   1.00
C517   C     0.81480   0.69106   0.12820   0.00000  Uiso   1.00
C518   C     0.85131   0.97562   0.20524   0.00000  Uiso   1.00
C519   C     0.85377   0.69194   0.20332   0.00000  Uiso   1.00
C520   C     0.81362   0.97486   0.12909   0.00000  Uiso   1.00
C521   C     0.76550   0.72732   0.07760   0.00000  Uiso   1.00
C522   C     0.75095   0.72063   0.02391   0.00000  Uiso   1.00
C523   C     0.85107   0.96190   0.28877   0.00000  Uiso   1.00
C524   C     0.91251   0.83333   0.16666   0.00000  Uiso   1.00
C525   C     0.88011   0.94848   0.33158   0.00000  Uiso   1.00
C526   C     0.91891   0.70872   0.23346   0.00000  Uiso   1.00
C527   C     0.94321   0.74245   0.26660   0.00000  Uiso   1.00
C528   C     0.75455   0.94496   0.09113   0.00000  Uiso   1.00
C529   C     0.74051   0.90398   0.05896   0.00000  Uiso   1.00
C530   C     0.83353   0.83317   0.07367   0.00000  Uiso   1.00
C531   C     0.83335   0.83346   0.25968   0.00000  Uiso   1.00
C532   C     0.83335   0.83304   0.02189   0.00000  Uiso   1.00
C533   C     0.83327   0.83343   0.31144   0.00000  Uiso   1.00
C534   C     0.68772   0.79312   0.15474   0.00000  Uiso   1.00
C535   C     0.97883   0.87380   0.18042   0.00000  Uiso   1.00
C536   C     0.97843   0.79329   0.15366   0.00000  Uiso   1.00
Cu537  Cu    0.83333   0.88022   0.16667   0.00000  Uiso   1.00
Cu538  Cu    0.83333   0.78645   0.16667   0.00000  Uiso   1.00
H539   H     0.70347   0.76155   0.14494   0.00000  Uiso   1.00
H540   H     0.82214   0.94164   0.29077   0.00000  Uiso   1.00
H541   H     0.84274   0.99891   0.29405   0.00000  Uiso   1.00
H542   H     0.86474   0.95401   0.03370   0.00000  Uiso   1.00
H543   H     0.88915   0.91151   0.32826   0.00000  Uiso   1.00
H544   H     0.90833   0.97013   0.33155   0.00000  Uiso   1.00
H545   H     0.92773   0.71388   0.19468   0.00000  Uiso   1.00
H546   H     0.92799   0.67316   0.24468   0.00000  Uiso   1.00
H547   H     0.93671   0.73598   0.30585   0.00000  Uiso   1.00
H548   H     0.97678   0.73784   0.26127   0.00000  Uiso   1.00
H549   H     0.93442   0.77865   0.25762   0.00000  Uiso   1.00
H550   H     0.96285   0.90514   0.19112   0.00000  Uiso   1.00
H551   H     0.73768   0.97483   0.07590   0.00000  Uiso   1.00
H552   H     0.74436   0.94052   0.12940   0.00000  Uiso   1.00
H553   H     0.74970   0.90921   0.02037   0.00000  Uiso   1.00
H554   H     0.75420   0.87121   0.07255   0.00000  Uiso   1.00
H555   H     0.70639   0.90088   0.05936   0.00000  Uiso   1.00
H556   H     0.96223   0.76216   0.14203   0.00000  Uiso   1.00
H557   H     0.70450   0.90504   0.19200   0.00000  Uiso   1.00
H558   H     0.76346   0.76489   0.08485   0.00000  Uiso   1.00
H559   H     0.74408   0.71037   0.10281   0.00000  Uiso   1.00
H560   H     0.75676   0.68468   0.01107   0.00000  Uiso   1.00
H561   H     0.71743   0.72834   0.01984   0.00000  Uiso   1.00
H562   H     0.76794   0.74451   0.00011   0.00000  Uiso   1.00
N563   N     0.83333   0.95069   0.16667   0.00000  Uiso   1.00
N564   N     0.83333   0.71598   0.16667   0.00000  Uiso   1.00
O565   O     0.77321   0.87291   0.16666   0.00000  Uiso   1.00
O566   O     0.87064   0.95211   0.24385   0.00000  Uiso   1.00
O567   O     0.87627   0.71649   0.23908   0.00000  Uiso   1.00
O568   O     0.79772   0.95111   0.08802   0.00000  Uiso   1.00
O569   O     0.89345   0.79375   0.16667   0.00000  Uiso   1.00
O570   O     0.89345   0.87291   0.16667   0.00000  Uiso   1.00
O571   O     0.77321   0.79375   0.16666   0.00000  Uiso   1.00
O572   O     0.83333   0.87292   0.09613   0.00000  Uiso   1.00
O573   O     0.83333   0.79375   0.23720   0.00000  Uiso   1.00
O574   O     0.83333   0.87292   0.23720   0.00000  Uiso   1.00
O575   O     0.83333   0.79375   0.09613   0.00000  Uiso   1.00
O576   O     0.80692   0.71222   0.08320   0.00000  Uiso   1.00
C577   C     0.08748   0.16673   0.50069   0.00000  Uiso   1.00
C578   C     0.02154   0.20712   0.51418   0.00000  Uiso   1.00
C579   C     0.29050   0.16682   0.50017   0.00000  Uiso   1.00
C580   C     0.04280   0.16679   0.50109   0.00000  Uiso   1.00
C581   C     0.14813   0.02440   0.46153   0.00000  Uiso   1.00
C582   C     0.18464   0.30895   0.53857   0.00000  Uiso   1.00
C583   C     0.18710   0.02527   0.53665   0.00000  Uiso   1.00
C584   C     0.14696   0.30820   0.46242   0.00000  Uiso   1.00
C585   C     0.09883   0.06065   0.41093   0.00000  Uiso   1.00
C586   C     0.08428   0.05396   0.35725   0.00000  Uiso   1.00
C587   C     0.18440   0.29523   0.62210   0.00000  Uiso   1.00
C588   C     0.24585   0.16666   0.50000   0.00000  Uiso   1.00
C589   C     0.21345   0.28181   0.66492   0.00000  Uiso   1.00
C590   C     0.25224   0.04205   0.56679   0.00000  Uiso   1.00
C591   C     0.27654   0.07579   0.59994   0.00000  Uiso   1.00
C592   C     0.08788   0.27829   0.42446   0.00000  Uiso   1.00
C593   C     0.07384   0.23732   0.39229   0.00000  Uiso   1.00
C594   C     0.16687   0.16650   0.40700   0.00000  Uiso   1.00
C595   C     0.16669   0.16679   0.59301   0.00000  Uiso   1.00
C596   C     0.16669   0.16637   0.35522   0.00000  Uiso   1.00
C597   C     0.16661   0.16676   0.64478   0.00000  Uiso   1.00
C598   C     0.02105   0.12645   0.48808   0.00000  Uiso   1.00
C599   C     0.31216   0.20713   0.51376   0.00000  Uiso   1.00
C600   C     0.31176   0.12662   0.48700   0.00000  Uiso   1.00
Cu601  Cu    0.16667   0.21355   0.50000   0.00000  Uiso   1.00
Cu602  Cu    0.16667   0.11978   0.50000   0.00000  Uiso   1.00
H603   H     0.03681   0.09489   0.47827   0.00000  Uiso   1.00
H604   H     0.15547   0.27497   0.62410   0.00000  Uiso   1.00
H605   H     0.17607   0.33225   0.62738   0.00000  Uiso   1.00
H606   H     0.19807   0.28735   0.36704   0.00000  Uiso   1.00
H607   H     0.22248   0.24484   0.66160   0.00000  Uiso   1.00
H608   H     0.24166   0.30347   0.66488   0.00000  Uiso   1.00
H609   H     0.26106   0.04721   0.52801   0.00000  Uiso   1.00
H610   H     0.26132   0.00650   0.57802   0.00000  Uiso   1.00
H611   H     0.27004   0.06931   0.63918   0.00000  Uiso   1.00
H612   H     0.31011   0.07118   0.59460   0.00000  Uiso   1.00
H613   H     0.26776   0.11198   0.59095   0.00000  Uiso   1.00
H614   H     0.29619   0.23848   0.52445   0.00000  Uiso   1.00
H615   H     0.07101   0.30816   0.40923   0.00000  Uiso   1.00
H616   H     0.07769   0.27385   0.46273   0.00000  Uiso   1.00
H617   H     0.08304   0.24255   0.35370   0.00000  Uiso   1.00
H618   H     0.08753   0.20455   0.40589   0.00000  Uiso   1.00
H619   H     0.03973   0.23422   0.39269   0.00000  Uiso   1.00
H620   H     0.29556   0.09549   0.47537   0.00000  Uiso   1.00
H621   H     0.03783   0.23837   0.52533   0.00000  Uiso   1.00
H622   H     0.09680   0.09823   0.41818   0.00000  Uiso   1.00
H623   H     0.07741   0.04371   0.43614   0.00000  Uiso   1.00
H624   H     0.09010   0.01801   0.34441   0.00000  Uiso   1.00
H625   H     0.05076   0.06167   0.35317   0.00000  Uiso   1.00
H626   H     0.10128   0.07784   0.33344   0.00000  Uiso   1.00
N627   N     0.16667   0.28402   0.50000   0.00000  Uiso   1.00
N628   N     0.16667   0.04931   0.50000   0.00000  Uiso   1.00
O629   O     0.10655   0.20625   0.50000   0.00000  Uiso   1.00
O630   O     0.20397   0.28545   0.57718   0.00000  Uiso   1.00
O631   O     0.20961   0.04983   0.57242   0.00000  Uiso   1.00
O632   O     0.13105   0.28445   0.42135   0.00000  Uiso   1.00
O633   O     0.22679   0.12709   0.50000   0.00000  Uiso   1.00
O634   O     0.22679   0.20625   0.50000   0.00000  Uiso   1.00
O635   O     0.10655   0.12709   0.50000   0.00000  Uiso   1.00
O636   O     0.16667   0.20625   0.42946   0.00000  Uiso   1.00
O637   O     0.16667   0.12708   0.57054   0.00000  Uiso   1.00
O638   O     0.16667   0.20625   0.57054   0.00000  Uiso   1.00
O639   O     0.16667   0.12708   0.42946   0.00000  Uiso   1.00
O640   O     0.14026   0.04555   0.41653   0.00000  Uiso   1.00
C641   C     0.42081   0.16673   0.50069   0.00000  Uiso   1.00
C642   C     0.35487   0.20712   0.51418   0.00000  Uiso   1.00
C643   C     0.62383   0.16682   0.50017   0.00000  Uiso   1.00
C644   C     0.37613   0.16679   0.50109   0.00000  Uiso   1.00
C645   C     0.48147   0.02440   0.46153   0.00000  Uiso   1.00
C646   C     0.51797   0.30895   0.53857   0.00000  Uiso   1.00
C647   C     0.52043   0.02527   0.53665   0.00000  Uiso   1.00
C648   C     0.48029   0.30820   0.46242   0.00000  Uiso   1.00
C649   C     0.43217   0.06065   0.41093   0.00000  Uiso   1.00
C650   C     0.41761   0.05396   0.35725   0.00000  Uiso   1.00
C651   C     0.51773   0.29523   0.62210   0.00000  Uiso   1.00
C652   C     0.57918   0.16666   0.50000   0.00000  Uiso   1.00
C653   C     0.54678   0.28181   0.66492   0.00000  Uiso   1.00
C654   C     0.58557   0.04205   0.56679   0.00000  Uiso   1.00
C655   C     0.60988   0.07579   0.59994   0.00000  Uiso   1.00
C656   C     0.42122   0.27829   0.42446   0.00000  Uiso   1.00
C657   C     0.40717   0.23732   0.39229   0.00000  Uiso   1.00
C658   C     0.50020   0.16650   0.40700   0.00000  Uiso   1.00
C659   C     0.50002   0.16679   0.59301   0.00000  Uiso   1.00
C660   C     0.50002   0.16637   0.35522   0.00000  Uiso   1.00
C661   C     0.49994   0.16676   0.64478   0.00000  Uiso   1.00
C662   C     0.35438   0.12645   0.48808   0.00000  Uiso   1.00
C663   C     0.64550   0.20713   0.51376   0.00000  Uiso   1.00
C664   C     0.64510   0.12662   0.48700   0.00000  Uiso   1.00
Cu665  Cu    0.50000   0.21355   0.50000   0.00000  Uiso   1.00
Cu666  Cu    0.50000   0.11978   0.50000   0.00000  Uiso   1.00
H667   H     0.37014   0.09489   0.47827   0.00000  Uiso   1.00
H668   H     0.48881   0.27497   0.62410   0.00000  Uiso   1.00
H669   H     0.50941   0.33225   0.62738   0.00000  Uiso   1.00
H670   H     0.53141   0.28735   0.36704   0.00000  Uiso   1.00
H671   H     0.55581   0.24484   0.66160   0.00000  Uiso   1.00
H672   H     0.57500   0.30347   0.66488   0.00000  Uiso   1.00
H673   H     0.59439   0.04721   0.52801   0.00000  Uiso   1.00
H674   H     0.59465   0.00650   0.57802   0.00000  Uiso   1.00
H675   H     0.60338   0.06931   0.63918   0.00000  Uiso   1.00
H676   H     0.64344   0.07118   0.59460   0.00000  Uiso   1.00
H677   H     0.60109   0.11198   0.59095   0.00000  Uiso   1.00
H678   H     0.62952   0.23848   0.52445   0.00000  Uiso   1.00
H679   H     0.40434   0.30816   0.40923   0.00000  Uiso   1.00
H680   H     0.41102   0.27385   0.46273   0.00000  Uiso   1.00
H681   H     0.41637   0.24255   0.35370   0.00000  Uiso   1.00
H682   H     0.42087   0.20455   0.40589   0.00000  Uiso   1.00
H683   H     0.37306   0.23422   0.39269   0.00000  Uiso   1.00
H684   H     0.62889   0.09549   0.47537   0.00000  Uiso   1.00
H685   H     0.37116   0.23837   0.52533   0.00000  Uiso   1.00
H686   H     0.43013   0.09823   0.41818   0.00000  Uiso   1.00
H687   H     0.41075   0.04371   0.43614   0.00000  Uiso   1.00
H688   H     0.42343   0.01801   0.34441   0.00000  Uiso   1.00
H689   H     0.38410   0.06167   0.35317   0.00000  Uiso   1.00
H690   H     0.43461   0.07784   0.33344   0.00000  Uiso   1.00
N691   N     0.50000   0.28402   0.50000   0.00000  Uiso   1.00
N692   N     0.50000   0.04931   0.50000   0.00000  Uiso   1.00
O693   O     0.43988   0.20625   0.50000   0.00000  Uiso   1.00
O694   O     0.53730   0.28545   0.57718   0.00000  Uiso   1.00
O695   O     0.54294   0.04983   0.57242   0.00000  Uiso   1.00
O696   O     0.46438   0.28445   0.42135   0.00000  Uiso   1.00
O697   O     0.56012   0.12709   0.50000   0.00000  Uiso   1.00
O698   O     0.56012   0.20625   0.50000   0.00000  Uiso   1.00
O699   O     0.43988   0.12709   0.50000   0.00000  Uiso   1.00
O700   O     0.50000   0.20625   0.42946   0.00000  Uiso   1.00
O701   O     0.50000   0.12708   0.57054   0.00000  Uiso   1.00
O702   O     0.50000   0.20625   0.57054   0.00000  Uiso   1.00
O703   O     0.50000   0.12708   0.42946   0.00000  Uiso   1.00
O704   O     0.47359   0.04555   0.41653   0.00000  Uiso   1.00
C705   C     0.75415   0.16673   0.50069   0.00000  Uiso   1.00
C706   C     0.68821   0.20712   0.51418   0.00000  Uiso   1.00
C707   C     0.95716   0.16682   0.50017   0.00000  Uiso   1.00
C708   C     0.70947   0.16679   0.50109   0.00000  Uiso   1.00
C709   C     0.81480   0.02440   0.46153   0.00000  Uiso   1.00
C710   C     0.85131   0.30895   0.53857   0.00000  Uiso   1.00
C711   C     0.85377   0.02527   0.53665   0.00000  Uiso   1.00
C712   C     0.81362   0.30820   0.46242   0.00000  Uiso   1.00
C713   C     0.76550   0.06065   0.41093   0.00000  Uiso   1.00
C714   C     0.75095   0.05396   0.35725   0.00000  Uiso   1.00
C715   C     0.85107   0.29523   0.62210   0.00000  Uiso   1.00
C716   C     0.91251   0.16666   0.50000   0.00000  Uiso   1.00
C717   C     0.88011   0.28181   0.66492   0.00000  Uiso   1.00
C718   C     0.91891   0.04205   0.56679   0.00000  Uiso   1.00
C719   C     0.94321   0.07579   0.59994   0.00000  Uiso   1.00
C720   C     0.75455   0.27829   0.42446   0.00000  Uiso   1.00
C721   C     0.74051   0.23732   0.39229   0.00000  Uiso   1.00
C722   C     0.83353   0.16650   0.40700   0.00000  Uiso   1.00
C723   C     0.83335   0.16679   0.59301   0.00000  Uiso   1.00
C724   C     0.83335   0.16637   0.35522   0.00000  Uiso   1.00
C725   C     0.83327   0.16676   0.64478   0.00000  Uiso   1.00
C726   C     0.68772   0.12645   0.48808   0.00000  Uiso   1.00
C727   C     0.97883   0.20713   0.51376   0.00000  Uiso   1.00
C728   C     0.97843   0.12662   0.48700   0.00000  Uiso   1.00
Cu729  Cu    0.83333   0.21355   0.50000   0.00000  Uiso   1.00
Cu730  Cu    0.83333   0.11978   0.50000   0.00000  Uiso   1.00
H731   H     0.70347   0.09489   0.47827   0.00000  Uiso   1.00
H732   H     0.82214   0.27497   0.62410   0.00000  Uiso   1.00
H733   H     0.84274   0.33225   0.62738   0.00000  Uiso   1.00
H734   H     0.86474   0.28735   0.36704   0.00000  Uiso   1.00
H735   H     0.88915   0.24484   0.66160   0.00000  Uiso   1.00
H736   H     0.90833   0.30347   0.66488   0.00000  Uiso   1.00
H737   H     0.92773   0.04721   0.52801   0.00000  Uiso   1.00
H738   H     0.92799   0.00650   0.57802   0.00000  Uiso   1.00
H739   H     0.93671   0.06931   0.63918   0.00000  Uiso   1.00
H740   H     0.97678   0.07118   0.59460   0.00000  Uiso   1.00
H741   H     0.93442   0.11198   0.59095   0.00000  Uiso   1.00
H742   H     0.96285   0.23848   0.52445   0.00000  Uiso   1.00
H743   H     0.73768   0.30816   0.40923   0.00000  Uiso   1.00
H744   H     0.74436   0.27385   0.46273   0.00000  Uiso   1.00
H745   H     0.74970   0.24255   0.35370   0.00000  Uiso   1.00
H746   H     0.75420   0.20455   0.40589   0.00000  Uiso   1.00
H747   H     0.70639   0.23422   0.39269   0.00000  Uiso   1.00
H748   H     0.96223   0.09549   0.47537   0.00000  Uiso   1.00
H749   H     0.70450   0.23837   0.52533   0.00000  Uiso   1.00
H750   H     0.76346   0.09823   0.41818   0.00000  Uiso   1.00
H751   H     0.74408   0.04371   0.43614   0.00000  Uiso   1.00
H752   H     0.75676   0.01801   0.34441   0.00000  Uiso   1.00
H753   H     0.71743   0.06167   0.35317   0.00000  Uiso   1.00
H754   H     0.76794   0.07784   0.33344   0.00000  Uiso   1.00
N755   N     0.83333   0.28402   0.50000   0.00000  Uiso   1.00
N756   N     0.83333   0.04931   0.50000   0.00000  Uiso   1.00
O757   O     0.77321   0.20625   0.50000   0.00000  Uiso   1.00
O758   O     0.87064   0.28545   0.57718   0.00000  Uiso   1.00
O759   O     0.87627   0.04983   0.57242   0.00000  Uiso   1.00
O760   O     0.79772   0.28445   0.42135   0.00000  Uiso   1.00
O761   O     0.89345   0.12709   0.50000   0.00000  Uiso   1.00
O762   O     0.89345   0.20625   0.50000   0.00000  Uiso   1.00
O763   O     0.77321   0.12709   0.50000   0.00000  Uiso   1.00
O764   O     0.83333   0.20625   0.42946   0.00000  Uiso   1.00
O765   O     0.83333   0.12708   0.57054   0.00000  Uiso   1.00
O766   O     0.83333   0.20625   0.57054   0.00000  Uiso   1.00
O767   O     0.83333   0.12708   0.42946   0.00000  Uiso   1.00
O768   O     0.80692   0.04555   0.41653   0.00000  Uiso   1.00
C769   C     0.08748   0.50006   0.50069   0.00000  Uiso   1.00
C770   C     0.02154   0.54045   0.51418   0.00000  Uiso   1.00
C771   C     0.29050   0.50015   0.50017   0.00000  Uiso   1.00
C772   C     0.04280   0.50012   0.50109   0.00000  Uiso   1.00
C773   C     0.14813   0.35773   0.46153   0.00000  Uiso   1.00
C774   C     0.18464   0.64229   0.53857   0.00000  Uiso   1.00
C775   C     0.18710   0.35860   0.53665   0.00000  Uiso   1.00
C776   C     0.14696   0.64153   0.46242   0.00000  Uiso   1.00
C777   C     0.09883   0.39399   0.41093   0.00000  Uiso   1.00
C778   C     0.08428   0.38730   0.35725   0.00000  Uiso   1.00
C779   C     0.18440   0.62856   0.62210   0.00000  Uiso   1.00
C780   C     0.24585   0.49999   0.50000   0.00000  Uiso   1.00
C781   C     0.21345   0.61514   0.66492   0.00000  Uiso   1.00
C782   C     0.25224   0.37539   0.56679   0.00000  Uiso   1.00
C783   C     0.27654   0.40912   0.59994   0.00000  Uiso   1.00
C784   C     0.08788   0.61163   0.42446   0.00000  Uiso   1.00
C785   C     0.07384   0.57065   0.39229   0.00000  Uiso   1.00
C786   C     0.16687   0.49983   0.40700   0.00000  Uiso   1.00
C787   C     0.16669   0.50013   0.59301   0.00000  Uiso   1.00
C788   C     0.16669   0.49970   0.35522   0.00000  Uiso   1.00
C789   C     0.16661   0.50010   0.64478   0.00000  Uiso   1.00
C790   C     0.02105   0.45979   0.48808   0.00000  Uiso   1.00
C791   C     0.31216   0.54047   0.51376   0.00000  Uiso   1.00
C792   C     0.31176   0.45995   0.48700   0.00000  Uiso   1.00
Cu793  Cu    0.16667   0.54689   0.50000   0.00000  Uiso   1.00
Cu794  Cu    0.16667   0.45311   0.50000   0.00000  Uiso   1.00
H795   H     0.03681   0.42822   0.47827   0.00000  Uiso   1.00
H796   H     0.15547   0.60831   0.62410   0.00000  Uiso   1.00
H797   H     0.17607   0.66558   0.62738   0.00000  Uiso   1.00
H798   H     0.19807   0.62068   0.36704   0.00000  Uiso   1.00
H799   H     0.22248   0.57818   0.66160   0.00000  Uiso   1.00
H800   H     0.24166   0.63680   0.66488   0.00000  Uiso   1.00
H801   H     0.26106   0.38054   0.52801   0.00000  Uiso   1.00
H802   H     0.26132   0.33983   0.57802   0.00000  Uiso   1.00
H803   H     0.27004   0.40265   0.63918   0.00000  Uiso   1.00
H804   H     0.31011   0.40451   0.59460   0.00000  Uiso   1.00
H805   H     0.26776   0.44531   0.59095   0.00000  Uiso   1.00
H806   H     0.29619   0.57181   0.52445   0.00000  Uiso   1.00
H807   H     0.07101   0.64150   0.40923   0.00000  Uiso   1.00
H808   H     0.07769   0.60719   0.46273   0.00000  Uiso   1.00
H809   H     0.08304   0.57588   0.35370   0.00000  Uiso   1.00
H810   H     0.08753   0.53788   0.40589   0.00000  Uiso   1.00
H811   H     0.03973   0.56755   0.39269   0.00000  Uiso   1.00
H812   H     0.29556   0.42882   0.47537   0.00000  Uiso   1.00
H813   H     0.03783   0.57170   0.52533   0.00000  Uiso   1.00
H814   H     0.09680   0.43156   0.41818   0.00000  Uiso   1.00
H815   H     0.07741   0.37704   0.43614   0.00000  Uiso   1.00
H816   H     0.09010   0.35134   0.34441   0.00000  Uiso   1.00
H817   H     0.05076   0.39500   0.35317   0.00000  Uiso   1.00
H818   H     0.10128   0.41118   0.33344   0.00000  Uiso   1.00
N819   N     0.16667   0.61736   0.50000   0.00000  Uiso   1.00
N820   N     0.16667   0.38264   0.50000   0.00000  Uiso   1.00
O821   O     0.10655   0.53958   0.50000   0.00000  Uiso   1.00
O822   O     0.20397   0.61878   0.57718   0.00000  Uiso   1.00
O823   O     0.20961   0.38316   0.57242   0.00000  Uiso   1.00
O824   O     0.13105   0.61778   0.42135   0.00000  Uiso   1.00
O825   O     0.22679   0.46042   0.50000   0.00000  Uiso   1.00
O826   O     0.22679   0.53958   0.50000   0.00000  Uiso   1.00
O827   O     0.10655   0.46042   0.50000   0.00000  Uiso   1.00
O828   O     0.16667   0.53959   0.42946   0.00000  Uiso   1.00
O829   O     0.16667   0.46041   0.57054   0.00000  Uiso   1.00
O830   O     0.16667   0.53959   0.57054   0.00000  Uiso   1.00
O831   O     0.16667   0.46041   0.42946   0.00000  Uiso   1.00
O832   O     0.14026   0.37889   0.41653   0.00000  Uiso   1.00
C833   C     0.42081   0.50006   0.50069   0.00000  Uiso   1.00
C834   C     0.35487   0.54045   0.51418   0.00000  Uiso   1.00
C835   C     0.62383   0.50015   0.50017   0.00000  Uiso   1.00
C836   C     0.37613   0.50012   0.50109   0.00000  Uiso   1.00
C837   C     0.48147   0.35773   0.46153   0.00000  Uiso   1.00
C838   C     0.51797   0.64229   0.53857   0.00000  Uiso   1.00
C839   C     0.52043   0.35860   0.53665   0.00000  Uiso   1.00
C840   C     0.48029   0.64153   0.46242   0.00000  Uiso   1.00
C841   C     0.43217   0.39399   0.41093   0.00000  Uiso   1.00
C842   C     0.41761   0.38730   0.35725   0.00000  Uiso   1.00
C843   C     0.51773   0.62856   0.62210   0.00000  Uiso   1.00
C844   C     0.57918   0.49999   0.50000   0.00000  Uiso   1.00
C845   C     0.54678   0.61514   0.66492   0.00000  Uiso   1.00
C846   C     0.58557   0.37539   0.56679   0.00000  Uiso   1.00
C847   C     0.60988   0.40912   0.59994   0.00000  Uiso   1.00
C848   C     0.42122   0.61163   0.42446   0.00000  Uiso   1.00
C849   C     0.40717   0.57065   0.39229   0.00000  Uiso   1.00
C850   C     0.50020   0.49983   0.40700   0.00000  Uiso   1.00
C851   C     0.50002   0.50013   0.59301   0.00000  Uiso   1.00
C852   C     0.50002   0.49970   0.35522   0.00000  Uiso   1.00
C853   C     0.49994   0.50010   0.64478   0.00000  Uiso   1.00
C854   C     0.35438   0.45979   0.48808   0.00000  Uiso   1.00
C855   C     0.64550   0.54047   0.51376   0.00000  Uiso   1.00
C856   C     0.64510   0.45995   0.48700   0.00000  Uiso   1.00
Cu857  Cu    0.50000   0.54689   0.50000   0.00000  Uiso   1.00
Cu858  Cu    0.50000   0.45311   0.50000   0.00000  Uiso   1.00
H859   H     0.37014   0.42822   0.47827   0.00000  Uiso   1.00
H860   H     0.48881   0.60831   0.62410   0.00000  Uiso   1.00
H861   H     0.50941   0.66558   0.62738   0.00000  Uiso   1.00
H862   H     0.53141   0.62068   0.36704   0.00000  Uiso   1.00
H863   H     0.55581   0.57818   0.66160   0.00000  Uiso   1.00
H864   H     0.57500   0.63680   0.66488   0.00000  Uiso   1.00
H865   H     0.59439   0.38054   0.52801   0.00000  Uiso   1.00
H866   H     0.59465   0.33983   0.57802   0.00000  Uiso   1.00
H867   H     0.60338   0.40265   0.63918   0.00000  Uiso   1.00
H868   H     0.64344   0.40451   0.59460   0.00000  Uiso   1.00
H869   H     0.60109   0.44531   0.59095   0.00000  Uiso   1.00
H870   H     0.62952   0.57181   0.52445   0.00000  Uiso   1.00
H871   H     0.40434   0.64150   0.40923   0.00000  Uiso   1.00
H872   H     0.41102   0.60719   0.46273   0.00000  Uiso   1.00
H873   H     0.41637   0.57588   0.35370   0.00000  Uiso   1.00
H874   H     0.42087   0.53788   0.40589   0.00000  Uiso   1.00
H875   H     0.37306   0.56755   0.39269   0.00000  Uiso   1.00
H876   H     0.62889   0.42882   0.47537   0.00000  Uiso   1.00
H877   H     0.37116   0.57170   0.52533   0.00000  Uiso   1.00
H878   H     0.43013   0.43156   0.41818   0.00000  Uiso   1.00
H879   H     0.41075   0.37704   0.43614   0.00000  Uiso   1.00
H880   H     0.42343   0.35134   0.34441   0.00000  Uiso   1.00
H881   H     0.38410   0.39500   0.35317   0.00000  Uiso   1.00
H882   H     0.43461   0.41118   0.33344   0.00000  Uiso   1.00
N883   N     0.50000   0.61736   0.50000   0.00000  Uiso   1.00
N884   N     0.50000   0.38264   0.50000   0.00000  Uiso   1.00
O885   O     0.43988   0.53958   0.50000   0.00000  Uiso   1.00
O886   O     0.53730   0.61878   0.57718   0.00000  Uiso   1.00
O887   O     0.54294   0.38316   0.57242   0.00000  Uiso   1.00
O888   O     0.46438   0.61778   0.42135   0.00000  Uiso   1.00
O889   O     0.56012   0.46042   0.50000   0.00000  Uiso   1.00
O890   O     0.56012   0.53958   0.50000   0.00000  Uiso   1.00
O891   O     0.43988   0.46042   0.50000   0.00000  Uiso   1.00
O892   O     0.50000   0.53959   0.42946   0.00000  Uiso   1.00
O893   O     0.50000   0.46041   0.57054   0.00000  Uiso   1.00
O894   O     0.50000   0.53959   0.57054   0.00000  Uiso   1.00
O895   O     0.50000   0.46041   0.42946   0.00000  Uiso   1.00
O896   O     0.47359   0.37889   0.41653   0.00000  Uiso   1.00
C897   C     0.75415   0.50006   0.50069   0.00000  Uiso   1.00
C898   C     0.68821   0.54045   0.51418   0.00000  Uiso   1.00
C899   C     0.95716   0.50015   0.50017   0.00000  Uiso   1.00
C900   C     0.70947   0.50012   0.50109   0.00000  Uiso   1.00
C901   C     0.81480   0.35773   0.46153   0.00000  Uiso   1.00
C902   C     0.85131   0.64229   0.53857   0.00000  Uiso   1.00
C903   C     0.85377   0.35860   0.53665   0.00000  Uiso   1.00
C904   C     0.81362   0.64153   0.46242   0.00000  Uiso   1.00
C905   C     0.76550   0.39399   0.41093   0.00000  Uiso   1.00
C906   C     0.75095   0.38730   0.35725   0.00000  Uiso   1.00
C907   C     0.85107   0.62856   0.62210   0.00000  Uiso   1.00
C908   C     0.91251   0.49999   0.50000   0.00000  Uiso   1.00
C909   C     0.88011   0.61514   0.66492   0.00000  Uiso   1.00
C910   C     0.91891   0.37539   0.56679   0.00000  Uiso   1.00
C911   C     0.94321   0.40912   0.59994   0.00000  Uiso   1.00
C912   C     0.75455   0.61163   0.42446   0.00000  Uiso   1.00
C913   C     0.74051   0.57065   0.39229   0.00000  Uiso   1.00
C914   C     0.83353   0.49983   0.40700   0.00000  Uiso   1.00
C915   C     0.83335   0.50013   0.59301   0.00000  Uiso   1.00
C916   C     0.83335   0.49970   0.35522   0.00000  Uiso   1.00
C917   C     0.83327   0.50010   0.64478   0.00000  Uiso   1.00
C918   C     0.68772   0.45979   0.48808   0.00000  Uiso   1.00
C919   C     0.97883   0.54047   0.51376   0.00000  Uiso   1.00
C920   C     0.97843   0.45995   0.48700   0.00000  Uiso   1.00
Cu921  Cu    0.83333   0.54689   0.50000   0.00000  Uiso   1.00
Cu922  Cu    0.83333   0.45311   0.50000   0.00000  Uiso   1.00
H923   H     0.70347   0.42822   0.47827   0.00000  Uiso   1.00
H924   H     0.82214   0.60831   0.62410   0.00000  Uiso   1.00
H925   H     0.84274   0.66558   0.62738   0.00000  Uiso   1.00
H926   H     0.86474   0.62068   0.36704   0.00000  Uiso   1.00
H927   H     0.88915   0.57818   0.66160   0.00000  Uiso   1.00
H928   H     0.90833   0.63680   0.66488   0.00000  Uiso   1.00
H929   H     0.92773   0.38054   0.52801   0.00000  Uiso   1.00
H930   H     0.92799   0.33983   0.57802   0.00000  Uiso   1.00
H931   H     0.93671   0.40265   0.63918   0.00000  Uiso   1.00
H932   H     0.97678   0.40451   0.59460   0.00000  Uiso   1.00
H933   H     0.93442   0.44531   0.59095   0.00000  Uiso   1.00
H934   H     0.96285   0.57181   0.52445   0.00000  Uiso   1.00
H935   H     0.73768   0.64150   0.40923   0.00000  Uiso   1.00
H936   H     0.74436   0.60719   0.46273   0.00000  Uiso   1.00
H937   H     0.74970   0.57588   0.35370   0.00000  Uiso   1.00
H938   H     0.75420   0.53788   0.40589   0.00000  Uiso   1.00
H939   H     0.70639   0.56755   0.39269   0.00000  Uiso   1.00
H940   H     0.96223   0.42882   0.47537   0.00000  Uiso   1.00
H941   H     0.70450   0.57170   0.52533   0.00000  Uiso   1.00
H942   H     0.76346   0.43156   0.41818   0.00000  Uiso   1.00
H943   H     0.74408   0.37704   0.43614   0.00000  Uiso   1.00
H944   H     0.75676   0.35134   0.34441   0.00000  Uiso   1.00
H945   H     0.71743   0.39500   0.35317   0.00000  Uiso   1.00
H946   H     0.76794   0.41118   0.33344   0.00000  Uiso   1.00
N947   N     0.83333   0.61736   0.50000   0.00000  Uiso   1.00
N948   N     0.83333   0.38264   0.50000   0.00000  Uiso   1.00
O949   O     0.77321   0.53958   0.50000   0.00000  Uiso   1.00
O950   O     0.87064   0.61878   0.57718   0.00000  Uiso   1.00
O951   O     0.87627   0.38316   0.57242   0.00000  Uiso   1.00
O952   O     0.79772   0.61778   0.42135   0.00000  Uiso   1.00
O953   O     0.89345   0.46042   0.50000   0.00000  Uiso   1.00
O954   O     0.89345   0.53958   0.50000   0.00000  Uiso   1.00
O955   O     0.77321   0.46042   0.50000   0.00000  Uiso   1.00
O956   O     0.83333   0.53959   0.42946   0.00000  Uiso   1.00
O957   O     0.83333   0.46041   0.57054   0.00000  Uiso   1.00
O958   O     0.83333   0.53959   0.57054   0.00000  Uiso   1.00
O959   O     0.83333   0.46041   0.42946   0.00000  Uiso   1.00
O960   O     0.80692   0.37889   0.41653   0.00000  Uiso   1.00
C961   C     0.08748   0.83340   0.50069   0.00000  Uiso   1.00
C962   C     0.02154   0.87378   0.51418   0.00000  Uiso   1.00
C963   C     0.29050   0.83348   0.50017   0.00000  Uiso   1.00
C964   C     0.04280   0.83346   0.50109   0.00000  Uiso   1.00
C965   C     0.14813   0.69106   0.46153   0.00000  Uiso   1.00
C966   C     0.18464   0.97562   0.53857   0.00000  Uiso   1.00
C967   C     0.18710   0.69194   0.53665   0.00000  Uiso   1.00
C968   C     0.14696   0.97486   0.46242   0.00000  Uiso   1.00
C969   C     0.09883   0.72732   0.41093   0.00000  Uiso   1.00
C970   C     0.08428   0.72063   0.35725   0.00000  Uiso   1.00
C971   C     0.18440   0.96190   0.62210   0.00000  Uiso   1.00
C972   C     0.24585   0.83333   0.50000   0.00000  Uiso   1.00
C973   C     0.21345   0.94848   0.66492   0.00000  Uiso   1.00
C974   C     0.25224   0.70872   0.56679   0.00000  Uiso   1.00
C975   C     0.27654   0.74245   0.59994   0.00000  Uiso   1.00
C976   C     0.08788   0.94496   0.42446   0.00000  Uiso   1.00
C977   C     0.07384   0.90398   0.39229   0.00000  Uiso   1.00
C978   C     0.16687   0.83317   0.40700   0.00000  Uiso   1.00
C979   C     0.16669   0.83346   0.59301   0.00000  Uiso   1.00
C980   C     0.16669   0.83304   0.35522   0.00000  Uiso   1.00
C981   C     0.16661   0.83343   0.64478   0.00000  Uiso   1.00
C982   C     0.02105   0.79312   0.48808   0.00000  Uiso   1.00
C983   C     0.31216   0.87380   0.51376   0.00000  Uiso   1.00
C984   C     0.31176   0.79329   0.48700   0.00000  Uiso   1.00
Cu985  Cu    0.16667   0.88022   0.50000   0.00000  Uiso   1.00
Cu986  Cu    0.16667   0.78645   0.50000   0.00000  Uiso   1.00
H987   H     0.03681   0.76155   0.47827   0.00000  Uiso   1.00
H988   H     0.15547   0.94164   0.62410   0.00000  Uiso   1.00
H989   H     0.17607   0.99891   0.62738   0.00000  Uiso   1.00
H990   H     0.19807   0.95401   0.36704   0.00000  Uiso   1.00
H991   H     0.22248   0.91151   0.66160   0.00000  Uiso   1.00
H992   H     0.24166   0.97013   0.66488   0.00000  Uiso   1.00
H993   H     0.26106   0.71388   0.52801   0.00000  Uiso   1.00
H994   H     0.26132   0.67316   0.57802   0.00000  Uiso   1.00
H995   H     0.27004   0.73598   0.63918   0.00000  Uiso   1.00
H996   H     0.31011   0.73784   0.59460   0.00000  Uiso   1.00
H997   H     0.26776   0.77865   0.59095   0.00000  Uiso   1.00
H998   H     0.29619   0.90514   0.52445   0.00000  Uiso   1.00
H999   H     0.07101   0.97483   0.40923   0.00000  Uiso   1.00
H1000  H     0.07769   0.94052   0.46273   0.00000  Uiso   1.00
H1001  H     0.08304   0.90921   0.35370   0.00000  Uiso   1.00
H1002  H     0.08753   0.87121   0.40589   0.00000  Uiso   1.00
H1003  H     0.03973   0.90088   0.39269   0.00000  Uiso   1.00
H1004  H     0.29556   0.76216   0.47537   0.00000  Uiso   1.00
H1005  H     0.03783   0.90504   0.52533   0.00000  Uiso   1.00
H1006  H     0.09680   0.76489   0.41818   0.00000  Uiso   1.00
H1007  H     0.07741   0.71037   0.43614   0.00000  Uiso   1.00
H1008  H     0.09010   0.68468   0.34441   0.00000  Uiso   1.00
H1009  H     0.05076   0.72834   0.35317   0.00000  Uiso   1.00
H1010  H     0.10128   0.74451   0.33344   0.00000  Uiso   1.00
N1011  N     0.16667   0.95069   0.50000   0.00000  Uiso   1.00
N1012  N     0.16667   0.71598   0.50000   0.00000  Uiso   1.00
O1013  O     0.10655   0.87291   0.50000   0.00000  Uiso   1.00
O1014  O     0.20397   0.95211   0.57718   0.00000  Uiso   1.00
O1015  O     0.20961   0.71649   0.57242   0.00000  Uiso   1.00
O1016  O     0.13105   0.95111   0.42135   0.00000  Uiso   1.00
O1017  O     0.22679   0.79375   0.50000   0.00000  Uiso   1.00
O1018  O     0.22679   0.87291   0.50000   0.00000  Uiso   1.00
O1019  O     0.10655   0.79375   0.50000   0.00000  Uiso   1.00
O1020  O     0.16667   0.87292   0.42946   0.00000  Uiso   1.00
O1021  O     0.16667   0.79375   0.57054   0.00000  Uiso   1.00
O1022  O     0.16667   0.87292   0.57054   0.00000  Uiso   1.00
O1023  O     0.16667   0.79375   0.42946   0.00000  Uiso   1.00
O1024  O     0.14026   0.71222   0.41653   0.00000  Uiso   1.00
C1025  C     0.42081   0.83340   0.50069   0.00000  Uiso   1.00
C1026  C     0.35487   0.87378   0.51418   0.00000  Uiso   1.00
C1027  C     0.62383   0.83348   0.50017   0.00000  Uiso   1.00
C1028  C     0.37613   0.83346   0.50109   0.00000  Uiso   1.00
C1029  C     0.48147   0.69106   0.46153   0.00000  Uiso   1.00
C1030  C     0.51797   0.97562   0.53857   0.00000  Uiso   1.00
C1031  C     0.52043   0.69194   0.53665   0.00000  Uiso   1.00
C1032  C     0.48029   0.97486   0.46242   0.00000  Uiso   1.00
C1033  C     0.43217   0.72732   0.41093   0.00000  Uiso   1.00
C1034  C     0.41761   0.72063   0.35725   0.00000  Uiso   1.00
C1035  C     0.51773   0.96190   0.62210   0.00000  Uiso   1.00
C1036  C     0.57918   0.83333   0.50000   0.00000  Uiso   1.00
C1037  C     0.54678   0.94848   0.66492   0.00000  Uiso   1.00
C1038  C     0.58557   0.70872   0.56679   0.00000  Uiso   1.00
C1039  C     0.60988   0.74245   0.59994   0.00000  Uiso   1.00
C1040  C     0.42122   0.94496   0.42446   0.00000  Uiso   1.00
C1041  C     0.40717   0.90398   0.39229   0.00000  Uiso   1.00
C1042  C     0.50020   0.83317   0.40700   0.00000  Uiso   1.00
C1043  C     0.50002   0.83346   0.59301   0.00000  Uiso   1.00
C1044  C     0.50002   0.83304   0.35522   0.00000  Uiso   1.00
C1045  C     0.49994   0.83343   0.64478   0.00000  Uiso   1.00
C1046  C     0.35438   0.79312   0.48808   0.00000  Uiso   1.00
C1047  C     0.64550   0.87380   0.51376   0.00000  Uiso   1.00
C1048  C     0.64510   0.79329   0.48700   0.00000  Uiso   1.00
Cu1049 Cu    0.50000   0.88022   0.50000   0.00000  Uiso   1.00
Cu1050 Cu    0.50000   0.78645   0.50000   0.00000  Uiso   1.00
H1051  H     0.37014   0.76155   0.47827   0.00000  Uiso   1.00
H1052  H     0.48881   0.94164   0.62410   0.00000  Uiso   1.00
H1053  H     0.50941   0.99891   0.62738   0.00000  Uiso   1.00
H1054  H     0.53141   0.95401   0.36704   0.00000  Uiso   1.00
H1055  H     0.55581   0.91151   0.66160   0.00000  Uiso   1.00
H1056  H     0.57500   0.97013   0.66488   0.00000  Uiso   1.00
H1057  H     0.59439   0.71388   0.52801   0.00000  Uiso   1.00
H1058  H     0.59465   0.67316   0.57802   0.00000  Uiso   1.00
H1059  H     0.60338   0.73598   0.63918   0.00000  Uiso   1.00
H1060  H     0.64344   0.73784   0.59460   0.00000  Uiso   1.00
H1061  H     0.60109   0.77865   0.59095   0.00000  Uiso   1.00
H1062  H     0.62952   0.90514   0.52445   0.00000  Uiso   1.00
H1063  H     0.40434   0.97483   0.40923   0.00000  Uiso   1.00
H1064  H     0.41102   0.94052   0.46273   0.00000  Uiso   1.00
H1065  H     0.41637   0.90921   0.35370   0.00000  Uiso   1.00
H1066  H     0.42087   0.87121   0.40589   0.00000  Uiso   1.00
H1067  H     0.37306   0.90088   0.39269   0.00000  Uiso   1.00
H1068  H     0.62889   0.76216   0.47537   0.00000  Uiso   1.00
H1069  H     0.37116   0.90504   0.52533   0.00000  Uiso   1.00
H1070  H     0.43013   0.76489   0.41818   0.00000  Uiso   1.00
H1071  H     0.41075   0.71037   0.43614   0.00000  Uiso   1.00
H1072  H     0.42343   0.68468   0.34441   0.00000  Uiso   1.00
H1073  H     0.38410   0.72834   0.35317   0.00000  Uiso   1.00
H1074  H     0.43461   0.74451   0.33344   0.00000  Uiso   1.00
N1075  N     0.50000   0.95069   0.50000   0.00000  Uiso   1.00
N1076  N     0.50000   0.71598   0.50000   0.00000  Uiso   1.00
O1077  O     0.43988   0.87291   0.50000   0.00000  Uiso   1.00
O1078  O     0.53730   0.95211   0.57718   0.00000  Uiso   1.00
O1079  O     0.54294   0.71649   0.57242   0.00000  Uiso   1.00
O1080  O     0.46438   0.95111   0.42135   0.00000  Uiso   1.00
O1081  O     0.56012   0.79375   0.50000   0.00000  Uiso   1.00
O1082  O     0.56012   0.87291   0.50000   0.00000  Uiso   1.00
O1083  O     0.43988   0.79375   0.50000   0.00000  Uiso   1.00
O1084  O     0.50000   0.87292   0.42946   0.00000  Uiso   1.00
O1085  O     0.50000   0.79375   0.57054   0.00000  Uiso   1.00
O1086  O     0.50000   0.87292   0.57054   0.00000  Uiso   1.00
O1087  O     0.50000   0.79375   0.42946   0.00000  Uiso   1.00
O1088  O     0.47359   0.71222   0.41653   0.00000  Uiso   1.00
C1089  C     0.75415   0.83340   0.50069   0.00000  Uiso   1.00
C1090  C     0.68821   0.87378   0.51418   0.00000  Uiso   1.00
C1091  C     0.95716   0.83348   0.50017   0.00000  Uiso   1.00
C1092  C     0.70947   0.83346   0.50109   0.00000  Uiso   1.00
C1093  C     0.81480   0.69106   0.46153   0.00000  Uiso   1.00
C1094  C     0.85131   0.97562   0.53857   0.00000  Uiso   1.00
C1095  C     0.85377   0.69194   0.53665   0.00000  Uiso   1.00
C1096  C     0.81362   0.97486   0.46242   0.00000  Uiso   1.00
C1097  C     0.76550   0.72732   0.41093   0.00000  Uiso   1.00
C1098  C     0.75095   0.72063   0.35725   0.00000  Uiso   1.00
C1099  C     0.85107   0.96190   0.62210   0.00000  Uiso   1.00
C1100  C     0.91251   0.83333   0.50000   0.00000  Uiso   1.00
C1101  C     0.88011   0.94848   0.66492   0.00000  Uiso   1.00
C1102  C     0.91891   0.70872   0.56679   0.00000  Uiso   1.00
C1103  C     0.94321   0.74245   0.59994   0.00000  Uiso   1.00
C1104  C     0.75455   0.94496   0.42446   0.00000  Uiso   1.00
C1105  C     0.74051   0.90398   0.39229   0.00000  Uiso   1.00
C1106  C     0.83353   0.83317   0.40700   0.00000  Uiso   1.00
C1107  C     0.83335   0.83346   0.59301   0.00000  Uiso   1.00
C1108  C     0.83335   0.83304   0.35522   0.00000  Uiso   1.00
C1109  C     0.83327   0.83343   0.64478   0.00000  Uiso   1.00
C1110  C     0.68772   0.79312   0.48808   0.00000  Uiso   1.00
C1111  C     0.97883   0.87380   0.51376   0.00000  Uiso   1.00
C1112  C     0.97843   0.79329   0.48700   0.00000  Uiso   1.00
Cu1113 Cu    0.83333   0.88022   0.50000   0.00000  Uiso   1.00
Cu1114 Cu    0.83333   0.78645   0.50000   0.00000  Uiso   1.00
H1115  H     0.70347   0.76155   0.47827   0.00000  Uiso   1.00
H1116  H     0.82214   0.94164   0.62410   0.00000  Uiso   1.00
H1117  H     0.84274   0.99891   0.62738   0.00000  Uiso   1.00
H1118  H     0.86474   0.95401   0.36704   0.00000  Uiso   1.00
H1119  H     0.88915   0.91151   0.66160   0.00000  Uiso   1.00
H1120  H     0.90833   0.97013   0.66488   0.00000  Uiso   1.00
H1121  H     0.92773   0.71388   0.52801   0.00000  Uiso   1.00
H1122  H     0.92799   0.67316   0.57802   0.00000  Uiso   1.00
H1123  H     0.93671   0.73598   0.63918   0.00000  Uiso   1.00
H1124  H     0.97678   0.73784   0.59460   0.00000  Uiso   1.00
H1125  H     0.93442   0.77865   0.59095   0.00000  Uiso   1.00
H1126  H     0.96285   0.90514   0.52445   0.00000  Uiso   1.00
H1127  H     0.73768   0.97483   0.40923   0.00000  Uiso   1.00
H1128  H     0.74436   0.94052   0.46273   0.00000  Uiso   1.00
H1129  H     0.74970   0.90921   0.35370   0.00000  Uiso   1.00
H1130  H     0.75420   0.87121   0.40589   0.00000  Uiso   1.00
H1131  H     0.70639   0.90088   0.39269   0.00000  Uiso   1.00
H1132  H     0.96223   0.76216   0.47537   0.00000  Uiso   1.00
H1133  H     0.70450   0.90504   0.52533   0.00000  Uiso   1.00
H1134  H     0.76346   0.76489   0.41818   0.00000  Uiso   1.00
H1135  H     0.74408   0.71037   0.43614   0.00000  Uiso   1.00
H1136  H     0.75676   0.68468   0.34441   0.00000  Uiso   1.00
H1137  H     0.71743   0.72834   0.35317   0.00000  Uiso   1.00
H1138  H     0.76794   0.74451   0.33344   0.00000  Uiso   1.00
N1139  N     0.83333   0.95069   0.50000   0.00000  Uiso   1.00
N1140  N     0.83333   0.71598   0.50000   0.00000  Uiso   1.00
O1141  O     0.77321   0.87291   0.50000   0.00000  Uiso   1.00
O1142  O     0.87064   0.95211   0.57718   0.00000  Uiso   1.00
O1143  O     0.87627   0.71649   0.57242   0.00000  Uiso   1.00
O1144  O     0.79772   0.95111   0.42135   0.00000  Uiso   1.00
O1145  O     0.89345   0.79375   0.50000   0.00000  Uiso   1.00
O1146  O     0.89345   0.87291   0.50000   0.00000  Uiso   1.00
O1147  O     0.77321   0.79375   0.50000   0.00000  Uiso   1.00
O1148  O     0.83333   0.87292   0.42946   0.00000  Uiso   1.00
O1149  O     0.83333   0.79375   0.57054   0.00000  Uiso   1.00
O1150  O     0.83333   0.87292   0.57054   0.00000  Uiso   1.00
O1151  O     0.83333   0.79375   0.42946   0.00000  Uiso   1.00
O1152  O     0.80692   0.71222   0.41653   0.00000  Uiso   1.00
C1153  C     0.08748   0.16673   0.83403   0.00000  Uiso   1.00
C1154  C     0.02154   0.20712   0.84752   0.00000  Uiso   1.00
C1155  C     0.29050   0.16682   0.83350   0.00000  Uiso   1.00
C1156  C     0.04280   0.16679   0.83442   0.00000  Uiso   1.00
C1157  C     0.14813   0.02440   0.79487   0.00000  Uiso   1.00
C1158  C     0.18464   0.30895   0.87190   0.00000  Uiso   1.00
C1159  C     0.18710   0.02527   0.86999   0.00000  Uiso   1.00
C1160  C     0.14696   0.30820   0.79575   0.00000  Uiso   1.00
C1161  C     0.09883   0.06065   0.74426   0.00000  Uiso   1.00
C1162  C     0.08428   0.05396   0.69058   0.00000  Uiso   1.00
C1163  C     0.18440   0.29523   0.95544   0.00000  Uiso   1.00
C1164  C     0.24585   0.16666   0.83333   0.00000  Uiso   1.00
C1165  C     0.21345   0.28181   0.99825   0.00000  Uiso   1.00
C1166  C     0.25224   0.04205   0.90013   0.00000  Uiso   1.00
C1167  C     0.27654   0.07579   0.93327   0.00000  Uiso   1.00
C1168  C     0.08788   0.27829   0.75779   0.00000  Uiso   1.00
C1169  C     0.07384   0.23732   0.72562   0.00000  Uiso   1.00
C1170  C     0.16687   0.16650   0.74033   0.00000  Uiso   1.00
C1171  C     0.16669   0.16679   0.92634   0.00000  Uiso   1.00
C1172  C     0.16669   0.16637   0.68856   0.00000  Uiso   1.00
C1173  C     0.16661   0.16676   0.97811   0.00000  Uiso   1.00
C1174  C     0.02105   0.12645   0.82141   0.00000  Uiso   1.00
C1175  C     0.31216   0.20713   0.84709   0.00000  Uiso   1.00
C1176  C     0.31176   0.12662   0.82033   0.00000  Uiso   1.00
Cu1177 Cu    0.16667   0.21355   0.83333   0.00000  Uiso   1.00
Cu1178 Cu    0.16667   0.11978   0.83333   0.00000  Uiso   1.00
H1179  H     0.03681   0.09489   0.81161   0.00000  Uiso   1.00
H1180  H     0.15547   0.27497   0.95744   0.00000  Uiso   1.00
H1181  H     0.17607   0.33225   0.96072   0.00000  Uiso   1.00
H1182  H     0.19807   0.28735   0.70037   0.00000  Uiso   1.00
H1183  H     0.22248   0.24484   0.99493   0.00000  Uiso   1.00
H1184  H     0.24166   0.30347   0.99821   0.00000  Uiso   1.00
H1185  H     0.26106   0.04721   0.86134   0.00000  Uiso   1.00
H1186  H     0.26132   0.00650   0.91135   0.00000  Uiso   1.00
H1187  H     0.27004   0.06931   0.97251   0.00000  Uiso   1.00
H1188  H     0.31011   0.07118   0.92794   0.00000  Uiso   1.00
H1189  H     0.26776   0.11198   0.92429   0.00000  Uiso   1.00
H1190  H     0.29619   0.23848   0.85778   0.00000  Uiso   1.00
H1191  H     0.07101   0.30816   0.74256   0.00000  Uiso   1.00
H1192  H     0.07769   0.27385   0.79607   0.00000  Uiso   1.00
H1193  H     0.08304   0.24255   0.68703   0.00000  Uiso   1.00
H1194  H     0.08753   0.20455   0.73922   0.00000  Uiso   1.00
H1195  H     0.03973   0.23422   0.72602   0.00000  Uiso   1.00
H1196  H     0.29556   0.09549   0.80870   0.00000  Uiso   1.00
H1197  H     0.03783   0.23837   0.85867   0.00000  Uiso   1.00
H1198  H     0.09680   0.09823   0.75152   0.00000  Uiso   1.00
H1199  H     0.07741   0.04371   0.76948   0.00000  Uiso   1.00
H1200  H     0.09010   0.01801   0.67774   0.00000  Uiso   1.00
H1201  H     0.05076   0.06167   0.68651   0.00000  Uiso   1.00
H1202  H     0.10128   0.07784   0.66678   0.00000  Uiso   1.00
N1203  N     0.16667   0.28402   0.83333   0.00000  Uiso   1.00
N1204  N     0.16667   0.04931   0.83333   0.00000  Uiso   1.00
O1205  O     0.10655   0.20625   0.83333   0.00000  Uiso   1.00
O1206  O     0.20397   0.28545   0.91051   0.00000  Uiso   1.00
O1207  O     0.20961   0.04983   0.90575   0.00000  Uiso   1.00
O1208  O     0.13105   0.28445   0.75468   0.00000  Uiso   1.00
O1209  O     0.22679   0.12709   0.83334   0.00000  Uiso   1.00
O1210  O     0.22679   0.20625   0.83334   0.00000  Uiso   1.00
O1211  O     0.10655   0.12709   0.83333   0.00000  Uiso   1.00
O1212  O     0.16667   0.20625   0.76280   0.00000  Uiso   1.00
O1213  O     0.16667   0.12708   0.90387   0.00000  Uiso   1.00
O1214  O     0.16667   0.20625   0.90387   0.00000  Uiso   1.00
O1215  O     0.16667   0.12708   0.76280   0.00000  Uiso   1.00
O1216  O     0.14026   0.04555   0.74987   0.00000  Uiso   1.00
C1217  C     0.42081   0.16673   0.83403   0.00000  Uiso   1.00
C1218  C     0.35487   0.20712   0.84752   0.00000  Uiso   1.00
C1219  C     0.62383   0.16682   0.83350   0.00000  Uiso   1.00
C1220  C     0.37613   0.16679   0.83442   0.00000  Uiso   1.00
C1221  C     0.48147   0.02440   0.79487   0.00000  Uiso   1.00
C1222  C     0.51797   0.30895   0.87190   0.00000  Uiso   1.00
C1223  C     0.52043   0.02527   0.86999   0.00000  Uiso   1.00
C1224  C     0.48029   0.30820   0.79575   0.00000  Uiso   1.00
C1225  C     0.43217   0.06065   0.74426   0.00000  Uiso   1.00
C1226  C     0.41761   0.05396   0.69058   0.00000  Uiso   1.00
C1227  C     0.51773   0.29523   0.95544   0.00000  Uiso   1.00
C1228  C     0.57918   0.16666   0.83333   0.00000  Uiso   1.00
C1229  C     0.54678   0.28181   0.99825   0.00000  Uiso   1.00
C1230  C     0.58557   0.04205   0.90013   0.00000  Uiso   1.00
C1231  C     0.60988   0.07579   0.93327   0.00000  Uiso   1.00
C1232  C     0.42122   0.27829   0.75779   0.00000  Uiso   1.00
C1233  C     0.40717   0.23732   0.72562   0.00000  Uiso   1.00
C1234  C     0.50020   0.16650   0.74033   0.00000  Uiso   1.00
C1235  C     0.50002   0.16679   0.92634   0.00000  Uiso   1.00
C1236  C     0.50002   0.16637   0.68856   0.00000  Uiso   1.00
C1237  C     0.49994   0.16676   0.97811   0.00000  Uiso   1.00
C1238  C     0.35438   0.12645   0.82141   0.00000  Uiso   1.00
C1239  C     0.64550   0.20713   0.84709   0.00000  Uiso   1.00
C1240  C     0.64510   0.12662   0.82033   0.00000  Uiso   1.00
Cu1241 Cu    0.50000   0.21355   0.83333   0.00000  Uiso   1.00
Cu1242 Cu    0.50000   0.11978   0.83333   0.00000  Uiso   1.00
H1243  H     0.37014   0.09489   0.81161   0.00000  Uiso   1.00
H1244  H     0.48881   0.27497   0.95744   0.00000  Uiso   1.00
H1245  H     0.50941   0.33225   0.96072   0.00000  Uiso   1.00
H1246  H     0.53141   0.28735   0.70037   0.00000  Uiso   1.00
H1247  H     0.55581   0.24484   0.99493   0.00000  Uiso   1.00
H1248  H     0.57500   0.30347   0.99821   0.00000  Uiso   1.00
H1249  H     0.59439   0.04721   0.86134   0.00000  Uiso   1.00
H1250  H     0.59465   0.00650   0.91135   0.00000  Uiso   1.00
H1251  H     0.60338   0.06931   0.97251   0.00000  Uiso   1.00
H1252  H     0.64344   0.07118   0.92794   0.00000  Uiso   1.00
H1253  H     0.60109   0.11198   0.92429   0.00000  Uiso   1.00
H1254  H     0.62952   0.23848   0.85778   0.00000  Uiso   1.00
H1255  H     0.40434   0.30816   0.74256   0.00000  Uiso   1.00
H1256  H     0.41102   0.27385   0.79607   0.00000  Uiso   1.00
H1257  H     0.41637   0.24255   0.68703   0.00000  Uiso   1.00
H1258  H     0.42087   0.20455   0.73922   0.00000  Uiso   1.00
H1259  H     0.37306   0.23422   0.72602   0.00000  Uiso   1.00
H1260  H     0.62889   0.09549   0.80870   0.00000  Uiso   1.00
H1261  H     0.37116   0.23837   0.85867   0.00000  Uiso   1.00
H1262  H     0.43013   0.09823   0.75152   0.00000  Uiso   1.00
H1263  H     0.41075   0.04371   0.76948   0.00000  Uiso   1.00
H1264  H     0.42343   0.01801   0.67774   0.00000  Uiso   1.00
H1265  H     0.38410   0.06167   0.68651   0.00000  Uiso   1.00
H1266  H     0.43461   0.07784   0.66678   0.00000  Uiso   1.00
N1267  N     0.50000   0.28402   0.83333   0.00000  Uiso   1.00
N1268  N     0.50000   0.04931   0.83333   0.00000  Uiso   1.00
O1269  O     0.43988   0.20625   0.83333   0.00000  Uiso   1.00
O1270  O     0.53730   0.28545   0.91051   0.00000  Uiso   1.00
O1271  O     0.54294   0.04983   0.90575   0.00000  Uiso   1.00
O1272  O     0.46438   0.28445   0.75468   0.00000  Uiso   1.00
O1273  O     0.56012   0.12709   0.83334   0.00000  Uiso   1.00
O1274  O     0.56012   0.20625   0.83334   0.00000  Uiso   1.00
O1275  O     0.43988   0.12709   0.83333   0.00000  Uiso   1.00
O1276  O     0.50000   0.20625   0.76280   0.00000  Uiso   1.00
O1277  O     0.50000   0.12708   0.90387   0.00000  Uiso   1.00
O1278  O     0.50000   0.20625   0.90387   0.00000  Uiso   1.00
O1279  O     0.50000   0.12708   0.76280   0.00000  Uiso   1.00
O1280  O     0.47359   0.04555   0.74987   0.00000  Uiso   1.00
C1281  C     0.75415   0.16673   0.83403   0.00000  Uiso   1.00
C1282  C     0.68821   0.20712   0.84752   0.00000  Uiso   1.00
C1283  C     0.95716   0.16682   0.83350   0.00000  Uiso   1.00
C1284  C     0.70947   0.16679   0.83442   0.00000  Uiso   1.00
C1285  C     0.81480   0.02440   0.79487   0.00000  Uiso   1.00
C1286  C     0.85131   0.30895   0.87190   0.00000  Uiso   1.00
C1287  C     0.85377   0.02527   0.86999   0.00000  Uiso   1.00
C1288  C     0.81362   0.30820   0.79575   0.00000  Uiso   1.00
C1289  C     0.76550   0.06065   0.74426   0.00000  Uiso   1.00
C1290  C     0.75095   0.05396   0.69058   0.00000  Uiso   1.00
C1291  C     0.85107   0.29523   0.95544   0.00000  Uiso   1.00
C1292  C     0.91251   0.16666   0.83333   0.00000  Uiso   1.00
C1293  C     0.88011   0.28181   0.99825   0.00000  Uiso   1.00
C1294  C     0.91891   0.04205   0.90013   0.00000  Uiso   1.00
C1295  C     0.94321   0.07579   0.93327   0.00000  Uiso   1.00
C1296  C     0.75455   0.27829   0.75779   0.00000  Uiso   1.00
C1297  C     0.74051   0.23732   0.72562   0.00000  Uiso   1.00
C1298  C     0.83353   0.16650   0.74033   0.00000  Uiso   1.00
C1299  C     0.83335   0.16679   0.92634   0.00000  Uiso   1.00
C1300  C     0.83335   0.16637   0.68856   0.00000  Uiso   1.00
C1301  C     0.83327   0.16676   0.97811   0.00000  Uiso   1.00
C1302  C     0.68772   0.12645   0.82141   0.00000  Uiso   1.00
C1303  C     0.97883   0.20713   0.84709   0.00000  Uiso   1.00
C1304  C     0.97843   0.12662   0.82033   0.00000  Uiso   1.00
Cu1305 Cu    0.83333   0.21355   0.83333   0.00000  Uiso   1.00
Cu1306 Cu    0.83333   0.11978   0.83333   0.00000  Uiso   1.00
H1307  H     0.70347   0.09489   0.81161   0.00000  Uiso   1.00
H1308  H     0.82214   0.27497   0.95744   0.00000  Uiso   1.00
H1309  H     0.84274   0.33225   0.96072   0.00000  Uiso   1.00
H1310  H     0.86474   0.28735   0.70037   0.00000  Uiso   1.00
H1311  H     0.88915   0.24484   0.99493   0.00000  Uiso   1.00
H1312  H     0.90833   0.30347   0.99821   0.00000  Uiso   1.00
H1313  H     0.92773   0.04721   0.86134   0.00000  Uiso   1.00
H1314  H     0.92799   0.00650   0.91135   0.00000  Uiso   1.00
H1315  H     0.93671   0.06931   0.97251   0.00000  Uiso   1.00
H1316  H     0.97678   0.07118   0.92794   0.00000  Uiso   1.00
H1317  H     0.93442   0.11198   0.92429   0.00000  Uiso   1.00
H1318  H     0.96285   0.23848   0.85778   0.00000  Uiso   1.00
H1319  H     0.73768   0.30816   0.74256   0.00000  Uiso   1.00
H1320  H     0.74436   0.27385   0.79607   0.00000  Uiso   1.00
H1321  H     0.74970   0.24255   0.68703   0.00000  Uiso   1.00
H1322  H     0.75420   0.20455   0.73922   0.00000  Uiso   1.00
H1323  H     0.70639   0.23422   0.72602   0.00000  Uiso   1.00
H1324  H     0.96223   0.09549   0.80870   0.00000  Uiso   1.00
H1325  H     0.70450   0.23837   0.85867   0.00000  Uiso   1.00
H1326  H     0.76346   0.09823   0.75152   0.00000  Uiso   1.00
H1327  H     0.74408   0.04371   0.76948   0.00000  Uiso   1.00
H1328  H     0.75676   0.01801   0.67774   0.00000  Uiso   1.00
H1329  H     0.71743   0.06167   0.68651   0.00000  Uiso   1.00
H1330  H     0.76794   0.07784   0.66678   0.00000  Uiso   1.00
N1331  N     0.83333   0.28402   0.83333   0.00000  Uiso   1.00
N1332  N     0.83333   0.04931   0.83333   0.00000  Uiso   1.00
O1333  O     0.77321   0.20625   0.83333   0.00000  Uiso   1.00
O1334  O     0.87064   0.28545   0.91051   0.00000  Uiso   1.00
O1335  O     0.87627   0.04983   0.90575   0.00000  Uiso   1.00
O1336  O     0.79772   0.28445   0.75468   0.00000  Uiso   1.00
O1337  O     0.89345   0.12709   0.83334   0.00000  Uiso   1.00
O1338  O     0.89345   0.20625   0.83334   0.00000  Uiso   1.00
O1339  O     0.77321   0.12709   0.83333   0.00000  Uiso   1.00
O1340  O     0.83333   0.20625   0.76280   0.00000  Uiso   1.00
O1341  O     0.83333   0.12708   0.90387   0.00000  Uiso   1.00
O1342  O     0.83333   0.20625   0.90387   0.00000  Uiso   1.00
O1343  O     0.83333   0.12708   0.76280   0.00000  Uiso   1.00
O1344  O     0.80692   0.04555   0.74987   0.00000  Uiso   1.00
C1345  C     0.08748   0.50006   0.83403   0.00000  Uiso   1.00
C1346  C     0.02154   0.54045   0.84752   0.00000  Uiso   1.00
C1347  C     0.29050   0.50015   0.83350   0.00000  Uiso   1.00
C1348  C     0.04280   0.50012   0.83442   0.00000  Uiso   1.00
C1349  C     0.14813   0.35773   0.79487   0.00000  Uiso   1.00
C1350  C     0.18464   0.64229   0.87190   0.00000  Uiso   1.00
C1351  C     0.18710   0.35860   0.86999   0.00000  Uiso   1.00
C1352  C     0.14696   0.64153   0.79575   0.00000  Uiso   1.00
C1353  C     0.09883   0.39399   0.74426   0.00000  Uiso   1.00
C1354  C     0.08428   0.38730   0.69058   0.00000  Uiso   1.00
C1355  C     0.18440   0.62856   0.95544   0.00000  Uiso   1.00
C1356  C     0.24585   0.49999   0.83333   0.00000  Uiso   1.00
C1357  C     0.21345   0.61514   0.99825   0.00000  Uiso   1.00
C1358  C     0.25224   0.37539   0.90013   0.00000  Uiso   1.00
C1359  C     0.27654   0.40912   0.93327   0.00000  Uiso   1.00
C1360  C     0.08788   0.61163   0.75779   0.00000  Uiso   1.00
C1361  C     0.07384   0.57065   0.72562   0.00000  Uiso   1.00
C1362  C     0.16687   0.49983   0.74033   0.00000  Uiso   1.00
C1363  C     0.16669   0.50013   0.92634   0.00000  Uiso   1.00
C1364  C     0.16669   0.49970   0.68856   0.00000  Uiso   1.00
C1365  C     0.16661   0.50010   0.97811   0.00000  Uiso   1.00
C1366  C     0.02105   0.45979   0.82141   0.00000  Uiso   1.00
C1367  C     0.31216   0.54047   0.84709   0.00000  Uiso   1.00
C1368  C     0.31176   0.45995   0.82033   0.00000  Uiso   1.00
Cu1369 Cu    0.16667   0.54689   0.83333   0.00000  Uiso   1.00
Cu1370 Cu    0.16667   0.45311   0.83333   0.00000  Uiso   1.00
H1371  H     0.03681   0.42822   0.81161   0.00000  Uiso   1.00
H1372  H     0.15547   0.60831   0.95744   0.00000  Uiso   1.00
H1373  H     0.17607   0.66558   0.96072   0.00000  Uiso   1.00
H1374  H     0.19807   0.62068   0.70037   0.00000  Uiso   1.00
H1375  H     0.22248   0.57818   0.99493   0.00000  Uiso   1.00
H1376  H     0.24166   0.63680   0.99821   0.00000  Uiso   1.00
H1377  H     0.26106   0.38054   0.86134   0.00000  Uiso   1.00
H1378  H     0.26132   0.33983   0.91135   0.00000  Uiso   1.00
H1379  H     0.27004   0.40265   0.97251   0.00000  Uiso   1.00
H1380  H     0.31011   0.40451   0.92794   0.00000  Uiso   1.00
H1381  H     0.26776   0.44531   0.92429   0.00000  Uiso   1.00
H1382  H     0.29619   0.57181   0.85778   0.00000  Uiso   1.00
H1383  H     0.07101   0.64150   0.74256   0.00000  Uiso   1.00
H1384  H     0.07769   0.60719   0.79607   0.00000  Uiso   1.00
H1385  H     0.08304   0.57588   0.68703   0.00000  Uiso   1.00
H1386  H     0.08753   0.53788   0.73922   0.00000  Uiso   1.00
H1387  H     0.03973   0.56755   0.72602   0.00000  Uiso   1.00
H1388  H     0.29556   0.42882   0.80870   0.00000  Uiso   1.00
H1389  H     0.03783   0.57170   0.85867   0.00000  Uiso   1.00
H1390  H     0.09680   0.43156   0.75152   0.00000  Uiso   1.00
H1391  H     0.07741   0.37704   0.76948   0.00000  Uiso   1.00
H1392  H     0.09010   0.35134   0.67774   0.00000  Uiso   1.00
H1393  H     0.05076   0.39500   0.68651   0.00000  Uiso   1.00
H1394  H     0.10128   0.41118   0.66678   0.00000  Uiso   1.00
N1395  N     0.16667   0.61736   0.83333   0.00000  Uiso   1.00
N1396  N     0.16667   0.38264   0.83333   0.00000  Uiso   1.00
O1397  O     0.10655   0.53958   0.83333   0.00000  Uiso   1.00
O1398  O     0.20397   0.61878   0.91051   0.00000  Uiso   1.00
O1399  O     0.20961   0.38316   0.90575   0.00000  Uiso   1.00
O1400  O     0.13105   0.61778   0.75468   0.00000  Uiso   1.00
O1401  O     0.22679   0.46042   0.83334   0.00000  Uiso   1.00
O1402  O     0.22679   0.53958   0.83334   0.00000  Uiso   1.00
O1403  O     0.10655   0.46042   0.83333   0.00000  Uiso   1.00
O1404  O     0.16667   0.53959   0.76280   0.00000  Uiso   1.00
O1405  O     0.16667   0.46041   0.90387   0.00000  Uiso   1.00
O1406  O     0.16667   0.53959   0.90387   0.00000  Uiso   1.00
O1407  O     0.16667   0.46041   0.76280   0.00000  Uiso   1.00
O1408  O     0.14026   0.37889   0.74987   0.00000  Uiso   1.00
C1409  C     0.42081   0.50006   0.83403   0.00000  Uiso   1.00
C1410  C     0.35487   0.54045   0.84752   0.00000  Uiso   1.00
C1411  C     0.62383   0.50015   0.83350   0.00000  Uiso   1.00
C1412  C     0.37613   0.50012   0.83442   0.00000  Uiso   1.00
C1413  C     0.48147   0.35773   0.79487   0.00000  Uiso   1.00
C1414  C     0.51797   0.64229   0.87190   0.00000  Uiso   1.00
C1415  C     0.52043   0.35860   0.86999   0.00000  Uiso   1.00
C1416  C     0.48029   0.64153   0.79575   0.00000  Uiso   1.00
C1417  C     0.43217   0.39399   0.74426   0.00000  Uiso   1.00
C1418  C     0.41761   0.38730   0.69058   0.00000  Uiso   1.00
C1419  C     0.51773   0.62856   0.95544   0.00000  Uiso   1.00
C1420  C     0.57918   0.49999   0.83333   0.00000  Uiso   1.00
C1421  C     0.54678   0.61514   0.99825   0.00000  Uiso   1.00
C1422  C     0.58557   0.37539   0.90013   0.00000  Uiso   1.00
C1423  C     0.60988   0.40912   0.93327   0.00000  Uiso   1.00
C1424  C     0.42122   0.61163   0.75779   0.00000  Uiso   1.00
C1425  C     0.40717   0.57065   0.72562   0.00000  Uiso   1.00
C1426  C     0.50020   0.49983   0.74033   0.00000  Uiso   1.00
C1427  C     0.50002   0.50013   0.92634   0.00000  Uiso   1.00
C1428  C     0.50002   0.49970   0.68856   0.00000  Uiso   1.00
C1429  C     0.49994   0.50010   0.97811   0.00000  Uiso   1.00
C1430  C     0.35438   0.45979   0.82141   0.00000  Uiso   1.00
C1431  C     0.64550   0.54047   0.84709   0.00000  Uiso   1.00
C1432  C     0.64510   0.45995   0.82033   0.00000  Uiso   1.00
Cu1433 Cu    0.50000   0.54689   0.83333   0.00000  Uiso   1.00
Cu1434 Cu    0.50000   0.45311   0.83333   0.00000  Uiso   1.00
H1435  H     0.37014   0.42822   0.81161   0.00000  Uiso   1.00
H1436  H     0.48881   0.60831   0.95744   0.00000  Uiso   1.00
H1437  H     0.50941   0.66558   0.96072   0.00000  Uiso   1.00
H1438  H     0.53141   0.62068   0.70037   0.00000  Uiso   1.00
H1439  H     0.55581   0.57818   0.99493   0.00000  Uiso   1.00
H1440  H     0.57500   0.63680   0.99821   0.00000  Uiso   1.00
H1441  H     0.59439   0.38054   0.86134   0.00000  Uiso   1.00
H1442  H     0.59465   0.33983   0.91135   0.00000  Uiso   1.00
H1443  H     0.60338   0.40265   0.97251   0.00000  Uiso   1.00
H1444  H     0.64344   0.40451   0.92794   0.00000  Uiso   1.00
H1445  H     0.60109   0.44531   0.92429   0.00000  Uiso   1.00
H1446  H     0.62952   0.57181   0.85778   0.00000  Uiso   1.00
H1447  H     0.40434   0.64150   0.74256   0.00000  Uiso   1.00
H1448  H     0.41102   0.60719   0.79607   0.00000  Uiso   1.00
H1449  H     0.41637   0.57588   0.68703   0.00000  Uiso   1.00
H1450  H     0.42087   0.53788   0.73922   0.00000  Uiso   1.00
H1451  H     0.37306   0.56755   0.72602   0.00000  Uiso   1.00
H1452  H     0.62889   0.42882   0.80870   0.00000  Uiso   1.00
H1453  H     0.37116   0.57170   0.85867   0.00000  Uiso   1.00
H1454  H     0.43013   0.43156   0.75152   0.00000  Uiso   1.00
H1455  H     0.41075   0.37704   0.76948   0.00000  Uiso   1.00
H1456  H     0.42343   0.35134   0.67774   0.00000  Uiso   1.00
H1457  H     0.38410   0.39500   0.68651   0.00000  Uiso   1.00
H1458  H     0.43461   0.41118   0.66678   0.00000  Uiso   1.00
N1459  N     0.50000   0.61736   0.83333   0.00000  Uiso   1.00
N1460  N     0.50000   0.38264   0.83333   0.00000  Uiso   1.00
O1461  O     0.43988   0.53958   0.83333   0.00000  Uiso   1.00
O1462  O     0.53730   0.61878   0.91051   0.00000  Uiso   1.00
O1463  O     0.54294   0.38316   0.90575   0.00000  Uiso   1.00
O1464  O     0.46438   0.61778   0.75468   0.00000  Uiso   1.00
O1465  O     0.56012   0.46042   0.83334   0.00000  Uiso   1.00
O1466  O     0.56012   0.53958   0.83334   0.00000  Uiso   1.00
O1467  O     0.43988   0.46042   0.83333   0.00000  Uiso   1.00
O1468  O     0.50000   0.53959   0.76280   0.00000  Uiso   1.00
O1469  O     0.50000   0.46041   0.90387   0.00000  Uiso   1.00
O1470  O     0.50000   0.53959   0.90387   0.00000  Uiso   1.00
O1471  O     0.50000   0.46041   0.76280   0.00000  Uiso   1.00
O1472  O     0.47359   0.37889   0.74987   0.00000  Uiso   1.00
C1473  C     0.75415   0.50006   0.83403   0.00000  Uiso   1.00
C1474  C     0.68821   0.54045   0.84752   0.00000  Uiso   1.00
C1475  C     0.95716   0.50015   0.83350   0.00000  Uiso   1.00
C1476  C     0.70947   0.50012   0.83442   0.00000  Uiso   1.00
C1477  C     0.81480   0.35773   0.79487   0.00000  Uiso   1.00
C1478  C     0.85131   0.64229   0.87190   0.00000  Uiso   1.00
C1479  C     0.85377   0.35860   0.86999   0.00000  Uiso   1.00
C1480  C     0.81362   0.64153   0.79575   0.00000  Uiso   1.00
C1481  C     0.76550   0.39399   0.74426   0.00000  Uiso   1.00
C1482  C     0.75095   0.38730   0.69058   0.00000  Uiso   1.00
C1483  C     0.85107   0.62856   0.95544   0.00000  Uiso   1.00
C1484  C     0.91251   0.49999   0.83333   0.00000  Uiso   1.00
C1485  C     0.88011   0.61514   0.99825   0.00000  Uiso   1.00
C1486  C     0.91891   0.37539   0.90013   0.00000  Uiso   1.00
C1487  C     0.94321   0.40912   0.93327   0.00000  Uiso   1.00
C1488  C     0.75455   0.61163   0.75779   0.00000  Uiso   1.00
C1489  C     0.74051   0.57065   0.72562   0.00000  Uiso   1.00
C1490  C     0.83353   0.49983   0.74033   0.00000  Uiso   1.00
C1491  C     0.83335   0.50013   0.92634   0.00000  Uiso   1.00
C1492  C     0.83335   0.49970   0.68856   0.00000  Uiso   1.00
C1493  C     0.83327   0.50010   0.97811   0.00000  Uiso   1.00
C1494  C     0.68772   0.45979   0.82141   0.00000  Uiso   1.00
C1495  C     0.97883   0.54047   0.84709   0.00000  Uiso   1.00
C1496  C     0.97843   0.45995   0.82033   0.00000  Uiso   1.00
Cu1497 Cu    0.83333   0.54689   0.83333   0.00000  Uiso   1.00
Cu1498 Cu    0.83333   0.45311   0.83333   0.00000  Uiso   1.00
H1499  H     0.70347   0.42822   0.81161   0.00000  Uiso   1.00
H1500  H     0.82214   0.60831   0.95744   0.00000  Uiso   1.00
H1501  H     0.84274   0.66558   0.96072   0.00000  Uiso   1.00
H1502  H     0.86474   0.62068   0.70037   0.00000  Uiso   1.00
H1503  H     0.88915   0.57818   0.99493   0.00000  Uiso   1.00
H1504  H     0.90833   0.63680   0.99821   0.00000  Uiso   1.00
H1505  H     0.92773   0.38054   0.86134   0.00000  Uiso   1.00
H1506  H     0.92799   0.33983   0.91135   0.00000  Uiso   1.00
H1507  H     0.93671   0.40265   0.97251   0.00000  Uiso   1.00
H1508  H     0.97678   0.40451   0.92794   0.00000  Uiso   1.00
H1509  H     0.93442   0.44531   0.92429   0.00000  Uiso   1.00
H1510  H     0.96285   0.57181   0.85778   0.00000  Uiso   1.00
H1511  H     0.73768   0.64150   0.74256   0.00000  Uiso   1.00
H1512  H     0.74436   0.60719   0.79607   0.00000  Uiso   1.00
H1513  H     0.74970   0.57588   0.68703   0.00000  Uiso   1.00
H1514  H     0.75420   0.53788   0.73922   0.00000  Uiso   1.00
H1515  H     0.70639   0.56755   0.72602   0.00000  Uiso   1.00
H1516  H     0.96223   0.42882   0.80870   0.00000  Uiso   1.00
H1517  H     0.70450   0.57170   0.85867   0.00000  Uiso   1.00
H1518  H     0.76346   0.43156   0.75152   0.00000  Uiso   1.00
H1519  H     0.74408   0.37704   0.76948   0.00000  Uiso   1.00
H1520  H     0.75676   0.35134   0.67774   0.00000  Uiso   1.00
H1521  H     0.71743   0.39500   0.68651   0.00000  Uiso   1.00
H1522  H     0.76794   0.41118   0.66678   0.00000  Uiso   1.00
N1523  N     0.83333   0.61736   0.83333   0.00000  Uiso   1.00
N1524  N     0.83333   0.38264   0.83333   0.00000  Uiso   1.00
O1525  O     0.77321   0.53958   0.83333   0.00000  Uiso   1.00
O1526  O     0.87064   0.61878   0.91051   0.00000  Uiso   1.00
O1527  O     0.87627   0.38316   0.90575   0.00000  Uiso   1.00
O1528  O     0.79772   0.61778   0.75468   0.00000  Uiso   1.00
O1529  O     0.89345   0.46042   0.83334   0.00000  Uiso   1.00
O1530  O     0.89345   0.53958   0.83334   0.00000  Uiso   1.00
O1531  O     0.77321   0.46042   0.83333   0.00000  Uiso   1.00
O1532  O     0.83333   0.53959   0.76280   0.00000  Uiso   1.00
O1533  O     0.83333   0.46041   0.90387   0.00000  Uiso   1.00
O1534  O     0.83333   0.53959   0.90387   0.00000  Uiso   1.00
O1535  O     0.83333   0.46041   0.76280   0.00000  Uiso   1.00
O1536  O     0.80692   0.37889   0.74987   0.00000  Uiso   1.00
C1537  C     0.08748   0.83340   0.83403   0.00000  Uiso   1.00
C1538  C     0.02154   0.87378   0.84752   0.00000  Uiso   1.00
C1539  C     0.29050   0.83348   0.83350   0.00000  Uiso   1.00
C1540  C     0.04280   0.83346   0.83442   0.00000  Uiso   1.00
C1541  C     0.14813   0.69106   0.79487   0.00000  Uiso   1.00
C1542  C     0.18464   0.97562   0.87190   0.00000  Uiso   1.00
C1543  C     0.18710   0.69194   0.86999   0.00000  Uiso   1.00
C1544  C     0.14696   0.97486   0.79575   0.00000  Uiso   1.00
C1545  C     0.09883   0.72732   0.74426   0.00000  Uiso   1.00
C1546  C     0.08428   0.72063   0.69058   0.00000  Uiso   1.00
C1547  C     0.18440   0.96190   0.95544   0.00000  Uiso   1.00
C1548  C     0.24585   0.83333   0.83333   0.00000  Uiso   1.00
C1549  C     0.21345   0.94848   0.99825   0.00000  Uiso   1.00
C1550  C     0.25224   0.70872   0.90013   0.00000  Uiso   1.00
C1551  C     0.27654   0.74245   0.93327   0.00000  Uiso   1.00
C1552  C     0.08788   0.94496   0.75779   0.00000  Uiso   1.00
C1553  C     0.07384   0.90398   0.72562   0.00000  Uiso   1.00
C1554  C     0.16687   0.83317   0.74033   0.00000  Uiso   1.00
C1555  C     0.16669   0.83346   0.92634   0.00000  Uiso   1.00
C1556  C     0.16669   0.83304   0.68856   0.00000  Uiso   1.00
C1557  C     0.16661   0.83343   0.97811   0.00000  Uiso   1.00
C1558  C     0.02105   0.79312   0.82141   0.00000  Uiso   1.00
C1559  C     0.31216   0.87380   0.84709   0.00000  Uiso   1.00
C1560  C     0.31176   0.79329   0.82033   0.00000  Uiso   1.00
Cu1561 Cu    0.16667   0.88022   0.83333   0.00000  Uiso   1.00
Cu1562 Cu    0.16667   0.78645   0.83333   0.00000  Uiso   1.00
H1563  H     0.03681   0.76155   0.81161   0.00000  Uiso   1.00
H1564  H     0.15547   0.94164   0.95744   0.00000  Uiso   1.00
H1565  H     0.17607   0.99891   0.96072   0.00000  Uiso   1.00
H1566  H     0.19807   0.95401   0.70037   0.00000  Uiso   1.00
H1567  H     0.22248   0.91151   0.99493   0.00000  Uiso   1.00
H1568  H     0.24166   0.97013   0.99821   0.00000  Uiso   1.00
H1569  H     0.26106   0.71388   0.86134   0.00000  Uiso   1.00
H1570  H     0.26132   0.67316   0.91135   0.00000  Uiso   1.00
H1571  H     0.27004   0.73598   0.97251   0.00000  Uiso   1.00
H1572  H     0.31011   0.73784   0.92794   0.00000  Uiso   1.00
H1573  H     0.26776   0.77865   0.92429   0.00000  Uiso   1.00
H1574  H     0.29619   0.90514   0.85778   0.00000  Uiso   1.00
H1575  H     0.07101   0.97483   0.74256   0.00000  Uiso   1.00
H1576  H     0.07769   0.94052   0.79607   0.00000  Uiso   1.00
H1577  H     0.08304   0.90921   0.68703   0.00000  Uiso   1.00
H1578  H     0.08753   0.87121   0.73922   0.00000  Uiso   1.00
H1579  H     0.03973   0.90088   0.72602   0.00000  Uiso   1.00
H1580  H     0.29556   0.76216   0.80870   0.00000  Uiso   1.00
H1581  H     0.03783   0.90504   0.85867   0.00000  Uiso   1.00
H1582  H     0.09680   0.76489   0.75152   0.00000  Uiso   1.00
H1583  H     0.07741   0.71037   0.76948   0.00000  Uiso   1.00
H1584  H     0.09010   0.68468   0.67774   0.00000  Uiso   1.00
H1585  H     0.05076   0.72834   0.68651   0.00000  Uiso   1.00
H1586  H     0.10128   0.74451   0.66678   0.00000  Uiso   1.00
N1587  N     0.16667   0.95069   0.83333   0.00000  Uiso   1.00
N1588  N     0.16667   0.71598   0.83333   0.00000  Uiso   1.00
O1589  O     0.10655   0.87291   0.83333   0.00000  Uiso   1.00
O1590  O     0.20397   0.95211   0.91051   0.00000  Uiso   1.00
O1591  O     0.20961   0.71649   0.90575   0.00000  Uiso   1.00
O1592  O     0.13105   0.95111   0.75468   0.00000  Uiso   1.00
O1593  O     0.22679   0.79375   0.83334   0.00000  Uiso   1.00
O1594  O     0.22679   0.87291   0.83334   0.00000  Uiso   1.00
O1595  O     0.10655   0.79375   0.83333   0.00000  Uiso   1.00
O1596  O     0.16667   0.87292   0.76280   0.00000  Uiso   1.00
O1597  O     0.16667   0.79375   0.90387   0.00000  Uiso   1.00
O1598  O     0.16667   0.87292   0.90387   0.00000  Uiso   1.00
O1599  O     0.16667   0.79375   0.76280   0.00000  Uiso   1.00
O1600  O     0.14026   0.71222   0.74987   0.00000  Uiso   1.00
C1601  C     0.42081   0.83340   0.83403   0.00000  Uiso   1.00
C1602  C     0.35487   0.87378   0.84752   0.00000  Uiso   1.00
C1603  C     0.62383   0.83348   0.83350   0.00000  Uiso   1.00
C1604  C     0.37613   0.83346   0.83442   0.00000  Uiso   1.00
C1605  C     0.48147   0.69106   0.79487   0.00000  Uiso   1.00
C1606  C     0.51797   0.97562   0.87190   0.00000  Uiso   1.00
C1607  C     0.52043   0.69194   0.86999   0.00000  Uiso   1.00
C1608  C     0.48029   0.97486   0.79575   0.00000  Uiso   1.00
C1609  C     0.43217   0.72732   0.74426   0.00000  Uiso   1.00
C1610  C     0.41761   0.72063   0.69058   0.00000  Uiso   1.00
C1611  C     0.51773   0.96190   0.95544   0.00000  Uiso   1.00
C1612  C     0.57918   0.83333   0.83333   0.00000  Uiso   1.00
C1613  C     0.54678   0.94848   0.99825   0.00000  Uiso   1.00
C1614  C     0.58557   0.70872   0.90013   0.00000  Uiso   1.00
C1615  C     0.60988   0.74245   0.93327   0.00000  Uiso   1.00
C1616  C     0.42122   0.94496   0.75779   0.00000  Uiso   1.00
C1617  C     0.40717   0.90398   0.72562   0.00000  Uiso   1.00
C1618  C     0.50020   0.83317   0.74033   0.00000  Uiso   1.00
C1619  C     0.50002   0.83346   0.92634   0.00000  Uiso   1.00
C1620  C     0.50002   0.83304   0.68856   0.00000  Uiso   1.00
C1621  C     0.49994   0.83343   0.97811   0.00000  Uiso   1.00
C1622  C     0.35438   0.79312   0.82141   0.00000  Uiso   1.00
C1623  C     0.64550   0.87380   0.84709   0.00000  Uiso   1.00
C1624  C     0.64510   0.79329   0.82033   0.00000  Uiso   1.00
Cu1625 Cu    0.50000   0.88022   0.83333   0.00000  Uiso   1.00
Cu1626 Cu    0.50000   0.78645   0.83333   0.00000  Uiso   1.00
H1627  H     0.37014   0.76155   0.81161   0.00000  Uiso   1.00
H1628  H     0.48881   0.94164   0.95744   0.00000  Uiso   1.00
H1629  H     0.50941   0.99891   0.96072   0.00000  Uiso   1.00
H1630  H     0.53141   0.95401   0.70037   0.00000  Uiso   1.00
H1631  H     0.55581   0.91151   0.99493   0.00000  Uiso   1.00
H1632  H     0.57500   0.97013   0.99821   0.00000  Uiso   1.00
H1633  H     0.59439   0.71388   0.86134   0.00000  Uiso   1.00
H1634  H     0.59465   0.67316   0.91135   0.00000  Uiso   1.00
H1635  H     0.60338   0.73598   0.97251   0.00000  Uiso   1.00
H1636  H     0.64344   0.73784   0.92794   0.00000  Uiso   1.00
H1637  H     0.60109   0.77865   0.92429   0.00000  Uiso   1.00
H1638  H     0.62952   0.90514   0.85778   0.00000  Uiso   1.00
H1639  H     0.40434   0.97483   0.74256   0.00000  Uiso   1.00
H1640  H     0.41102   0.94052   0.79607   0.00000  Uiso   1.00
H1641  H     0.41637   0.90921   0.68703   0.00000  Uiso   1.00
H1642  H     0.42087   0.87121   0.73922   0.00000  Uiso   1.00
H1643  H     0.37306   0.90088   0.72602   0.00000  Uiso   1.00
H1644  H     0.62889   0.76216   0.80870   0.00000  Uiso   1.00
H1645  H     0.37116   0.90504   0.85867   0.00000  Uiso   1.00
H1646  H     0.43013   0.76489   0.75152   0.00000  Uiso   1.00
H1647  H     0.41075   0.71037   0.76948   0.00000  Uiso   1.00
H1648  H     0.42343   0.68468   0.67774   0.00000  Uiso   1.00
H1649  H     0.38410   0.72834   0.68651   0.00000  Uiso   1.00
H1650  H     0.43461   0.74451   0.66678   0.00000  Uiso   1.00
N1651  N     0.50000   0.95069   0.83333   0.00000  Uiso   1.00
N1652  N     0.50000   0.71598   0.83333   0.00000  Uiso   1.00
O1653  O     0.43988   0.87291   0.83333   0.00000  Uiso   1.00
O1654  O     0.53730   0.95211   0.91051   0.00000  Uiso   1.00
O1655  O     0.54294   0.71649   0.90575   0.00000  Uiso   1.00
O1656  O     0.46438   0.95111   0.75468   0.00000  Uiso   1.00
O1657  O     0.56012   0.79375   0.83334   0.00000  Uiso   1.00
O1658  O     0.56012   0.87291   0.83334   0.00000  Uiso   1.00
O1659  O     0.43988   0.79375   0.83333   0.00000  Uiso   1.00
O1660  O     0.50000   0.87292   0.76280   0.00000  Uiso   1.00
O1661  O     0.50000   0.79375   0.90387   0.00000  Uiso   1.00
O1662  O     0.50000   0.87292   0.90387   0.00000  Uiso   1.00
O1663  O     0.50000   0.79375   0.76280   0.00000  Uiso   1.00
O1664  O     0.47359   0.71222   0.74987   0.00000  Uiso   1.00
C1665  C     0.75415   0.83340   0.83403   0.00000  Uiso   1.00
C1666  C     0.68821   0.87378   0.84752   0.00000  Uiso   1.00
C1667  C     0.95716   0.83348   0.83350   0.00000  Uiso   1.00
C1668  C     0.70947   0.83346   0.83442   0.00000  Uiso   1.00
C1669  C     0.81480   0.69106   0.79487   0.00000  Uiso   1.00
C1670  C     0.85131   0.97562   0.87190   0.00000  Uiso   1.00
C1671  C     0.85377   0.69194   0.86999   0.00000  Uiso   1.00
C1672  C     0.81362   0.97486   0.79575   0.00000  Uiso   1.00
C1673  C     0.76550   0.72732   0.74426   0.00000  Uiso   1.00
C1674  C     0.75095   0.72063   0.69058   0.00000  Uiso   1.00
C1675  C     0.85107   0.96190   0.95544   0.00000  Uiso   1.00
C1676  C     0.91251   0.83333   0.83333   0.00000  Uiso   1.00
C1677  C     0.88011   0.94848   0.99825   0.00000  Uiso   1.00
C1678  C     0.91891   0.70872   0.90013   0.00000  Uiso   1.00
C1679  C     0.94321   0.74245   0.93327   0.00000  Uiso   1.00
C1680  C     0.75455   0.94496   0.75779   0.00000  Uiso   1.00
C1681  C     0.74051   0.90398   0.72562   0.00000  Uiso   1.00
C1682  C     0.83353   0.83317   0.74033   0.00000  Uiso   1.00
C1683  C     0.83335   0.83346   0.92634   0.00000  Uiso   1.00
C1684  C     0.83335   0.83304   0.68856   0.00000  Uiso   1.00
C1685  C     0.83327   0.83343   0.97811   0.00000  Uiso   1.00
C1686  C     0.68772   0.79312   0.82141   0.00000  Uiso   1.00
C1687  C     0.97883   0.87380   0.84709   0.00000  Uiso   1.00
C1688  C     0.97843   0.79329   0.82033   0.00000  Uiso   1.00
Cu1689 Cu    0.83333   0.88022   0.83333   0.00000  Uiso   1.00
Cu1690 Cu    0.83333   0.78645   0.83333   0.00000  Uiso   1.00
H1691  H     0.70347   0.76155   0.81161   0.00000  Uiso   1.00
H1692  H     0.82214   0.94164   0.95744   0.00000  Uiso   1.00
H1693  H     0.84274   0.99891   0.96072   0.00000  Uiso   1.00
H1694  H     0.86474   0.95401   0.70037   0.00000  Uiso   1.00
H1695  H     0.88915   0.91151   0.99493   0.00000  Uiso   1.00
H1696  H     0.90833   0.97013   0.99821   0.00000  Uiso   1.00
H1697  H     0.92773   0.71388   0.86134   0.00000  Uiso   1.00
H1698  H     0.92799   0.67316   0.91135   0.00000  Uiso   1.00
H1699  H     0.93671   0.73598   0.97251   0.00000  Uiso   1.00
H1700  H     0.97678   0.73784   0.92794   0.00000  Uiso   1.00
H1701  H     0.93442   0.77865   0.92429   0.00000  Uiso   1.00
H1702  H     0.96285   0.90514   0.85778   0.00000  Uiso   1.00
H1703  H     0.73768   0.97483   0.74256   0.00000  Uiso   1.00
H1704  H     0.74436   0.94052   0.79607   0.00000  Uiso   1.00
H1705  H     0.74970   0.90921   0.68703   0.00000  Uiso   1.00
H1706  H     0.75420   0.87121   0.73922   0.00000  Uiso   1.00
H1707  H     0.70639   0.90088   0.72602   0.00000  Uiso   1.00
H1708  H     0.96223   0.76216   0.80870   0.00000  Uiso   1.00
H1709  H     0.70450   0.90504   0.85867   0.00000  Uiso   1.00
H1710  H     0.76346   0.76489   0.75152   0.00000  Uiso   1.00
H1711  H     0.74408   0.71037   0.76948   0.00000  Uiso   1.00
H1712  H     0.75676   0.68468   0.67774   0.00000  Uiso   1.00
H1713  H     0.71743   0.72834   0.68651   0.00000  Uiso   1.00
H1714  H     0.76794   0.74451   0.66678   0.00000  Uiso   1.00
N1715  N     0.83333   0.95069   0.83333   0.00000  Uiso   1.00
N1716  N     0.83333   0.71598   0.83333   0.00000  Uiso   1.00
O1717  O     0.77321   0.87291   0.83333   0.00000  Uiso   1.00
O1718  O     0.87064   0.95211   0.91051   0.00000  Uiso   1.00
O1719  O     0.87627   0.71649   0.90575   0.00000  Uiso   1.00
O1720  O     0.79772   0.95111   0.75468   0.00000  Uiso   1.00
O1721  O     0.89345   0.79375   0.83334   0.00000  Uiso   1.00
O1722  O     0.89345   0.87291   0.83334   0.00000  Uiso   1.00
O1723  O     0.77321   0.79375   0.83333   0.00000  Uiso   1.00
O1724  O     0.83333   0.87292   0.76280   0.00000  Uiso   1.00
O1725  O     0.83333   0.79375   0.90387   0.00000  Uiso   1.00
O1726  O     0.83333   0.87292   0.90387   0.00000  Uiso   1.00
O1727  O     0.83333   0.79375   0.76280   0.00000  Uiso   1.00
O1728  O     0.80692   0.71222   0.74987   0.00000  Uiso   1.00
loop_
_geom_bond_atom_site_label_1
_geom_bond_atom_site_label_2
_geom_bond_distance
_geom_bond_site_symmetry_2
_ccdc_geom_bond_type
C1     C4      1.450   .     S
C1     O59     1.300   .     A
C1     O53     1.301   .     A
C2     C4      1.400   .     A
C2     H45     1.083   .     S
C2     C151    1.385   1_455 S
C3     C23     1.402   .     A
C3     C24     1.398   .     A
C3     C12     1.448   .     S
C4     C22     1.400   .     A
C5     N52     1.382   .     A
C5     O64     1.386   .     S
C5     C392    1.432   1_545 S
C6     N51     1.377   .     A
C6     O54     1.384   .     S
C6     C199    1.438   .     S
C7     O55     1.384   .     S
C7     N52     1.369   .     A
C7     C390    1.438   1_545 S
C8     O56     1.387   .     S
C8     N51     1.379   .     A
C8     C197    1.432   .     S
C9     O64     1.414   .     S
C9     C10     1.525   .     S
C9     H46     1.103   .     S
C9     H47     1.111   .     S
C10    H48     1.110   .     S
C10    H49     1.111   .     S
C10    H50     1.111   .     S
C11    C13     1.521   .     S
C11    O54     1.420   .     S
C11    H28     1.111   .     S
C11    H29     1.111   .     S
C12    O58     1.298   .     A
C12    O57     1.302   .     A
C13    H32     1.111   .     S
C13    H31     1.110   .     S
C13    H606    1.109   .     S
C14    H34     1.110   .     S
C14    H33     1.112   .     S
C14    O55     1.413   .     S
C14    C15     1.522   .     S
C15    H36     1.111   .     S
C15    H35     1.111   .     S
C15    H37     1.110   .     S
C16    O56     1.418   .     S
C16    H40     1.110   .     S
C16    H39     1.096   .     S
C16    C17     1.525   .     S
C17    H41     1.111   .     S
C17    H43     1.111   .     S
C17    H42     1.105   .     S
C18    C20     1.405   .     S
C18    O63     1.297   .     A
C18    O60     1.294   .     A
C19    C21     1.405   .     S
C19    O61     1.293   .     A
C19    O62     1.298   .     A
C20    C1173   1.188   1_554 S
C21    C596    1.188   .     S
C22    H27     1.079   .     S
C22    C152    1.381   1_455 S
C23    H38     1.084   .     S
C23    C66     1.385   .     S
C24    H44     1.082   .     S
C24    C86     1.381   .     S
Cu25   O60     1.923   .     S
Cu25   N51     2.036   .     S
Cu25   O62     1.928   .     S
Cu25   O58     1.960   .     S
Cu25   Cu26    2.709   .     S
Cu25   O53     1.962   .     S
Cu26   O63     1.928   .     S
Cu26   N52     2.036   .     S
Cu26   O61     1.923   .     S
Cu26   O57     1.962   .     S
Cu26   O59     1.960   .     S
H30    C1165   1.109   1_554 S
C65    C68     1.450   .     S
C65    O123    1.300   .     A
C65    O117    1.301   .     A
C66    C68     1.400   .     A
C66    H109    1.083   .     S
C67    C87     1.402   .     A
C67    C88     1.398   .     A
C67    C76     1.448   .     S
C68    C86     1.400   .     A
C69    N116    1.382   .     A
C69    O128    1.386   .     S
C69    C456    1.432   1_545 S
C70    N115    1.377   .     A
C70    O118    1.384   .     S
C70    C263    1.438   .     S
C71    O119    1.384   .     S
C71    N116    1.369   .     A
C71    C454    1.438   1_545 S
C72    O120    1.387   .     S
C72    N115    1.379   .     A
C72    C261    1.432   .     S
C73    O128    1.414   .     S
C73    C74     1.525   .     S
C73    H110    1.103   .     S
C73    H111    1.111   .     S
C74    H112    1.110   .     S
C74    H113    1.111   .     S
C74    H114    1.111   .     S
C75    C77     1.521   .     S
C75    O118    1.420   .     S
C75    H92     1.111   .     S
C75    H93     1.111   .     S
C76    O122    1.298   .     A
C76    O121    1.302   .     A
C77    H96     1.111   .     S
C77    H95     1.110   .     S
C77    H670    1.109   .     S
C78    H98     1.110   .     S
C78    H97     1.112   .     S
C78    O119    1.413   .     S
C78    C79     1.522   .     S
C79    H100    1.111   .     S
C79    H99     1.111   .     S
C79    H101    1.110   .     S
C80    O120    1.418   .     S
C80    H104    1.110   .     S
C80    H103    1.096   .     S
C80    C81     1.525   .     S
C81    H105    1.111   .     S
C81    H107    1.111   .     S
C81    H106    1.105   .     S
C82    C84     1.405   .     S
C82    O127    1.297   .     A
C82    O124    1.294   .     A
C83    C85     1.405   .     S
C83    O125    1.293   .     A
C83    O126    1.298   .     A
C84    C1237   1.188   1_554 S
C85    C660    1.188   .     S
C86    H91     1.079   .     S
C87    H102    1.084   .     S
C87    C130    1.385   .     S
C88    H108    1.082   .     S
C88    C150    1.381   .     S
Cu89   O124    1.923   .     S
Cu89   N115    2.036   .     S
Cu89   O126    1.928   .     S
Cu89   O122    1.960   .     S
Cu89   Cu90    2.709   .     S
Cu89   O117    1.962   .     S
Cu90   O127    1.928   .     S
Cu90   N116    2.036   .     S
Cu90   O125    1.923   .     S
Cu90   O121    1.962   .     S
Cu90   O123    1.960   .     S
H94    C1229   1.109   1_554 S
C129   C132    1.450   .     S
C129   O187    1.300   .     A
C129   O181    1.301   .     A
C130   C132    1.400   .     A
C130   H173    1.083   .     S
C131   C151    1.402   .     A
C131   C152    1.398   .     A
C131   C140    1.448   .     S
C132   C150    1.400   .     A
C133   N180    1.382   .     A
C133   O192    1.386   .     S
C133   C520    1.432   1_545 S
C134   N179    1.377   .     A
C134   O182    1.384   .     S
C134   C327    1.438   .     S
C135   O183    1.384   .     S
C135   N180    1.369   .     A
C135   C518    1.438   1_545 S
C136   O184    1.387   .     S
C136   N179    1.379   .     A
C136   C325    1.432   .     S
C137   O192    1.414   .     S
C137   C138    1.525   .     S
C137   H174    1.103   .     S
C137   H175    1.111   .     S
C138   H176    1.110   .     S
C138   H177    1.111   .     S
C138   H178    1.111   .     S
C139   C141    1.521   .     S
C139   O182    1.420   .     S
C139   H156    1.111   .     S
C139   H157    1.111   .     S
C140   O186    1.298   .     A
C140   O185    1.302   .     A
C141   H160    1.111   .     S
C141   H159    1.110   .     S
C141   H734    1.109   .     S
C142   H162    1.110   .     S
C142   H161    1.112   .     S
C142   O183    1.413   .     S
C142   C143    1.522   .     S
C143   H164    1.111   .     S
C143   H163    1.111   .     S
C143   H165    1.110   .     S
C144   O184    1.418   .     S
C144   H168    1.110   .     S
C144   H167    1.096   .     S
C144   C145    1.525   .     S
C145   H169    1.111   .     S
C145   H171    1.111   .     S
C145   H170    1.105   .     S
C146   C148    1.405   .     S
C146   O191    1.297   .     A
C146   O188    1.294   .     A
C147   C149    1.405   .     S
C147   O189    1.293   .     A
C147   O190    1.298   .     A
C148   C1301   1.188   1_554 S
C149   C724    1.188   .     S
C150   H155    1.079   .     S
C151   H166    1.084   .     S
C151   C2      1.385   1_655 S
C152   H172    1.082   .     S
C152   C22     1.381   1_655 S
Cu153  O188    1.923   .     S
Cu153  N179    2.036   .     S
Cu153  O190    1.928   .     S
Cu153  O186    1.960   .     S
Cu153  Cu154   2.709   .     S
Cu153  O181    1.962   .     S
Cu154  O191    1.928   .     S
Cu154  N180    2.036   .     S
Cu154  O189    1.923   .     S
Cu154  O185    1.962   .     S
Cu154  O187    1.960   .     S
H158   C1293   1.109   1_554 S
C193   C196    1.450   .     S
C193   O251    1.300   .     A
C193   O245    1.301   .     A
C194   C196    1.400   .     A
C194   H237    1.083   .     S
C194   C343    1.385   1_455 S
C195   C215    1.402   .     A
C195   C216    1.398   .     A
C195   C204    1.448   .     S
C196   C214    1.400   .     A
C197   N244    1.382   .     A
C197   O256    1.386   .     S
C198   N243    1.377   .     A
C198   O246    1.384   .     S
C198   C391    1.438   .     S
C199   O247    1.384   .     S
C199   N244    1.369   .     A
C200   O248    1.387   .     S
C200   N243    1.379   .     A
C200   C389    1.432   .     S
C201   O256    1.414   .     S
C201   C202    1.525   .     S
C201   H238    1.103   .     S
C201   H239    1.111   .     S
C202   H240    1.110   .     S
C202   H241    1.111   .     S
C202   H242    1.111   .     S
C203   C205    1.521   .     S
C203   O246    1.420   .     S
C203   H220    1.111   .     S
C203   H221    1.111   .     S
C204   O250    1.298   .     A
C204   O249    1.302   .     A
C205   H224    1.111   .     S
C205   H223    1.110   .     S
C205   H798    1.109   .     S
C206   H226    1.110   .     S
C206   H225    1.112   .     S
C206   O247    1.413   .     S
C206   C207    1.522   .     S
C207   H228    1.111   .     S
C207   H227    1.111   .     S
C207   H229    1.110   .     S
C208   O248    1.418   .     S
C208   H232    1.110   .     S
C208   H231    1.096   .     S
C208   C209    1.525   .     S
C209   H233    1.111   .     S
C209   H235    1.111   .     S
C209   H234    1.105   .     S
C210   C212    1.405   .     S
C210   O255    1.297   .     A
C210   O252    1.294   .     A
C211   C213    1.405   .     S
C211   O253    1.293   .     A
C211   O254    1.298   .     A
C212   C1365   1.188   1_554 S
C213   C788    1.188   .     S
C214   H219    1.079   .     S
C214   C344    1.381   1_455 S
C215   H230    1.084   .     S
C215   C258    1.385   .     S
C216   H236    1.082   .     S
C216   C278    1.381   .     S
Cu217  O252    1.923   .     S
Cu217  N243    2.036   .     S
Cu217  O254    1.928   .     S
Cu217  O250    1.960   .     S
Cu217  Cu218   2.709   .     S
Cu217  O245    1.962   .     S
Cu218  O255    1.928   .     S
Cu218  N244    2.036   .     S
Cu218  O253    1.923   .     S
Cu218  O249    1.962   .     S
Cu218  O251    1.960   .     S
H222   C1357   1.109   1_554 S
C257   C260    1.450   .     S
C257   O315    1.300   .     A
C257   O309    1.301   .     A
C258   C260    1.400   .     A
C258   H301    1.083   .     S
C259   C279    1.402   .     A
C259   C280    1.398   .     A
C259   C268    1.448   .     S
C260   C278    1.400   .     A
C261   N308    1.382   .     A
C261   O320    1.386   .     S
C262   N307    1.377   .     A
C262   O310    1.384   .     S
C262   C455    1.438   .     S
C263   O311    1.384   .     S
C263   N308    1.369   .     A
C264   O312    1.387   .     S
C264   N307    1.379   .     A
C264   C453    1.432   .     S
C265   O320    1.414   .     S
C265   C266    1.525   .     S
C265   H302    1.103   .     S
C265   H303    1.111   .     S
C266   H304    1.110   .     S
C266   H305    1.111   .     S
C266   H306    1.111   .     S
C267   C269    1.521   .     S
C267   O310    1.420   .     S
C267   H284    1.111   .     S
C267   H285    1.111   .     S
C268   O314    1.298   .     A
C268   O313    1.302   .     A
C269   H288    1.111   .     S
C269   H287    1.110   .     S
C269   H862    1.109   .     S
C270   H290    1.110   .     S
C270   H289    1.112   .     S
C270   O311    1.413   .     S
C270   C271    1.522   .     S
C271   H292    1.111   .     S
C271   H291    1.111   .     S
C271   H293    1.110   .     S
C272   O312    1.418   .     S
C272   H296    1.110   .     S
C272   H295    1.096   .     S
C272   C273    1.525   .     S
C273   H297    1.111   .     S
C273   H299    1.111   .     S
C273   H298    1.105   .     S
C274   C276    1.405   .     S
C274   O319    1.297   .     A
C274   O316    1.294   .     A
C275   C277    1.405   .     S
C275   O317    1.293   .     A
C275   O318    1.298   .     A
C276   C1429   1.188   1_554 S
C277   C852    1.188   .     S
C278   H283    1.079   .     S
C279   H294    1.084   .     S
C279   C322    1.385   .     S
C280   H300    1.082   .     S
C280   C342    1.381   .     S
Cu281  O316    1.923   .     S
Cu281  N307    2.036   .     S
Cu281  O318    1.928   .     S
Cu281  O314    1.960   .     S
Cu281  Cu282   2.709   .     S
Cu281  O309    1.962   .     S
Cu282  O319    1.928   .     S
Cu282  N308    2.036   .     S
Cu282  O317    1.923   .     S
Cu282  O313    1.962   .     S
Cu282  O315    1.960   .     S
H286   C1421   1.109   1_554 S
C321   C324    1.450   .     S
C321   O379    1.300   .     A
C321   O373    1.301   .     A
C322   C324    1.400   .     A
C322   H365    1.083   .     S
C323   C343    1.402   .     A
C323   C344    1.398   .     A
C323   C332    1.448   .     S
C324   C342    1.400   .     A
C325   N372    1.382   .     A
C325   O384    1.386   .     S
C326   N371    1.377   .     A
C326   O374    1.384   .     S
C326   C519    1.438   .     S
C327   O375    1.384   .     S
C327   N372    1.369   .     A
C328   O376    1.387   .     S
C328   N371    1.379   .     A
C328   C517    1.432   .     S
C329   O384    1.414   .     S
C329   C330    1.525   .     S
C329   H366    1.103   .     S
C329   H367    1.111   .     S
C330   H368    1.110   .     S
C330   H369    1.111   .     S
C330   H370    1.111   .     S
C331   C333    1.521   .     S
C331   O374    1.420   .     S
C331   H348    1.111   .     S
C331   H349    1.111   .     S
C332   O378    1.298   .     A
C332   O377    1.302   .     A
C333   H352    1.111   .     S
C333   H351    1.110   .     S
C333   H926    1.109   .     S
C334   H354    1.110   .     S
C334   H353    1.112   .     S
C334   O375    1.413   .     S
C334   C335    1.522   .     S
C335   H356    1.111   .     S
C335   H355    1.111   .     S
C335   H357    1.110   .     S
C336   O376    1.418   .     S
C336   H360    1.110   .     S
C336   H359    1.096   .     S
C336   C337    1.525   .     S
C337   H361    1.111   .     S
C337   H363    1.111   .     S
C337   H362    1.105   .     S
C338   C340    1.405   .     S
C338   O383    1.297   .     A
C338   O380    1.294   .     A
C339   C341    1.405   .     S
C339   O381    1.293   .     A
C339   O382    1.298   .     A
C340   C1493   1.188   1_554 S
C341   C916    1.188   .     S
C342   H347    1.079   .     S
C343   H358    1.084   .     S
C343   C194    1.385   1_655 S
C344   H364    1.082   .     S
C344   C214    1.381   1_655 S
Cu345  O380    1.923   .     S
Cu345  N371    2.036   .     S
Cu345  O382    1.928   .     S
Cu345  O378    1.960   .     S
Cu345  Cu346   2.709   .     S
Cu345  O373    1.962   .     S
Cu346  O383    1.928   .     S
Cu346  N372    2.036   .     S
Cu346  O381    1.923   .     S
Cu346  O377    1.962   .     S
Cu346  O379    1.960   .     S
H350   C1485   1.109   1_554 S
C385   C388    1.450   .     S
C385   O443    1.300   .     A
C385   O437    1.301   .     A
C386   C388    1.400   .     A
C386   H429    1.083   .     S
C386   C535    1.385   1_455 S
C387   C407    1.402   .     A
C387   C408    1.398   .     A
C387   C396    1.448   .     S
C388   C406    1.400   .     A
C389   N436    1.382   .     A
C389   O448    1.386   .     S
C390   N435    1.377   .     A
C390   O438    1.384   .     S
C390   C7      1.438   1_565 S
C391   O439    1.384   .     S
C391   N436    1.369   .     A
C392   O440    1.387   .     S
C392   N435    1.379   .     A
C392   C5      1.432   1_565 S
C393   O448    1.414   .     S
C393   C394    1.525   .     S
C393   H430    1.103   .     S
C393   H431    1.111   .     S
C394   H432    1.110   .     S
C394   H433    1.111   .     S
C394   H434    1.111   .     S
C395   C397    1.521   .     S
C395   O438    1.420   .     S
C395   H412    1.111   .     S
C395   H413    1.111   .     S
C396   O442    1.298   .     A
C396   O441    1.302   .     A
C397   H416    1.111   .     S
C397   H415    1.110   .     S
C397   H990    1.109   .     S
C398   H418    1.110   .     S
C398   H417    1.112   .     S
C398   O439    1.413   .     S
C398   C399    1.522   .     S
C399   H420    1.111   .     S
C399   H419    1.111   .     S
C399   H421    1.110   .     S
C400   O440    1.418   .     S
C400   H424    1.110   .     S
C400   H423    1.096   .     S
C400   C401    1.525   .     S
C401   H425    1.111   .     S
C401   H427    1.111   .     S
C401   H426    1.105   .     S
C402   C404    1.405   .     S
C402   O447    1.297   .     A
C402   O444    1.294   .     A
C403   C405    1.405   .     S
C403   O445    1.293   .     A
C403   O446    1.298   .     A
C404   C1557   1.188   1_554 S
C405   C980    1.188   .     S
C406   H411    1.079   .     S
C406   C536    1.381   1_455 S
C407   H422    1.084   .     S
C407   C450    1.385   .     S
C408   H428    1.082   .     S
C408   C470    1.381   .     S
Cu409  O444    1.923   .     S
Cu409  N435    2.036   .     S
Cu409  O446    1.928   .     S
Cu409  O442    1.960   .     S
Cu409  Cu410   2.709   .     S
Cu409  O437    1.962   .     S
Cu410  O447    1.928   .     S
Cu410  N436    2.036   .     S
Cu410  O445    1.923   .     S
Cu410  O441    1.962   .     S
Cu410  O443    1.960   .     S
H414   C1549   1.109   1_554 S
C449   C452    1.450   .     S
C449   O507    1.300   .     A
C449   O501    1.301   .     A
C450   C452    1.400   .     A
C450   H493    1.083   .     S
C451   C471    1.402   .     A
C451   C472    1.398   .     A
C451   C460    1.448   .     S
C452   C470    1.400   .     A
C453   N500    1.382   .     A
C453   O512    1.386   .     S
C454   N499    1.377   .     A
C454   O502    1.384   .     S
C454   C71     1.438   1_565 S
C455   O503    1.384   .     S
C455   N500    1.369   .     A
C456   O504    1.387   .     S
C456   N499    1.379   .     A
C456   C69     1.432   1_565 S
C457   O512    1.414   .     S
C457   C458    1.525   .     S
C457   H494    1.103   .     S
C457   H495    1.111   .     S
C458   H496    1.110   .     S
C458   H497    1.111   .     S
C458   H498    1.111   .     S
C459   C461    1.521   .     S
C459   O502    1.420   .     S
C459   H476    1.111   .     S
C459   H477    1.111   .     S
C460   O506    1.298   .     A
C460   O505    1.302   .     A
C461   H480    1.111   .     S
C461   H479    1.110   .     S
C461   H1054   1.109   .     S
C462   H482    1.110   .     S
C462   H481    1.112   .     S
C462   O503    1.413   .     S
C462   C463    1.522   .     S
C463   H484    1.111   .     S
C463   H483    1.111   .     S
C463   H485    1.110   .     S
C464   O504    1.418   .     S
C464   H488    1.110   .     S
C464   H487    1.096   .     S
C464   C465    1.525   .     S
C465   H489    1.111   .     S
C465   H491    1.111   .     S
C465   H490    1.105   .     S
C466   C468    1.405   .     S
C466   O511    1.297   .     A
C466   O508    1.294   .     A
C467   C469    1.405   .     S
C467   O509    1.293   .     A
C467   O510    1.298   .     A
C468   C1621   1.188   1_554 S
C469   C1044   1.188   .     S
C470   H475    1.079   .     S
C471   H486    1.084   .     S
C471   C514    1.385   .     S
C472   H492    1.082   .     S
C472   C534    1.381   .     S
Cu473  O508    1.923   .     S
Cu473  N499    2.036   .     S
Cu473  O510    1.928   .     S
Cu473  O506    1.960   .     S
Cu473  Cu474   2.709   .     S
Cu473  O501    1.962   .     S
Cu474  O511    1.928   .     S
Cu474  N500    2.036   .     S
Cu474  O509    1.923   .     S
Cu474  O505    1.962   .     S
Cu474  O507    1.960   .     S
H478   C1613   1.109   1_554 S
C513   C516    1.450   .     S
C513   O571    1.300   .     A
C513   O565    1.301   .     A
C514   C516    1.400   .     A
C514   H557    1.083   .     S
C515   C535    1.402   .     A
C515   C536    1.398   .     A
C515   C524    1.448   .     S
C516   C534    1.400   .     A
C517   N564    1.382   .     A
C517   O576    1.386   .     S
C518   N563    1.377   .     A
C518   O566    1.384   .     S
C518   C135    1.438   1_565 S
C519   O567    1.384   .     S
C519   N564    1.369   .     A
C520   O568    1.387   .     S
C520   N563    1.379   .     A
C520   C133    1.432   1_565 S
C521   O576    1.414   .     S
C521   C522    1.525   .     S
C521   H558    1.103   .     S
C521   H559    1.111   .     S
C522   H560    1.110   .     S
C522   H561    1.111   .     S
C522   H562    1.111   .     S
C523   C525    1.521   .     S
C523   O566    1.420   .     S
C523   H540    1.111   .     S
C523   H541    1.111   .     S
C524   O570    1.298   .     A
C524   O569    1.302   .     A
C525   H544    1.111   .     S
C525   H543    1.110   .     S
C525   H1118   1.109   .     S
C526   H546    1.110   .     S
C526   H545    1.112   .     S
C526   O567    1.413   .     S
C526   C527    1.522   .     S
C527   H548    1.111   .     S
C527   H547    1.111   .     S
C527   H549    1.110   .     S
C528   O568    1.418   .     S
C528   H552    1.110   .     S
C528   H551    1.096   .     S
C528   C529    1.525   .     S
C529   H553    1.111   .     S
C529   H555    1.111   .     S
C529   H554    1.105   .     S
C530   C532    1.405   .     S
C530   O575    1.297   .     A
C530   O572    1.294   .     A
C531   C533    1.405   .     S
C531   O573    1.293   .     A
C531   O574    1.298   .     A
C532   C1685   1.188   1_554 S
C533   C1108   1.188   .     S
C534   H539    1.079   .     S
C535   H550    1.084   .     S
C535   C386    1.385   1_655 S
C536   H556    1.082   .     S
C536   C406    1.381   1_655 S
Cu537  O572    1.923   .     S
Cu537  N563    2.036   .     S
Cu537  O574    1.928   .     S
Cu537  O570    1.960   .     S
Cu537  Cu538   2.709   .     S
Cu537  O565    1.962   .     S
Cu538  O575    1.928   .     S
Cu538  N564    2.036   .     S
Cu538  O573    1.923   .     S
Cu538  O569    1.962   .     S
Cu538  O571    1.960   .     S
H542   C1677   1.109   1_554 S
C577   C580    1.450   .     S
C577   O635    1.300   .     A
C577   O629    1.301   .     A
C578   C580    1.400   .     A
C578   H621    1.083   .     S
C578   C727    1.385   1_455 S
C579   C599    1.402   .     A
C579   C600    1.398   .     A
C579   C588    1.448   .     S
C580   C598    1.400   .     A
C581   N628    1.382   .     A
C581   O640    1.386   .     S
C581   C968    1.432   1_545 S
C582   N627    1.377   .     A
C582   O630    1.384   .     S
C582   C775    1.438   .     S
C583   O631    1.384   .     S
C583   N628    1.369   .     A
C583   C966    1.438   1_545 S
C584   O632    1.387   .     S
C584   N627    1.379   .     A
C584   C773    1.432   .     S
C585   O640    1.414   .     S
C585   C586    1.525   .     S
C585   H622    1.103   .     S
C585   H623    1.111   .     S
C586   H624    1.110   .     S
C586   H625    1.111   .     S
C586   H626    1.111   .     S
C587   C589    1.521   .     S
C587   O630    1.420   .     S
C587   H604    1.111   .     S
C587   H605    1.111   .     S
C588   O634    1.298   .     A
C588   O633    1.302   .     A
C589   H608    1.111   .     S
C589   H607    1.110   .     S
C589   H1182   1.109   .     S
C590   H610    1.110   .     S
C590   H609    1.112   .     S
C590   O631    1.413   .     S
C590   C591    1.522   .     S
C591   H612    1.111   .     S
C591   H611    1.111   .     S
C591   H613    1.110   .     S
C592   O632    1.418   .     S
C592   H616    1.110   .     S
C592   H615    1.096   .     S
C592   C593    1.525   .     S
C593   H617    1.111   .     S
C593   H619    1.111   .     S
C593   H618    1.105   .     S
C594   C596    1.405   .     S
C594   O639    1.297   .     A
C594   O636    1.294   .     A
C595   C597    1.405   .     S
C595   O637    1.293   .     A
C595   O638    1.298   .     A
C597   C1172   1.188   .     S
C598   H603    1.079   .     S
C598   C728    1.381   1_455 S
C599   H614    1.084   .     S
C599   C642    1.385   .     S
C600   H620    1.082   .     S
C600   C662    1.381   .     S
Cu601  O636    1.923   .     S
Cu601  N627    2.036   .     S
Cu601  O638    1.928   .     S
Cu601  O634    1.960   .     S
Cu601  Cu602   2.709   .     S
Cu601  O629    1.962   .     S
Cu602  O639    1.928   .     S
Cu602  N628    2.036   .     S
Cu602  O637    1.923   .     S
Cu602  O633    1.962   .     S
Cu602  O635    1.960   .     S
C641   C644    1.450   .     S
C641   O699    1.300   .     A
C641   O693    1.301   .     A
C642   C644    1.400   .     A
C642   H685    1.083   .     S
C643   C663    1.402   .     A
C643   C664    1.398   .     A
C643   C652    1.448   .     S
C644   C662    1.400   .     A
C645   N692    1.382   .     A
C645   O704    1.386   .     S
C645   C1032   1.432   1_545 S
C646   N691    1.377   .     A
C646   O694    1.384   .     S
C646   C839    1.438   .     S
C647   O695    1.384   .     S
C647   N692    1.369   .     A
C647   C1030   1.438   1_545 S
C648   O696    1.387   .     S
C648   N691    1.379   .     A
C648   C837    1.432   .     S
C649   O704    1.414   .     S
C649   C650    1.525   .     S
C649   H686    1.103   .     S
C649   H687    1.111   .     S
C650   H688    1.110   .     S
C650   H689    1.111   .     S
C650   H690    1.111   .     S
C651   C653    1.521   .     S
C651   O694    1.420   .     S
C651   H668    1.111   .     S
C651   H669    1.111   .     S
C652   O698    1.298   .     A
C652   O697    1.302   .     A
C653   H672    1.111   .     S
C653   H671    1.110   .     S
C653   H1246   1.109   .     S
C654   H674    1.110   .     S
C654   H673    1.112   .     S
C654   O695    1.413   .     S
C654   C655    1.522   .     S
C655   H676    1.111   .     S
C655   H675    1.111   .     S
C655   H677    1.110   .     S
C656   O696    1.418   .     S
C656   H680    1.110   .     S
C656   H679    1.096   .     S
C656   C657    1.525   .     S
C657   H681    1.111   .     S
C657   H683    1.111   .     S
C657   H682    1.105   .     S
C658   C660    1.405   .     S
C658   O703    1.297   .     A
C658   O700    1.294   .     A
C659   C661    1.405   .     S
C659   O701    1.293   .     A
C659   O702    1.298   .     A
C661   C1236   1.188   .     S
C662   H667    1.079   .     S
C663   H678    1.084   .     S
C663   C706    1.385   .     S
C664   H684    1.082   .     S
C664   C726    1.381   .     S
Cu665  O700    1.923   .     S
Cu665  N691    2.036   .     S
Cu665  O702    1.928   .     S
Cu665  O698    1.960   .     S
Cu665  Cu666   2.709   .     S
Cu665  O693    1.962   .     S
Cu666  O703    1.928   .     S
Cu666  N692    2.036   .     S
Cu666  O701    1.923   .     S
Cu666  O697    1.962   .     S
Cu666  O699    1.960   .     S
C705   C708    1.450   .     S
C705   O763    1.300   .     A
C705   O757    1.301   .     A
C706   C708    1.400   .     A
C706   H749    1.083   .     S
C707   C727    1.402   .     A
C707   C728    1.398   .     A
C707   C716    1.448   .     S
C708   C726    1.400   .     A
C709   N756    1.382   .     A
C709   O768    1.386   .     S
C709   C1096   1.432   1_545 S
C710   N755    1.377   .     A
C710   O758    1.384   .     S
C710   C903    1.438   .     S
C711   O759    1.384   .     S
C711   N756    1.369   .     A
C711   C1094   1.438   1_545 S
C712   O760    1.387   .     S
C712   N755    1.379   .     A
C712   C901    1.432   .     S
C713   O768    1.414   .     S
C713   C714    1.525   .     S
C713   H750    1.103   .     S
C713   H751    1.111   .     S
C714   H752    1.110   .     S
C714   H753    1.111   .     S
C714   H754    1.111   .     S
C715   C717    1.521   .     S
C715   O758    1.420   .     S
C715   H732    1.111   .     S
C715   H733    1.111   .     S
C716   O762    1.298   .     A
C716   O761    1.302   .     A
C717   H736    1.111   .     S
C717   H735    1.110   .     S
C717   H1310   1.109   .     S
C718   H738    1.110   .     S
C718   H737    1.112   .     S
C718   O759    1.413   .     S
C718   C719    1.522   .     S
C719   H740    1.111   .     S
C719   H739    1.111   .     S
C719   H741    1.110   .     S
C720   O760    1.418   .     S
C720   H744    1.110   .     S
C720   H743    1.096   .     S
C720   C721    1.525   .     S
C721   H745    1.111   .     S
C721   H747    1.111   .     S
C721   H746    1.105   .     S
C722   C724    1.405   .     S
C722   O767    1.297   .     A
C722   O764    1.294   .     A
C723   C725    1.405   .     S
C723   O765    1.293   .     A
C723   O766    1.298   .     A
C725   C1300   1.188   .     S
C726   H731    1.079   .     S
C727   H742    1.084   .     S
C727   C578    1.385   1_655 S
C728   H748    1.082   .     S
C728   C598    1.381   1_655 S
Cu729  O764    1.923   .     S
Cu729  N755    2.036   .     S
Cu729  O766    1.928   .     S
Cu729  O762    1.960   .     S
Cu729  Cu730   2.709   .     S
Cu729  O757    1.962   .     S
Cu730  O767    1.928   .     S
Cu730  N756    2.036   .     S
Cu730  O765    1.923   .     S
Cu730  O761    1.962   .     S
Cu730  O763    1.960   .     S
C769   C772    1.450   .     S
C769   O827    1.300   .     A
C769   O821    1.301   .     A
C770   C772    1.400   .     A
C770   H813    1.083   .     S
C770   C919    1.385   1_455 S
C771   C791    1.402   .     A
C771   C792    1.398   .     A
C771   C780    1.448   .     S
C772   C790    1.400   .     A
C773   N820    1.382   .     A
C773   O832    1.386   .     S
C774   N819    1.377   .     A
C774   O822    1.384   .     S
C774   C967    1.438   .     S
C775   O823    1.384   .     S
C775   N820    1.369   .     A
C776   O824    1.387   .     S
C776   N819    1.379   .     A
C776   C965    1.432   .     S
C777   O832    1.414   .     S
C777   C778    1.525   .     S
C777   H814    1.103   .     S
C777   H815    1.111   .     S
C778   H816    1.110   .     S
C778   H817    1.111   .     S
C778   H818    1.111   .     S
C779   C781    1.521   .     S
C779   O822    1.420   .     S
C779   H796    1.111   .     S
C779   H797    1.111   .     S
C780   O826    1.298   .     A
C780   O825    1.302   .     A
C781   H800    1.111   .     S
C781   H799    1.110   .     S
C781   H1374   1.109   .     S
C782   H802    1.110   .     S
C782   H801    1.112   .     S
C782   O823    1.413   .     S
C782   C783    1.522   .     S
C783   H804    1.111   .     S
C783   H803    1.111   .     S
C783   H805    1.110   .     S
C784   O824    1.418   .     S
C784   H808    1.110   .     S
C784   H807    1.096   .     S
C784   C785    1.525   .     S
C785   H809    1.111   .     S
C785   H811    1.111   .     S
C785   H810    1.105   .     S
C786   C788    1.405   .     S
C786   O831    1.297   .     A
C786   O828    1.294   .     A
C787   C789    1.405   .     S
C787   O829    1.293   .     A
C787   O830    1.298   .     A
C789   C1364   1.188   .     S
C790   H795    1.079   .     S
C790   C920    1.381   1_455 S
C791   H806    1.084   .     S
C791   C834    1.385   .     S
C792   H812    1.082   .     S
C792   C854    1.381   .     S
Cu793  O828    1.923   .     S
Cu793  N819    2.036   .     S
Cu793  O830    1.928   .     S
Cu793  O826    1.960   .     S
Cu793  Cu794   2.709   .     S
Cu793  O821    1.962   .     S
Cu794  O831    1.928   .     S
Cu794  N820    2.036   .     S
Cu794  O829    1.923   .     S
Cu794  O825    1.962   .     S
Cu794  O827    1.960   .     S
C833   C836    1.450   .     S
C833   O891    1.300   .     A
C833   O885    1.301   .     A
C834   C836    1.400   .     A
C834   H877    1.083   .     S
C835   C855    1.402   .     A
C835   C856    1.398   .     A
C835   C844    1.448   .     S
C836   C854    1.400   .     A
C837   N884    1.382   .     A
C837   O896    1.386   .     S
C838   N883    1.377   .     A
C838   O886    1.384   .     S
C838   C1031   1.438   .     S
C839   O887    1.384   .     S
C839   N884    1.369   .     A
C840   O888    1.387   .     S
C840   N883    1.379   .     A
C840   C1029   1.432   .     S
C841   O896    1.414   .     S
C841   C842    1.525   .     S
C841   H878    1.103   .     S
C841   H879    1.111   .     S
C842   H880    1.110   .     S
C842   H881    1.111   .     S
C842   H882    1.111   .     S
C843   C845    1.521   .     S
C843   O886    1.420   .     S
C843   H860    1.111   .     S
C843   H861    1.111   .     S
C844   O890    1.298   .     A
C844   O889    1.302   .     A
C845   H864    1.111   .     S
C845   H863    1.110   .     S
C845   H1438   1.109   .     S
C846   H866    1.110   .     S
C846   H865    1.112   .     S
C846   O887    1.413   .     S
C846   C847    1.522   .     S
C847   H868    1.111   .     S
C847   H867    1.111   .     S
C847   H869    1.110   .     S
C848   O888    1.418   .     S
C848   H872    1.110   .     S
C848   H871    1.096   .     S
C848   C849    1.525   .     S
C849   H873    1.111   .     S
C849   H875    1.111   .     S
C849   H874    1.105   .     S
C850   C852    1.405   .     S
C850   O895    1.297   .     A
C850   O892    1.294   .     A
C851   C853    1.405   .     S
C851   O893    1.293   .     A
C851   O894    1.298   .     A
C853   C1428   1.188   .     S
C854   H859    1.079   .     S
C855   H870    1.084   .     S
C855   C898    1.385   .     S
C856   H876    1.082   .     S
C856   C918    1.381   .     S
Cu857  O892    1.923   .     S
Cu857  N883    2.036   .     S
Cu857  O894    1.928   .     S
Cu857  O890    1.960   .     S
Cu857  Cu858   2.709   .     S
Cu857  O885    1.962   .     S
Cu858  O895    1.928   .     S
Cu858  N884    2.036   .     S
Cu858  O893    1.923   .     S
Cu858  O889    1.962   .     S
Cu858  O891    1.960   .     S
C897   C900    1.450   .     S
C897   O955    1.300   .     A
C897   O949    1.301   .     A
C898   C900    1.400   .     A
C898   H941    1.083   .     S
C899   C919    1.402   .     A
C899   C920    1.398   .     A
C899   C908    1.448   .     S
C900   C918    1.400   .     A
C901   N948    1.382   .     A
C901   O960    1.386   .     S
C902   N947    1.377   .     A
C902   O950    1.384   .     S
C902   C1095   1.438   .     S
C903   O951    1.384   .     S
C903   N948    1.369   .     A
C904   O952    1.387   .     S
C904   N947    1.379   .     A
C904   C1093   1.432   .     S
C905   O960    1.414   .     S
C905   C906    1.525   .     S
C905   H942    1.103   .     S
C905   H943    1.111   .     S
C906   H944    1.110   .     S
C906   H945    1.111   .     S
C906   H946    1.111   .     S
C907   C909    1.521   .     S
C907   O950    1.420   .     S
C907   H924    1.111   .     S
C907   H925    1.111   .     S
C908   O954    1.298   .     A
C908   O953    1.302   .     A
C909   H928    1.111   .     S
C909   H927    1.110   .     S
C909   H1502   1.109   .     S
C910   H930    1.110   .     S
C910   H929    1.112   .     S
C910   O951    1.413   .     S
C910   C911    1.522   .     S
C911   H932    1.111   .     S
C911   H931    1.111   .     S
C911   H933    1.110   .     S
C912   O952    1.418   .     S
C912   H936    1.110   .     S
C912   H935    1.096   .     S
C912   C913    1.525   .     S
C913   H937    1.111   .     S
C913   H939    1.111   .     S
C913   H938    1.105   .     S
C914   C916    1.405   .     S
C914   O959    1.297   .     A
C914   O956    1.294   .     A
C915   C917    1.405   .     S
C915   O957    1.293   .     A
C915   O958    1.298   .     A
C917   C1492   1.188   .     S
C918   H923    1.079   .     S
C919   H934    1.084   .     S
C919   C770    1.385   1_655 S
C920   H940    1.082   .     S
C920   C790    1.381   1_655 S
Cu921  O956    1.923   .     S
Cu921  N947    2.036   .     S
Cu921  O958    1.928   .     S
Cu921  O954    1.960   .     S
Cu921  Cu922   2.709   .     S
Cu921  O949    1.962   .     S
Cu922  O959    1.928   .     S
Cu922  N948    2.036   .     S
Cu922  O957    1.923   .     S
Cu922  O953    1.962   .     S
Cu922  O955    1.960   .     S
C961   C964    1.450   .     S
C961   O1019   1.300   .     A
C961   O1013   1.301   .     A
C962   C964    1.400   .     A
C962   H1005   1.083   .     S
C962   C1111   1.385   1_455 S
C963   C983    1.402   .     A
C963   C984    1.398   .     A
C963   C972    1.448   .     S
C964   C982    1.400   .     A
C965   N1012   1.382   .     A
C965   O1024   1.386   .     S
C966   N1011   1.377   .     A
C966   O1014   1.384   .     S
C966   C583    1.438   1_565 S
C967   O1015   1.384   .     S
C967   N1012   1.369   .     A
C968   O1016   1.387   .     S
C968   N1011   1.379   .     A
C968   C581    1.432   1_565 S
C969   O1024   1.414   .     S
C969   C970    1.525   .     S
C969   H1006   1.103   .     S
C969   H1007   1.111   .     S
C970   H1008   1.110   .     S
C970   H1009   1.111   .     S
C970   H1010   1.111   .     S
C971   C973    1.521   .     S
C971   O1014   1.420   .     S
C971   H988    1.111   .     S
C971   H989    1.111   .     S
C972   O1018   1.298   .     A
C972   O1017   1.302   .     A
C973   H992    1.111   .     S
C973   H991    1.110   .     S
C973   H1566   1.109   .     S
C974   H994    1.110   .     S
C974   H993    1.112   .     S
C974   O1015   1.413   .     S
C974   C975    1.522   .     S
C975   H996    1.111   .     S
C975   H995    1.111   .     S
C975   H997    1.110   .     S
C976   O1016   1.418   .     S
C976   H1000   1.110   .     S
C976   H999    1.096   .     S
C976   C977    1.525   .     S
C977   H1001   1.111   .     S
C977   H1003   1.111   .     S
C977   H1002   1.105   .     S
C978   C980    1.405   .     S
C978   O1023   1.297   .     A
C978   O1020   1.294   .     A
C979   C981    1.405   .     S
C979   O1021   1.293   .     A
C979   O1022   1.298   .     A
C981   C1556   1.188   .     S
C982   H987    1.079   .     S
C982   C1112   1.381   1_455 S
C983   H998    1.084   .     S
C983   C1026   1.385   .     S
C984   H1004   1.082   .     S
C984   C1046   1.381   .     S
Cu985  O1020   1.923   .     S
Cu985  N1011   2.036   .     S
Cu985  O1022   1.928   .     S
Cu985  O1018   1.960   .     S
Cu985  Cu986   2.709   .     S
Cu985  O1013   1.962   .     S
Cu986  O1023   1.928   .     S
Cu986  N1012   2.036   .     S
Cu986  O1021   1.923   .     S
Cu986  O1017   1.962   .     S
Cu986  O1019   1.960   .     S
C1025  C1028   1.450   .     S
C1025  O1083   1.300   .     A
C1025  O1077   1.301   .     A
C1026  C1028   1.400   .     A
C1026  H1069   1.083   .     S
C1027  C1047   1.402   .     A
C1027  C1048   1.398   .     A
C1027  C1036   1.448   .     S
C1028  C1046   1.400   .     A
C1029  N1076   1.382   .     A
C1029  O1088   1.386   .     S
C1030  N1075   1.377   .     A
C1030  O1078   1.384   .     S
C1030  C647    1.438   1_565 S
C1031  O1079   1.384   .     S
C1031  N1076   1.369   .     A
C1032  O1080   1.387   .     S
C1032  N1075   1.379   .     A
C1032  C645    1.432   1_565 S
C1033  O1088   1.414   .     S
C1033  C1034   1.525   .     S
C1033  H1070   1.103   .     S
C1033  H1071   1.111   .     S
C1034  H1072   1.110   .     S
C1034  H1073   1.111   .     S
C1034  H1074   1.111   .     S
C1035  C1037   1.521   .     S
C1035  O1078   1.420   .     S
C1035  H1052   1.111   .     S
C1035  H1053   1.111   .     S
C1036  O1082   1.298   .     A
C1036  O1081   1.302   .     A
C1037  H1056   1.111   .     S
C1037  H1055   1.110   .     S
C1037  H1630   1.109   .     S
C1038  H1058   1.110   .     S
C1038  H1057   1.112   .     S
C1038  O1079   1.413   .     S
C1038  C1039   1.522   .     S
C1039  H1060   1.111   .     S
C1039  H1059   1.111   .     S
C1039  H1061   1.110   .     S
C1040  O1080   1.418   .     S
C1040  H1064   1.110   .     S
C1040  H1063   1.096   .     S
C1040  C1041   1.525   .     S
C1041  H1065   1.111   .     S
C1041  H1067   1.111   .     S
C1041  H1066   1.105   .     S
C1042  C1044   1.405   .     S
C1042  O1087   1.297   .     A
C1042  O1084   1.294   .     A
C1043  C1045   1.405   .     S
C1043  O1085   1.293   .     A
C1043  O1086   1.298   .     A
C1045  C1620   1.188   .     S
C1046  H1051   1.079   .     S
C1047  H1062   1.084   .     S
C1047  C1090   1.385   .     S
C1048  H1068   1.082   .     S
C1048  C1110   1.381   .     S
Cu1049 O1084   1.923   .     S
Cu1049 N1075   2.036   .     S
Cu1049 O1086   1.928   .     S
Cu1049 O1082   1.960   .     S
Cu1049 Cu1050  2.709   .     S
Cu1049 O1077   1.962   .     S
Cu1050 O1087   1.928   .     S
Cu1050 N1076   2.036   .     S
Cu1050 O1085   1.923   .     S
Cu1050 O1081   1.962   .     S
Cu1050 O1083   1.960   .     S
C1089  C1092   1.450   .     S
C1089  O1147   1.300   .     A
C1089  O1141   1.301   .     A
C1090  C1092   1.400   .     A
C1090  H1133   1.083   .     S
C1091  C1111   1.402   .     A
C1091  C1112   1.398   .     A
C1091  C1100   1.448   .     S
C1092  C1110   1.400   .     A
C1093  N1140   1.382   .     A
C1093  O1152   1.386   .     S
C1094  N1139   1.377   .     A
C1094  O1142   1.384   .     S
C1094  C711    1.438   1_565 S
C1095  O1143   1.384   .     S
C1095  N1140   1.369   .     A
C1096  O1144   1.387   .     S
C1096  N1139   1.379   .     A
C1096  C709    1.432   1_565 S
C1097  O1152   1.414   .     S
C1097  C1098   1.525   .     S
C1097  H1134   1.103   .     S
C1097  H1135   1.111   .     S
C1098  H1136   1.110   .     S
C1098  H1137   1.111   .     S
C1098  H1138   1.111   .     S
C1099  C1101   1.521   .     S
C1099  O1142   1.420   .     S
C1099  H1116   1.111   .     S
C1099  H1117   1.111   .     S
C1100  O1146   1.298   .     A
C1100  O1145   1.302   .     A
C1101  H1120   1.111   .     S
C1101  H1119   1.110   .     S
C1101  H1694   1.109   .     S
C1102  H1122   1.110   .     S
C1102  H1121   1.112   .     S
C1102  O1143   1.413   .     S
C1102  C1103   1.522   .     S
C1103  H1124   1.111   .     S
C1103  H1123   1.111   .     S
C1103  H1125   1.110   .     S
C1104  O1144   1.418   .     S
C1104  H1128   1.110   .     S
C1104  H1127   1.096   .     S
C1104  C1105   1.525   .     S
C1105  H1129   1.111   .     S
C1105  H1131   1.111   .     S
C1105  H1130   1.105   .     S
C1106  C1108   1.405   .     S
C1106  O1151   1.297   .     A
C1106  O1148   1.294   .     A
C1107  C1109   1.405   .     S
C1107  O1149   1.293   .     A
C1107  O1150   1.298   .     A
C1109  C1684   1.188   .     S
C1110  H1115   1.079   .     S
C1111  H1126   1.084   .     S
C1111  C962    1.385   1_655 S
C1112  H1132   1.082   .     S
C1112  C982    1.381   1_655 S
Cu1113 O1148   1.923   .     S
Cu1113 N1139   2.036   .     S
Cu1113 O1150   1.928   .     S
Cu1113 O1146   1.960   .     S
Cu1113 Cu1114  2.709   .     S
Cu1113 O1141   1.962   .     S
Cu1114 O1151   1.928   .     S
Cu1114 N1140   2.036   .     S
Cu1114 O1149   1.923   .     S
Cu1114 O1145   1.962   .     S
Cu1114 O1147   1.960   .     S
C1153  C1156   1.450   .     S
C1153  O1211   1.300   .     A
C1153  O1205   1.301   .     A
C1154  C1156   1.400   .     A
C1154  H1197   1.083   .     S
C1154  C1303   1.385   1_455 S
C1155  C1175   1.402   .     A
C1155  C1176   1.398   .     A
C1155  C1164   1.448   .     S
C1156  C1174   1.400   .     A
C1157  N1204   1.382   .     A
C1157  O1216   1.386   .     S
C1157  C1544   1.432   1_545 S
C1158  N1203   1.377   .     A
C1158  O1206   1.384   .     S
C1158  C1351   1.438   .     S
C1159  O1207   1.384   .     S
C1159  N1204   1.369   .     A
C1159  C1542   1.438   1_545 S
C1160  O1208   1.387   .     S
C1160  N1203   1.379   .     A
C1160  C1349   1.432   .     S
C1161  O1216   1.414   .     S
C1161  C1162   1.525   .     S
C1161  H1198   1.103   .     S
C1161  H1199   1.111   .     S
C1162  H1200   1.110   .     S
C1162  H1201   1.111   .     S
C1162  H1202   1.111   .     S
C1163  C1165   1.521   .     S
C1163  O1206   1.420   .     S
C1163  H1180   1.111   .     S
C1163  H1181   1.111   .     S
C1164  O1210   1.298   .     A
C1164  O1209   1.302   .     A
C1165  H1184   1.111   .     S
C1165  H1183   1.110   .     S
C1165  H30     1.109   1_556 S
C1166  H1186   1.110   .     S
C1166  H1185   1.112   .     S
C1166  O1207   1.413   .     S
C1166  C1167   1.522   .     S
C1167  H1188   1.111   .     S
C1167  H1187   1.111   .     S
C1167  H1189   1.110   .     S
C1168  O1208   1.418   .     S
C1168  H1192   1.110   .     S
C1168  H1191   1.096   .     S
C1168  C1169   1.525   .     S
C1169  H1193   1.111   .     S
C1169  H1195   1.111   .     S
C1169  H1194   1.105   .     S
C1170  C1172   1.405   .     S
C1170  O1215   1.297   .     A
C1170  O1212   1.294   .     A
C1171  C1173   1.405   .     S
C1171  O1213   1.293   .     A
C1171  O1214   1.298   .     A
C1173  C20     1.188   1_556 S
C1174  H1179   1.079   .     S
C1174  C1304   1.381   1_455 S
C1175  H1190   1.084   .     S
C1175  C1218   1.385   .     S
C1176  H1196   1.082   .     S
C1176  C1238   1.381   .     S
Cu1177 O1212   1.923   .     S
Cu1177 N1203   2.036   .     S
Cu1177 O1214   1.928   .     S
Cu1177 O1210   1.960   .     S
Cu1177 Cu1178  2.709   .     S
Cu1177 O1205   1.962   .     S
Cu1178 O1215   1.928   .     S
Cu1178 N1204   2.036   .     S
Cu1178 O1213   1.923   .     S
Cu1178 O1209   1.962   .     S
Cu1178 O1211   1.960   .     S
C1217  C1220   1.450   .     S
C1217  O1275   1.300   .     A
C1217  O1269   1.301   .     A
C1218  C1220   1.400   .     A
C1218  H1261   1.083   .     S
C1219  C1239   1.402   .     A
C1219  C1240   1.398   .     A
C1219  C1228   1.448   .     S
C1220  C1238   1.400   .     A
C1221  N1268   1.382   .     A
C1221  O1280   1.386   .     S
C1221  C1608   1.432   1_545 S
C1222  N1267   1.377   .     A
C1222  O1270   1.384   .     S
C1222  C1415   1.438   .     S
C1223  O1271   1.384   .     S
C1223  N1268   1.369   .     A
C1223  C1606   1.438   1_545 S
C1224  O1272   1.387   .     S
C1224  N1267   1.379   .     A
C1224  C1413   1.432   .     S
C1225  O1280   1.414   .     S
C1225  C1226   1.525   .     S
C1225  H1262   1.103   .     S
C1225  H1263   1.111   .     S
C1226  H1264   1.110   .     S
C1226  H1265   1.111   .     S
C1226  H1266   1.111   .     S
C1227  C1229   1.521   .     S
C1227  O1270   1.420   .     S
C1227  H1244   1.111   .     S
C1227  H1245   1.111   .     S
C1228  O1274   1.298   .     A
C1228  O1273   1.302   .     A
C1229  H1248   1.111   .     S
C1229  H1247   1.110   .     S
C1229  H94     1.109   1_556 S
C1230  H1250   1.110   .     S
C1230  H1249   1.112   .     S
C1230  O1271   1.413   .     S
C1230  C1231   1.522   .     S
C1231  H1252   1.111   .     S
C1231  H1251   1.111   .     S
C1231  H1253   1.110   .     S
C1232  O1272   1.418   .     S
C1232  H1256   1.110   .     S
C1232  H1255   1.096   .     S
C1232  C1233   1.525   .     S
C1233  H1257   1.111   .     S
C1233  H1259   1.111   .     S
C1233  H1258   1.105   .     S
C1234  C1236   1.405   .     S
C1234  O1279   1.297   .     A
C1234  O1276   1.294   .     A
C1235  C1237   1.405   .     S
C1235  O1277   1.293   .     A
C1235  O1278   1.298   .     A
C1237  C84     1.188   1_556 S
C1238  H1243   1.079   .     S
C1239  H1254   1.084   .     S
C1239  C1282   1.385   .     S
C1240  H1260   1.082   .     S
C1240  C1302   1.381   .     S
Cu1241 O1276   1.923   .     S
Cu1241 N1267   2.036   .     S
Cu1241 O1278   1.928   .     S
Cu1241 O1274   1.960   .     S
Cu1241 Cu1242  2.709   .     S
Cu1241 O1269   1.962   .     S
Cu1242 O1279   1.928   .     S
Cu1242 N1268   2.036   .     S
Cu1242 O1277   1.923   .     S
Cu1242 O1273   1.962   .     S
Cu1242 O1275   1.960   .     S
C1281  C1284   1.450   .     S
C1281  O1339   1.300   .     A
C1281  O1333   1.301   .     A
C1282  C1284   1.400   .     A
C1282  H1325   1.083   .     S
C1283  C1303   1.402   .     A
C1283  C1304   1.398   .     A
C1283  C1292   1.448   .     S
C1284  C1302   1.400   .     A
C1285  N1332   1.382   .     A
C1285  O1344   1.386   .     S
C1285  C1672   1.432   1_545 S
C1286  N1331   1.377   .     A
C1286  O1334   1.384   .     S
C1286  C1479   1.438   .     S
C1287  O1335   1.384   .     S
C1287  N1332   1.369   .     A
C1287  C1670   1.438   1_545 S
C1288  O1336   1.387   .     S
C1288  N1331   1.379   .     A
C1288  C1477   1.432   .     S
C1289  O1344   1.414   .     S
C1289  C1290   1.525   .     S
C1289  H1326   1.103   .     S
C1289  H1327   1.111   .     S
C1290  H1328   1.110   .     S
C1290  H1329   1.111   .     S
C1290  H1330   1.111   .     S
C1291  C1293   1.521   .     S
C1291  O1334   1.420   .     S
C1291  H1308   1.111   .     S
C1291  H1309   1.111   .     S
C1292  O1338   1.298   .     A
C1292  O1337   1.302   .     A
C1293  H1312   1.111   .     S
C1293  H1311   1.110   .     S
C1293  H158    1.109   1_556 S
C1294  H1314   1.110   .     S
C1294  H1313   1.112   .     S
C1294  O1335   1.413   .     S
C1294  C1295   1.522   .     S
C1295  H1316   1.111   .     S
C1295  H1315   1.111   .     S
C1295  H1317   1.110   .     S
C1296  O1336   1.418   .     S
C1296  H1320   1.110   .     S
C1296  H1319   1.096   .     S
C1296  C1297   1.525   .     S
C1297  H1321   1.111   .     S
C1297  H1323   1.111   .     S
C1297  H1322   1.105   .     S
C1298  C1300   1.405   .     S
C1298  O1343   1.297   .     A
C1298  O1340   1.294   .     A
C1299  C1301   1.405   .     S
C1299  O1341   1.293   .     A
C1299  O1342   1.298   .     A
C1301  C148    1.188   1_556 S
C1302  H1307   1.079   .     S
C1303  H1318   1.084   .     S
C1303  C1154   1.385   1_655 S
C1304  H1324   1.082   .     S
C1304  C1174   1.381   1_655 S
Cu1305 O1340   1.923   .     S
Cu1305 N1331   2.036   .     S
Cu1305 O1342   1.928   .     S
Cu1305 O1338   1.960   .     S
Cu1305 Cu1306  2.709   .     S
Cu1305 O1333   1.962   .     S
Cu1306 O1343   1.928   .     S
Cu1306 N1332   2.036   .     S
Cu1306 O1341   1.923   .     S
Cu1306 O1337   1.962   .     S
Cu1306 O1339   1.960   .     S
C1345  C1348   1.450   .     S
C1345  O1403   1.300   .     A
C1345  O1397   1.301   .     A
C1346  C1348   1.400   .     A
C1346  H1389   1.083   .     S
C1346  C1495   1.385   1_455 S
C1347  C1367   1.402   .     A
C1347  C1368   1.398   .     A
C1347  C1356   1.448   .     S
C1348  C1366   1.400   .     A
C1349  N1396   1.382   .     A
C1349  O1408   1.386   .     S
C1350  N1395   1.377   .     A
C1350  O1398   1.384   .     S
C1350  C1543   1.438   .     S
C1351  O1399   1.384   .     S
C1351  N1396   1.369   .     A
C1352  O1400   1.387   .     S
C1352  N1395   1.379   .     A
C1352  C1541   1.432   .     S
C1353  O1408   1.414   .     S
C1353  C1354   1.525   .     S
C1353  H1390   1.103   .     S
C1353  H1391   1.111   .     S
C1354  H1392   1.110   .     S
C1354  H1393   1.111   .     S
C1354  H1394   1.111   .     S
C1355  C1357   1.521   .     S
C1355  O1398   1.420   .     S
C1355  H1372   1.111   .     S
C1355  H1373   1.111   .     S
C1356  O1402   1.298   .     A
C1356  O1401   1.302   .     A
C1357  H1376   1.111   .     S
C1357  H1375   1.110   .     S
C1357  H222    1.109   1_556 S
C1358  H1378   1.110   .     S
C1358  H1377   1.112   .     S
C1358  O1399   1.413   .     S
C1358  C1359   1.522   .     S
C1359  H1380   1.111   .     S
C1359  H1379   1.111   .     S
C1359  H1381   1.110   .     S
C1360  O1400   1.418   .     S
C1360  H1384   1.110   .     S
C1360  H1383   1.096   .     S
C1360  C1361   1.525   .     S
C1361  H1385   1.111   .     S
C1361  H1387   1.111   .     S
C1361  H1386   1.105   .     S
C1362  C1364   1.405   .     S
C1362  O1407   1.297   .     A
C1362  O1404   1.294   .     A
C1363  C1365   1.405   .     S
C1363  O1405   1.293   .     A
C1363  O1406   1.298   .     A
C1365  C212    1.188   1_556 S
C1366  H1371   1.079   .     S
C1366  C1496   1.381   1_455 S
C1367  H1382   1.084   .     S
C1367  C1410   1.385   .     S
C1368  H1388   1.082   .     S
C1368  C1430   1.381   .     S
Cu1369 O1404   1.923   .     S
Cu1369 N1395   2.036   .     S
Cu1369 O1406   1.928   .     S
Cu1369 O1402   1.960   .     S
Cu1369 Cu1370  2.709   .     S
Cu1369 O1397   1.962   .     S
Cu1370 O1407   1.928   .     S
Cu1370 N1396   2.036   .     S
Cu1370 O1405   1.923   .     S
Cu1370 O1401   1.962   .     S
Cu1370 O1403   1.960   .     S
C1409  C1412   1.450   .     S
C1409  O1467   1.300   .     A
C1409  O1461   1.301   .     A
C1410  C1412   1.400   .     A
C1410  H1453   1.083   .     S
C1411  C1431   1.402   .     A
C1411  C1432   1.398   .     A
C1411  C1420   1.448   .     S
C1412  C1430   1.400   .     A
C1413  N1460   1.382   .     A
C1413  O1472   1.386   .     S
C1414  N1459   1.377   .     A
C1414  O1462   1.384   .     S
C1414  C1607   1.438   .     S
C1415  O1463   1.384   .     S
C1415  N1460   1.369   .     A
C1416  O1464   1.387   .     S
C1416  N1459   1.379   .     A
C1416  C1605   1.432   .     S
C1417  O1472   1.414   .     S
C1417  C1418   1.525   .     S
C1417  H1454   1.103   .     S
C1417  H1455   1.111   .     S
C1418  H1456   1.110   .     S
C1418  H1457   1.111   .     S
C1418  H1458   1.111   .     S
C1419  C1421   1.521   .     S
C1419  O1462   1.420   .     S
C1419  H1436   1.111   .     S
C1419  H1437   1.111   .     S
C1420  O1466   1.298   .     A
C1420  O1465   1.302   .     A
C1421  H1440   1.111   .     S
C1421  H1439   1.110   .     S
C1421  H286    1.109   1_556 S
C1422  H1442   1.110   .     S
C1422  H1441   1.112   .     S
C1422  O1463   1.413   .     S
C1422  C1423   1.522   .     S
C1423  H1444   1.111   .     S
C1423  H1443   1.111   .     S
C1423  H1445   1.110   .     S
C1424  O1464   1.418   .     S
C1424  H1448   1.110   .     S
C1424  H1447   1.096   .     S
C1424  C1425   1.525   .     S
C1425  H1449   1.111   .     S
C1425  H1451   1.111   .     S
C1425  H1450   1.105   .     S
C1426  C1428   1.405   .     S
C1426  O1471   1.297   .     A
C1426  O1468   1.294   .     A
C1427  C1429   1.405   .     S
C1427  O1469   1.293   .     A
C1427  O1470   1.298   .     A
C1429  C276    1.188   1_556 S
C1430  H1435   1.079   .     S
C1431  H1446   1.084   .     S
C1431  C1474   1.385   .     S
C1432  H1452   1.082   .     S
C1432  C1494   1.381   .     S
Cu1433 O1468   1.923   .     S
Cu1433 N1459   2.036   .     S
Cu1433 O1470   1.928   .     S
Cu1433 O1466   1.960   .     S
Cu1433 Cu1434  2.709   .     S
Cu1433 O1461   1.962   .     S
Cu1434 O1471   1.928   .     S
Cu1434 N1460   2.036   .     S
Cu1434 O1469   1.923   .     S
Cu1434 O1465   1.962   .     S
Cu1434 O1467   1.960   .     S
C1473  C1476   1.450   .     S
C1473  O1531   1.300   .     A
C1473  O1525   1.301   .     A
C1474  C1476   1.400   .     A
C1474  H1517   1.083   .     S
C1475  C1495   1.402   .     A
C1475  C1496   1.398   .     A
C1475  C1484   1.448   .     S
C1476  C1494   1.400   .     A
C1477  N1524   1.382   .     A
C1477  O1536   1.386   .     S
C1478  N1523   1.377   .     A
C1478  O1526   1.384   .     S
C1478  C1671   1.438   .     S
C1479  O1527   1.384   .     S
C1479  N1524   1.369   .     A
C1480  O1528   1.387   .     S
C1480  N1523   1.379   .     A
C1480  C1669   1.432   .     S
C1481  O1536   1.414   .     S
C1481  C1482   1.525   .     S
C1481  H1518   1.103   .     S
C1481  H1519   1.111   .     S
C1482  H1520   1.110   .     S
C1482  H1521   1.111   .     S
C1482  H1522   1.111   .     S
C1483  C1485   1.521   .     S
C1483  O1526   1.420   .     S
C1483  H1500   1.111   .     S
C1483  H1501   1.111   .     S
C1484  O1530   1.298   .     A
C1484  O1529   1.302   .     A
C1485  H1504   1.111   .     S
C1485  H1503   1.110   .     S
C1485  H350    1.109   1_556 S
C1486  H1506   1.110   .     S
C1486  H1505   1.112   .     S
C1486  O1527   1.413   .     S
C1486  C1487   1.522   .     S
C1487  H1508   1.111   .     S
C1487  H1507   1.111   .     S
C1487  H1509   1.110   .     S
C1488  O1528   1.418   .     S
C1488  H1512   1.110   .     S
C1488  H1511   1.096   .     S
C1488  C1489   1.525   .     S
C1489  H1513   1.111   .     S
C1489  H1515   1.111   .     S
C1489  H1514   1.105   .     S
C1490  C1492   1.405   .     S
C1490  O1535   1.297   .     A
C1490  O1532   1.294   .     A
C1491  C1493   1.405   .     S
C1491  O1533   1.293   .     A
C1491  O1534   1.298   .     A
C1493  C340    1.188   1_556 S
C1494  H1499   1.079   .     S
C1495  H1510   1.084   .     S
C1495  C1346   1.385   1_655 S
C1496  H1516   1.082   .     S
C1496  C1366   1.381   1_655 S
Cu1497 O1532   1.923   .     S
Cu1497 N1523   2.036   .     S
Cu1497 O1534   1.928   .     S
Cu1497 O1530   1.960   .     S
Cu1497 Cu1498  2.709   .     S
Cu1497 O1525   1.962   .     S
Cu1498 O1535   1.928   .     S
Cu1498 N1524   2.036   .     S
Cu1498 O1533   1.923   .     S
Cu1498 O1529   1.962   .     S
Cu1498 O1531   1.960   .     S
C1537  C1540   1.450   .     S
C1537  O1595   1.300   .     A
C1537  O1589   1.301   .     A
C1538  C1540   1.400   .     A
C1538  H1581   1.083   .     S
C1538  C1687   1.385   1_455 S
C1539  C1559   1.402   .     A
C1539  C1560   1.398   .     A
C1539  C1548   1.448   .     S
C1540  C1558   1.400   .     A
C1541  N1588   1.382   .     A
C1541  O1600   1.386   .     S
C1542  N1587   1.377   .     A
C1542  O1590   1.384   .     S
C1542  C1159   1.438   1_565 S
C1543  O1591   1.384   .     S
C1543  N1588   1.369   .     A
C1544  O1592   1.387   .     S
C1544  N1587   1.379   .     A
C1544  C1157   1.432   1_565 S
C1545  O1600   1.414   .     S
C1545  C1546   1.525   .     S
C1545  H1582   1.103   .     S
C1545  H1583   1.111   .     S
C1546  H1584   1.110   .     S
C1546  H1585   1.111   .     S
C1546  H1586   1.111   .     S
C1547  C1549   1.521   .     S
C1547  O1590   1.420   .     S
C1547  H1564   1.111   .     S
C1547  H1565   1.111   .     S
C1548  O1594   1.298   .     A
C1548  O1593   1.302   .     A
C1549  H1568   1.111   .     S
C1549  H1567   1.110   .     S
C1549  H414    1.109   1_556 S
C1550  H1570   1.110   .     S
C1550  H1569   1.112   .     S
C1550  O1591   1.413   .     S
C1550  C1551   1.522   .     S
C1551  H1572   1.111   .     S
C1551  H1571   1.111   .     S
C1551  H1573   1.110   .     S
C1552  O1592   1.418   .     S
C1552  H1576   1.110   .     S
C1552  H1575   1.096   .     S
C1552  C1553   1.525   .     S
C1553  H1577   1.111   .     S
C1553  H1579   1.111   .     S
C1553  H1578   1.105   .     S
C1554  C1556   1.405   .     S
C1554  O1599   1.297   .     A
C1554  O1596   1.294   .     A
C1555  C1557   1.405   .     S
C1555  O1597   1.293   .     A
C1555  O1598   1.298   .     A
C1557  C404    1.188   1_556 S
C1558  H1563   1.079   .     S
C1558  C1688   1.381   1_455 S
C1559  H1574   1.084   .     S
C1559  C1602   1.385   .     S
C1560  H1580   1.082   .     S
C1560  C1622   1.381   .     S
Cu1561 O1596   1.923   .     S
Cu1561 N1587   2.036   .     S
Cu1561 O1598   1.928   .     S
Cu1561 O1594   1.960   .     S
Cu1561 Cu1562  2.709   .     S
Cu1561 O1589   1.962   .     S
Cu1562 O1599   1.928   .     S
Cu1562 N1588   2.036   .     S
Cu1562 O1597   1.923   .     S
Cu1562 O1593   1.962   .     S
Cu1562 O1595   1.960   .     S
C1601  C1604   1.450   .     S
C1601  O1659   1.300   .     A
C1601  O1653   1.301   .     A
C1602  C1604   1.400   .     A
C1602  H1645   1.083   .     S
C1603  C1623   1.402   .     A
C1603  C1624   1.398   .     A
C1603  C1612   1.448   .     S
C1604  C1622   1.400   .     A
C1605  N1652   1.382   .     A
C1605  O1664   1.386   .     S
C1606  N1651   1.377   .     A
C1606  O1654   1.384   .     S
C1606  C1223   1.438   1_565 S
C1607  O1655   1.384   .     S
C1607  N1652   1.369   .     A
C1608  O1656   1.387   .     S
C1608  N1651   1.379   .     A
C1608  C1221   1.432   1_565 S
C1609  O1664   1.414   .     S
C1609  C1610   1.525   .     S
C1609  H1646   1.103   .     S
C1609  H1647   1.111   .     S
C1610  H1648   1.110   .     S
C1610  H1649   1.111   .     S
C1610  H1650   1.111   .     S
C1611  C1613   1.521   .     S
C1611  O1654   1.420   .     S
C1611  H1628   1.111   .     S
C1611  H1629   1.111   .     S
C1612  O1658   1.298   .     A
C1612  O1657   1.302   .     A
C1613  H1632   1.111   .     S
C1613  H1631   1.110   .     S
C1613  H478    1.109   1_556 S
C1614  H1634   1.110   .     S
C1614  H1633   1.112   .     S
C1614  O1655   1.413   .     S
C1614  C1615   1.522   .     S
C1615  H1636   1.111   .     S
C1615  H1635   1.111   .     S
C1615  H1637   1.110   .     S
C1616  O1656   1.418   .     S
C1616  H1640   1.110   .     S
C1616  H1639   1.096   .     S
C1616  C1617   1.525   .     S
C1617  H1641   1.111   .     S
C1617  H1643   1.111   .     S
C1617  H1642   1.105   .     S
C1618  C1620   1.405   .     S
C1618  O1663   1.297   .     A
C1618  O1660   1.294   .     A
C1619  C1621   1.405   .     S
C1619  O1661   1.293   .     A
C1619  O1662   1.298   .     A
C1621  C468    1.188   1_556 S
C1622  H1627   1.079   .     S
C1623  H1638   1.084   .     S
C1623  C1666   1.385   .     S
C1624  H1644   1.082   .     S
C1624  C1686   1.381   .     S
Cu1625 O1660   1.923   .     S
Cu1625 N1651   2.036   .     S
Cu1625 O1662   1.928   .     S
Cu1625 O1658   1.960   .     S
Cu1625 Cu1626  2.709   .     S
Cu1625 O1653   1.962   .     S
Cu1626 O1663   1.928   .     S
Cu1626 N1652   2.036   .     S
Cu1626 O1661   1.923   .     S
Cu1626 O1657   1.962   .     S
Cu1626 O1659   1.960   .     S
C1665  C1668   1.450   .     S
C1665  O1723   1.300   .     A
C1665  O1717   1.301   .     A
C1666  C1668   1.400   .     A
C1666  H1709   1.083   .     S
C1667  C1687   1.402   .     A
C1667  C1688   1.398   .     A
C1667  C1676   1.448   .     S
C1668  C1686   1.400   .     A
C1669  N1716   1.382   .     A
C1669  O1728   1.386   .     S
C1670  N1715   1.377   .     A
C1670  O1718   1.384   .     S
C1670  C1287   1.438   1_565 S
C1671  O1719   1.384   .     S
C1671  N1716   1.369   .     A
C1672  O1720   1.387   .     S
C1672  N1715   1.379   .     A
C1672  C1285   1.432   1_565 S
C1673  O1728   1.414   .     S
C1673  C1674   1.525   .     S
C1673  H1710   1.103   .     S
C1673  H1711   1.111   .     S
C1674  H1712   1.110   .     S
C1674  H1713   1.111   .     S
C1674  H1714   1.111   .     S
C1675  C1677   1.521   .     S
C1675  O1718   1.420   .     S
C1675  H1692   1.111   .     S
C1675  H1693   1.111   .     S
C1676  O1722   1.298   .     A
C1676  O1721   1.302   .     A
C1677  H1696   1.111   .     S
C1677  H1695   1.110   .     S
C1677  H542    1.109   1_556 S
C1678  H1698   1.110   .     S
C1678  H1697   1.112   .     S
C1678  O1719   1.413   .     S
C1678  C1679   1.522   .     S
C1679  H1700   1.111   .     S
C1679  H1699   1.111   .     S
C1679  H1701   1.110   .     S
C1680  O1720   1.418   .     S
C1680  H1704   1.110   .     S
C1680  H1703   1.096   .     S
C1680  C1681   1.525   .     S
C1681  H1705   1.111   .     S
C1681  H1707   1.111   .     S
C1681  H1706   1.105   .     S
C1682  C1684   1.405   .     S
C1682  O1727   1.297   .     A
C1682  O1724   1.294   .     A
C1683  C1685   1.405   .     S
C1683  O1725   1.293   .     A
C1683  O1726   1.298   .     A
C1685  C532    1.188   1_556 S
C1686  H1691   1.079   .     S
C1687  H1702   1.084   .     S
C1687  C1538   1.385   1_655 S
C1688  H1708   1.082   .     S
C1688  C1558   1.381   1_655 S
Cu1689 O1724   1.923   .     S
Cu1689 N1715   2.036   .     S
Cu1689 O1726   1.928   .     S
Cu1689 O1722   1.960   .     S
Cu1689 Cu1690  2.709   .     S
Cu1689 O1717   1.962   .     S
Cu1690 O1727   1.928   .     S
Cu1690 N1716   2.036   .     S
Cu1690 O1725   1.923   .     S
Cu1690 O1721   1.962   .     S
Cu1690 O1723   1.960   .     S
