data_str_m3_o5_o17_pcu_sym.13
_audit_creation_date              2020-01-03
_audit_creation_method            'Materials Studio'
_symmetry_space_group_name_H-M    'P1'
_symmetry_Int_Tables_number       1
_symmetry_cell_setting            triclinic
loop_
_symmetry_equiv_pos_as_xyz
  x,y,z
_cell_length_a                    29.9100
_cell_length_b                    27.0732
_cell_length_c                    24.3308
_cell_angle_alpha                 90.0000
_cell_angle_beta                  90.0000
_cell_angle_gamma                 90.0000
loop_
_atom_site_label
_atom_site_type_symbol
_atom_site_fract_x
_atom_site_fract_y
_atom_site_fract_z
_atom_site_U_iso_or_equiv
_atom_site_adp_type
_atom_site_occupancy
O1     O     0.25000   0.09512   0.21228   0.00000  Uiso   1.00
O2     O     0.25000   0.23822   0.12105   0.00000  Uiso   1.00
O3     O     0.25000   0.23822   0.21228   0.00000  Uiso   1.00
O4     O     0.25000   0.09512   0.12105   0.00000  Uiso   1.00
H5     H     0.46016   0.04186   0.16044   0.00000  Uiso   1.00
H6     H     0.03984   0.29148   0.16044   0.00000  Uiso   1.00
H7     H     0.46016   0.29148   0.17290   0.00000  Uiso   1.00
H8     H     0.03984   0.04186   0.17290   0.00000  Uiso   1.00
C9     C     0.25000   0.07262   0.16667   0.00000  Uiso   1.00
C10    C     0.25000   0.26072   0.16667   0.00000  Uiso   1.00
O11    O     0.18392   0.16667   0.21230   0.00000  Uiso   1.00
O12    O     0.31607   0.16667   0.12104   0.00000  Uiso   1.00
O13    O     0.31607   0.16667   0.21230   0.00000  Uiso   1.00
O14    O     0.18392   0.16667   0.12104   0.00000  Uiso   1.00
C15    C     0.16328   0.16667   0.16667   0.00000  Uiso   1.00
C16    C     0.33672   0.16667   0.16667   0.00000  Uiso   1.00
Zn17   Zn    0.25000   0.16667   0.22759   0.00000  Uiso   1.00
Zn18   Zn    0.25000   0.16667   0.10574   0.00000  Uiso   1.00
N19    N     0.25000   0.16667   0.02455   0.00000  Uiso   1.00
N20    N     0.25000   0.16667   0.30879   0.00000  Uiso   1.00
C21    C     0.40702   0.21075   0.17800   0.00000  Uiso   1.00
C22    C     0.09298   0.12259   0.17800   0.00000  Uiso   1.00
C23    C     0.40702   0.12259   0.15533   0.00000  Uiso   1.00
C24    C     0.09298   0.21075   0.15533   0.00000  Uiso   1.00
C25    C     0.38437   0.16667   0.16667   0.00000  Uiso   1.00
C26    C     0.11562   0.16667   0.16667   0.00000  Uiso   1.00
C27    C     0.45336   0.12157   0.16154   0.00000  Uiso   1.00
C28    C     0.04664   0.21177   0.16154   0.00000  Uiso   1.00
C29    C     0.45336   0.21177   0.17179   0.00000  Uiso   1.00
C30    C     0.04664   0.12157   0.17179   0.00000  Uiso   1.00
C31    C     0.47664   0.16667   0.16667   0.00000  Uiso   1.00
C32    C     0.02336   0.16667   0.16667   0.00000  Uiso   1.00
C33    C     0.47702   0.07696   0.16289   0.00000  Uiso   1.00
C34    C     0.02298   0.25637   0.16289   0.00000  Uiso   1.00
C35    C     0.47702   0.25637   0.17045   0.00000  Uiso   1.00
C36    C     0.02298   0.07696   0.17045   0.00000  Uiso   1.00
C37    C     0.25000   0.02166   0.16667   0.00000  Uiso   1.00
C38    C     0.25000   0.31167   0.16667   0.00000  Uiso   1.00
I39    I     0.37104   0.27378   0.20738   0.00000  Uiso   1.00
I40    I     0.12896   0.05955   0.20738   0.00000  Uiso   1.00
I41    I     0.37104   0.05955   0.12595   0.00000  Uiso   1.00
I42    I     0.12896   0.27378   0.12595   0.00000  Uiso   1.00
O43    O     0.75000   0.09512   0.21228   0.00000  Uiso   1.00
O44    O     0.75000   0.23822   0.12105   0.00000  Uiso   1.00
O45    O     0.75000   0.23822   0.21228   0.00000  Uiso   1.00
O46    O     0.75000   0.09512   0.12105   0.00000  Uiso   1.00
H47    H     0.96016   0.04186   0.16044   0.00000  Uiso   1.00
H48    H     0.53984   0.29148   0.16044   0.00000  Uiso   1.00
H49    H     0.96016   0.29148   0.17290   0.00000  Uiso   1.00
H50    H     0.53984   0.04186   0.17290   0.00000  Uiso   1.00
C51    C     0.75000   0.07262   0.16667   0.00000  Uiso   1.00
C52    C     0.75000   0.26072   0.16667   0.00000  Uiso   1.00
O53    O     0.68392   0.16667   0.21230   0.00000  Uiso   1.00
O54    O     0.81607   0.16667   0.12104   0.00000  Uiso   1.00
O55    O     0.81607   0.16667   0.21230   0.00000  Uiso   1.00
O56    O     0.68392   0.16667   0.12104   0.00000  Uiso   1.00
C57    C     0.66328   0.16667   0.16667   0.00000  Uiso   1.00
C58    C     0.83672   0.16667   0.16667   0.00000  Uiso   1.00
Zn59   Zn    0.75000   0.16667   0.22759   0.00000  Uiso   1.00
Zn60   Zn    0.75000   0.16667   0.10574   0.00000  Uiso   1.00
N61    N     0.75000   0.16667   0.02455   0.00000  Uiso   1.00
N62    N     0.75000   0.16667   0.30879   0.00000  Uiso   1.00
C63    C     0.90702   0.21075   0.17800   0.00000  Uiso   1.00
C64    C     0.59298   0.12259   0.17800   0.00000  Uiso   1.00
C65    C     0.90702   0.12259   0.15533   0.00000  Uiso   1.00
C66    C     0.59298   0.21075   0.15533   0.00000  Uiso   1.00
C67    C     0.88437   0.16667   0.16667   0.00000  Uiso   1.00
C68    C     0.61562   0.16667   0.16667   0.00000  Uiso   1.00
C69    C     0.95336   0.12157   0.16154   0.00000  Uiso   1.00
C70    C     0.54664   0.21177   0.16154   0.00000  Uiso   1.00
C71    C     0.95336   0.21177   0.17179   0.00000  Uiso   1.00
C72    C     0.54664   0.12157   0.17179   0.00000  Uiso   1.00
C73    C     0.97664   0.16667   0.16667   0.00000  Uiso   1.00
C74    C     0.52336   0.16667   0.16667   0.00000  Uiso   1.00
C75    C     0.97702   0.07696   0.16289   0.00000  Uiso   1.00
C76    C     0.52298   0.25637   0.16289   0.00000  Uiso   1.00
C77    C     0.97702   0.25637   0.17045   0.00000  Uiso   1.00
C78    C     0.52298   0.07696   0.17045   0.00000  Uiso   1.00
C79    C     0.75000   0.02166   0.16667   0.00000  Uiso   1.00
C80    C     0.75000   0.31167   0.16667   0.00000  Uiso   1.00
I81    I     0.87104   0.27378   0.20738   0.00000  Uiso   1.00
I82    I     0.62896   0.05955   0.20738   0.00000  Uiso   1.00
I83    I     0.87104   0.05955   0.12595   0.00000  Uiso   1.00
I84    I     0.62896   0.27378   0.12595   0.00000  Uiso   1.00
O85    O     0.25000   0.42845   0.21228   0.00000  Uiso   1.00
O86    O     0.25000   0.57155   0.12105   0.00000  Uiso   1.00
O87    O     0.25000   0.57155   0.21228   0.00000  Uiso   1.00
O88    O     0.25000   0.42845   0.12105   0.00000  Uiso   1.00
H89    H     0.46016   0.37519   0.16044   0.00000  Uiso   1.00
H90    H     0.03984   0.62481   0.16044   0.00000  Uiso   1.00
H91    H     0.46016   0.62481   0.17290   0.00000  Uiso   1.00
H92    H     0.03984   0.37519   0.17290   0.00000  Uiso   1.00
C93    C     0.25000   0.40595   0.16667   0.00000  Uiso   1.00
C94    C     0.25000   0.59405   0.16667   0.00000  Uiso   1.00
O95    O     0.18392   0.50000   0.21230   0.00000  Uiso   1.00
O96    O     0.31607   0.50000   0.12104   0.00000  Uiso   1.00
O97    O     0.31607   0.50000   0.21230   0.00000  Uiso   1.00
O98    O     0.18392   0.50000   0.12104   0.00000  Uiso   1.00
C99    C     0.16328   0.50000   0.16667   0.00000  Uiso   1.00
C100   C     0.33672   0.50000   0.16667   0.00000  Uiso   1.00
Zn101  Zn    0.25000   0.50000   0.22759   0.00000  Uiso   1.00
Zn102  Zn    0.25000   0.50000   0.10574   0.00000  Uiso   1.00
N103   N     0.25000   0.50000   0.02455   0.00000  Uiso   1.00
N104   N     0.25000   0.50000   0.30879   0.00000  Uiso   1.00
C105   C     0.40702   0.54408   0.17800   0.00000  Uiso   1.00
C106   C     0.09298   0.45592   0.17800   0.00000  Uiso   1.00
C107   C     0.40702   0.45592   0.15533   0.00000  Uiso   1.00
C108   C     0.09298   0.54408   0.15533   0.00000  Uiso   1.00
C109   C     0.38437   0.50000   0.16667   0.00000  Uiso   1.00
C110   C     0.11562   0.50000   0.16667   0.00000  Uiso   1.00
C111   C     0.45336   0.45490   0.16154   0.00000  Uiso   1.00
C112   C     0.04664   0.54510   0.16154   0.00000  Uiso   1.00
C113   C     0.45336   0.54510   0.17179   0.00000  Uiso   1.00
C114   C     0.04664   0.45490   0.17179   0.00000  Uiso   1.00
C115   C     0.47664   0.50000   0.16667   0.00000  Uiso   1.00
C116   C     0.02336   0.50000   0.16667   0.00000  Uiso   1.00
C117   C     0.47702   0.41029   0.16289   0.00000  Uiso   1.00
C118   C     0.02298   0.58971   0.16289   0.00000  Uiso   1.00
C119   C     0.47702   0.58971   0.17045   0.00000  Uiso   1.00
C120   C     0.02298   0.41029   0.17045   0.00000  Uiso   1.00
C121   C     0.25000   0.35500   0.16667   0.00000  Uiso   1.00
C122   C     0.25000   0.64500   0.16667   0.00000  Uiso   1.00
I123   I     0.37104   0.60712   0.20738   0.00000  Uiso   1.00
I124   I     0.12896   0.39288   0.20738   0.00000  Uiso   1.00
I125   I     0.37104   0.39288   0.12595   0.00000  Uiso   1.00
I126   I     0.12896   0.60712   0.12595   0.00000  Uiso   1.00
O127   O     0.75000   0.42845   0.21228   0.00000  Uiso   1.00
O128   O     0.75000   0.57155   0.12105   0.00000  Uiso   1.00
O129   O     0.75000   0.57155   0.21228   0.00000  Uiso   1.00
O130   O     0.75000   0.42845   0.12105   0.00000  Uiso   1.00
H131   H     0.96016   0.37519   0.16044   0.00000  Uiso   1.00
H132   H     0.53984   0.62481   0.16044   0.00000  Uiso   1.00
H133   H     0.96016   0.62481   0.17290   0.00000  Uiso   1.00
H134   H     0.53984   0.37519   0.17290   0.00000  Uiso   1.00
C135   C     0.75000   0.40595   0.16667   0.00000  Uiso   1.00
C136   C     0.75000   0.59405   0.16667   0.00000  Uiso   1.00
O137   O     0.68392   0.50000   0.21230   0.00000  Uiso   1.00
O138   O     0.81607   0.50000   0.12104   0.00000  Uiso   1.00
O139   O     0.81607   0.50000   0.21230   0.00000  Uiso   1.00
O140   O     0.68392   0.50000   0.12104   0.00000  Uiso   1.00
C141   C     0.66328   0.50000   0.16667   0.00000  Uiso   1.00
C142   C     0.83672   0.50000   0.16667   0.00000  Uiso   1.00
Zn143  Zn    0.75000   0.50000   0.22759   0.00000  Uiso   1.00
Zn144  Zn    0.75000   0.50000   0.10574   0.00000  Uiso   1.00
N145   N     0.75000   0.50000   0.02455   0.00000  Uiso   1.00
N146   N     0.75000   0.50000   0.30879   0.00000  Uiso   1.00
C147   C     0.90702   0.54408   0.17800   0.00000  Uiso   1.00
C148   C     0.59298   0.45592   0.17800   0.00000  Uiso   1.00
C149   C     0.90702   0.45592   0.15533   0.00000  Uiso   1.00
C150   C     0.59298   0.54408   0.15533   0.00000  Uiso   1.00
C151   C     0.88437   0.50000   0.16667   0.00000  Uiso   1.00
C152   C     0.61562   0.50000   0.16667   0.00000  Uiso   1.00
C153   C     0.95336   0.45490   0.16154   0.00000  Uiso   1.00
C154   C     0.54664   0.54510   0.16154   0.00000  Uiso   1.00
C155   C     0.95336   0.54510   0.17179   0.00000  Uiso   1.00
C156   C     0.54664   0.45490   0.17179   0.00000  Uiso   1.00
C157   C     0.97664   0.50000   0.16667   0.00000  Uiso   1.00
C158   C     0.52336   0.50000   0.16667   0.00000  Uiso   1.00
C159   C     0.97702   0.41029   0.16289   0.00000  Uiso   1.00
C160   C     0.52298   0.58971   0.16289   0.00000  Uiso   1.00
C161   C     0.97702   0.58971   0.17045   0.00000  Uiso   1.00
C162   C     0.52298   0.41029   0.17045   0.00000  Uiso   1.00
C163   C     0.75000   0.35500   0.16667   0.00000  Uiso   1.00
C164   C     0.75000   0.64500   0.16667   0.00000  Uiso   1.00
I165   I     0.87104   0.60712   0.20738   0.00000  Uiso   1.00
I166   I     0.62896   0.39288   0.20738   0.00000  Uiso   1.00
I167   I     0.87104   0.39288   0.12595   0.00000  Uiso   1.00
I168   I     0.62896   0.60712   0.12595   0.00000  Uiso   1.00
O169   O     0.25000   0.76178   0.21228   0.00000  Uiso   1.00
O170   O     0.25000   0.90488   0.12105   0.00000  Uiso   1.00
O171   O     0.25000   0.90488   0.21228   0.00000  Uiso   1.00
O172   O     0.25000   0.76178   0.12105   0.00000  Uiso   1.00
H173   H     0.46016   0.70852   0.16044   0.00000  Uiso   1.00
H174   H     0.03984   0.95814   0.16044   0.00000  Uiso   1.00
H175   H     0.46016   0.95814   0.17290   0.00000  Uiso   1.00
H176   H     0.03984   0.70852   0.17290   0.00000  Uiso   1.00
C177   C     0.25000   0.73928   0.16667   0.00000  Uiso   1.00
C178   C     0.25000   0.92738   0.16667   0.00000  Uiso   1.00
O179   O     0.18392   0.83333   0.21230   0.00000  Uiso   1.00
O180   O     0.31607   0.83333   0.12104   0.00000  Uiso   1.00
O181   O     0.31607   0.83333   0.21230   0.00000  Uiso   1.00
O182   O     0.18392   0.83333   0.12104   0.00000  Uiso   1.00
C183   C     0.16328   0.83333   0.16667   0.00000  Uiso   1.00
C184   C     0.33672   0.83333   0.16667   0.00000  Uiso   1.00
Zn185  Zn    0.25000   0.83333   0.22759   0.00000  Uiso   1.00
Zn186  Zn    0.25000   0.83333   0.10574   0.00000  Uiso   1.00
N187   N     0.25000   0.83333   0.02455   0.00000  Uiso   1.00
N188   N     0.25000   0.83333   0.30879   0.00000  Uiso   1.00
C189   C     0.40702   0.87741   0.17800   0.00000  Uiso   1.00
C190   C     0.09298   0.78925   0.17800   0.00000  Uiso   1.00
C191   C     0.40702   0.78925   0.15533   0.00000  Uiso   1.00
C192   C     0.09298   0.87741   0.15533   0.00000  Uiso   1.00
C193   C     0.38437   0.83333   0.16667   0.00000  Uiso   1.00
C194   C     0.11562   0.83333   0.16667   0.00000  Uiso   1.00
C195   C     0.45336   0.78823   0.16154   0.00000  Uiso   1.00
C196   C     0.04664   0.87843   0.16154   0.00000  Uiso   1.00
C197   C     0.45336   0.87843   0.17179   0.00000  Uiso   1.00
C198   C     0.04664   0.78823   0.17179   0.00000  Uiso   1.00
C199   C     0.47664   0.83333   0.16667   0.00000  Uiso   1.00
C200   C     0.02336   0.83333   0.16667   0.00000  Uiso   1.00
C201   C     0.47702   0.74363   0.16289   0.00000  Uiso   1.00
C202   C     0.02298   0.92304   0.16289   0.00000  Uiso   1.00
C203   C     0.47702   0.92304   0.17045   0.00000  Uiso   1.00
C204   C     0.02298   0.74363   0.17045   0.00000  Uiso   1.00
C205   C     0.25000   0.68833   0.16667   0.00000  Uiso   1.00
C206   C     0.25000   0.97834   0.16667   0.00000  Uiso   1.00
I207   I     0.37104   0.94045   0.20738   0.00000  Uiso   1.00
I208   I     0.12896   0.72622   0.20738   0.00000  Uiso   1.00
I209   I     0.37104   0.72622   0.12595   0.00000  Uiso   1.00
I210   I     0.12896   0.94045   0.12595   0.00000  Uiso   1.00
O211   O     0.75000   0.76178   0.21228   0.00000  Uiso   1.00
O212   O     0.75000   0.90488   0.12105   0.00000  Uiso   1.00
O213   O     0.75000   0.90488   0.21228   0.00000  Uiso   1.00
O214   O     0.75000   0.76178   0.12105   0.00000  Uiso   1.00
H215   H     0.96016   0.70852   0.16044   0.00000  Uiso   1.00
H216   H     0.53984   0.95814   0.16044   0.00000  Uiso   1.00
H217   H     0.96016   0.95814   0.17290   0.00000  Uiso   1.00
H218   H     0.53984   0.70852   0.17290   0.00000  Uiso   1.00
C219   C     0.75000   0.73928   0.16667   0.00000  Uiso   1.00
C220   C     0.75000   0.92738   0.16667   0.00000  Uiso   1.00
O221   O     0.68392   0.83333   0.21230   0.00000  Uiso   1.00
O222   O     0.81607   0.83333   0.12104   0.00000  Uiso   1.00
O223   O     0.81607   0.83333   0.21230   0.00000  Uiso   1.00
O224   O     0.68392   0.83333   0.12104   0.00000  Uiso   1.00
C225   C     0.66328   0.83333   0.16667   0.00000  Uiso   1.00
C226   C     0.83672   0.83333   0.16667   0.00000  Uiso   1.00
Zn227  Zn    0.75000   0.83333   0.22759   0.00000  Uiso   1.00
Zn228  Zn    0.75000   0.83333   0.10574   0.00000  Uiso   1.00
N229   N     0.75000   0.83333   0.02455   0.00000  Uiso   1.00
N230   N     0.75000   0.83333   0.30879   0.00000  Uiso   1.00
C231   C     0.90702   0.87741   0.17800   0.00000  Uiso   1.00
C232   C     0.59298   0.78925   0.17800   0.00000  Uiso   1.00
C233   C     0.90702   0.78925   0.15533   0.00000  Uiso   1.00
C234   C     0.59298   0.87741   0.15533   0.00000  Uiso   1.00
C235   C     0.88437   0.83333   0.16667   0.00000  Uiso   1.00
C236   C     0.61562   0.83333   0.16667   0.00000  Uiso   1.00
C237   C     0.95336   0.78823   0.16154   0.00000  Uiso   1.00
C238   C     0.54664   0.87843   0.16154   0.00000  Uiso   1.00
C239   C     0.95336   0.87843   0.17179   0.00000  Uiso   1.00
C240   C     0.54664   0.78823   0.17179   0.00000  Uiso   1.00
C241   C     0.97664   0.83333   0.16667   0.00000  Uiso   1.00
C242   C     0.52336   0.83333   0.16667   0.00000  Uiso   1.00
C243   C     0.97702   0.74363   0.16289   0.00000  Uiso   1.00
C244   C     0.52298   0.92304   0.16289   0.00000  Uiso   1.00
C245   C     0.97702   0.92304   0.17045   0.00000  Uiso   1.00
C246   C     0.52298   0.74363   0.17045   0.00000  Uiso   1.00
C247   C     0.75000   0.68833   0.16667   0.00000  Uiso   1.00
C248   C     0.75000   0.97834   0.16667   0.00000  Uiso   1.00
I249   I     0.87104   0.94045   0.20738   0.00000  Uiso   1.00
I250   I     0.62896   0.72622   0.20738   0.00000  Uiso   1.00
I251   I     0.87104   0.72622   0.12595   0.00000  Uiso   1.00
I252   I     0.62896   0.94045   0.12595   0.00000  Uiso   1.00
O253   O     0.25000   0.09512   0.54562   0.00000  Uiso   1.00
O254   O     0.25000   0.23822   0.45438   0.00000  Uiso   1.00
O255   O     0.25000   0.23822   0.54562   0.00000  Uiso   1.00
O256   O     0.25000   0.09512   0.45438   0.00000  Uiso   1.00
H257   H     0.46016   0.04186   0.49377   0.00000  Uiso   1.00
H258   H     0.03984   0.29148   0.49377   0.00000  Uiso   1.00
H259   H     0.46016   0.29148   0.50623   0.00000  Uiso   1.00
H260   H     0.03984   0.04186   0.50623   0.00000  Uiso   1.00
C261   C     0.25000   0.07262   0.50000   0.00000  Uiso   1.00
C262   C     0.25000   0.26072   0.50000   0.00000  Uiso   1.00
O263   O     0.18392   0.16667   0.54563   0.00000  Uiso   1.00
O264   O     0.31607   0.16667   0.45437   0.00000  Uiso   1.00
O265   O     0.31607   0.16667   0.54563   0.00000  Uiso   1.00
O266   O     0.18392   0.16667   0.45437   0.00000  Uiso   1.00
C267   C     0.16328   0.16667   0.50000   0.00000  Uiso   1.00
C268   C     0.33672   0.16667   0.50000   0.00000  Uiso   1.00
Zn269  Zn    0.25000   0.16667   0.56093   0.00000  Uiso   1.00
Zn270  Zn    0.25000   0.16667   0.43907   0.00000  Uiso   1.00
N271   N     0.25000   0.16667   0.35788   0.00000  Uiso   1.00
N272   N     0.25000   0.16667   0.64212   0.00000  Uiso   1.00
C273   C     0.40702   0.21075   0.51133   0.00000  Uiso   1.00
C274   C     0.09298   0.12259   0.51133   0.00000  Uiso   1.00
C275   C     0.40702   0.12259   0.48867   0.00000  Uiso   1.00
C276   C     0.09298   0.21075   0.48867   0.00000  Uiso   1.00
C277   C     0.38437   0.16667   0.50000   0.00000  Uiso   1.00
C278   C     0.11562   0.16667   0.50000   0.00000  Uiso   1.00
C279   C     0.45336   0.12157   0.49488   0.00000  Uiso   1.00
C280   C     0.04664   0.21177   0.49488   0.00000  Uiso   1.00
C281   C     0.45336   0.21177   0.50512   0.00000  Uiso   1.00
C282   C     0.04664   0.12157   0.50512   0.00000  Uiso   1.00
C283   C     0.47664   0.16667   0.50000   0.00000  Uiso   1.00
C284   C     0.02336   0.16667   0.50000   0.00000  Uiso   1.00
C285   C     0.47702   0.07696   0.49622   0.00000  Uiso   1.00
C286   C     0.02298   0.25637   0.49622   0.00000  Uiso   1.00
C287   C     0.47702   0.25637   0.50378   0.00000  Uiso   1.00
C288   C     0.02298   0.07696   0.50378   0.00000  Uiso   1.00
C289   C     0.25000   0.02166   0.50000   0.00000  Uiso   1.00
C290   C     0.25000   0.31167   0.50000   0.00000  Uiso   1.00
I291   I     0.37104   0.27378   0.54071   0.00000  Uiso   1.00
I292   I     0.12896   0.05955   0.54071   0.00000  Uiso   1.00
I293   I     0.37104   0.05955   0.45929   0.00000  Uiso   1.00
I294   I     0.12896   0.27378   0.45929   0.00000  Uiso   1.00
O295   O     0.75000   0.09512   0.54562   0.00000  Uiso   1.00
O296   O     0.75000   0.23822   0.45438   0.00000  Uiso   1.00
O297   O     0.75000   0.23822   0.54562   0.00000  Uiso   1.00
O298   O     0.75000   0.09512   0.45438   0.00000  Uiso   1.00
H299   H     0.96016   0.04186   0.49377   0.00000  Uiso   1.00
H300   H     0.53984   0.29148   0.49377   0.00000  Uiso   1.00
H301   H     0.96016   0.29148   0.50623   0.00000  Uiso   1.00
H302   H     0.53984   0.04186   0.50623   0.00000  Uiso   1.00
C303   C     0.75000   0.07262   0.50000   0.00000  Uiso   1.00
C304   C     0.75000   0.26072   0.50000   0.00000  Uiso   1.00
O305   O     0.68392   0.16667   0.54563   0.00000  Uiso   1.00
O306   O     0.81607   0.16667   0.45437   0.00000  Uiso   1.00
O307   O     0.81607   0.16667   0.54563   0.00000  Uiso   1.00
O308   O     0.68392   0.16667   0.45437   0.00000  Uiso   1.00
C309   C     0.66328   0.16667   0.50000   0.00000  Uiso   1.00
C310   C     0.83672   0.16667   0.50000   0.00000  Uiso   1.00
Zn311  Zn    0.75000   0.16667   0.56093   0.00000  Uiso   1.00
Zn312  Zn    0.75000   0.16667   0.43907   0.00000  Uiso   1.00
N313   N     0.75000   0.16667   0.35788   0.00000  Uiso   1.00
N314   N     0.75000   0.16667   0.64212   0.00000  Uiso   1.00
C315   C     0.90702   0.21075   0.51133   0.00000  Uiso   1.00
C316   C     0.59298   0.12259   0.51133   0.00000  Uiso   1.00
C317   C     0.90702   0.12259   0.48867   0.00000  Uiso   1.00
C318   C     0.59298   0.21075   0.48867   0.00000  Uiso   1.00
C319   C     0.88437   0.16667   0.50000   0.00000  Uiso   1.00
C320   C     0.61562   0.16667   0.50000   0.00000  Uiso   1.00
C321   C     0.95336   0.12157   0.49488   0.00000  Uiso   1.00
C322   C     0.54664   0.21177   0.49488   0.00000  Uiso   1.00
C323   C     0.95336   0.21177   0.50512   0.00000  Uiso   1.00
C324   C     0.54664   0.12157   0.50512   0.00000  Uiso   1.00
C325   C     0.97664   0.16667   0.50000   0.00000  Uiso   1.00
C326   C     0.52336   0.16667   0.50000   0.00000  Uiso   1.00
C327   C     0.97702   0.07696   0.49622   0.00000  Uiso   1.00
C328   C     0.52298   0.25637   0.49622   0.00000  Uiso   1.00
C329   C     0.97702   0.25637   0.50378   0.00000  Uiso   1.00
C330   C     0.52298   0.07696   0.50378   0.00000  Uiso   1.00
C331   C     0.75000   0.02166   0.50000   0.00000  Uiso   1.00
C332   C     0.75000   0.31167   0.50000   0.00000  Uiso   1.00
I333   I     0.87104   0.27378   0.54071   0.00000  Uiso   1.00
I334   I     0.62896   0.05955   0.54071   0.00000  Uiso   1.00
I335   I     0.87104   0.05955   0.45929   0.00000  Uiso   1.00
I336   I     0.62896   0.27378   0.45929   0.00000  Uiso   1.00
O337   O     0.25000   0.42845   0.54562   0.00000  Uiso   1.00
O338   O     0.25000   0.57155   0.45438   0.00000  Uiso   1.00
O339   O     0.25000   0.57155   0.54562   0.00000  Uiso   1.00
O340   O     0.25000   0.42845   0.45438   0.00000  Uiso   1.00
H341   H     0.46016   0.37519   0.49377   0.00000  Uiso   1.00
H342   H     0.03984   0.62481   0.49377   0.00000  Uiso   1.00
H343   H     0.46016   0.62481   0.50623   0.00000  Uiso   1.00
H344   H     0.03984   0.37519   0.50623   0.00000  Uiso   1.00
C345   C     0.25000   0.40595   0.50000   0.00000  Uiso   1.00
C346   C     0.25000   0.59405   0.50000   0.00000  Uiso   1.00
O347   O     0.18392   0.50000   0.54563   0.00000  Uiso   1.00
O348   O     0.31607   0.50000   0.45437   0.00000  Uiso   1.00
O349   O     0.31607   0.50000   0.54563   0.00000  Uiso   1.00
O350   O     0.18392   0.50000   0.45437   0.00000  Uiso   1.00
C351   C     0.16328   0.50000   0.50000   0.00000  Uiso   1.00
C352   C     0.33672   0.50000   0.50000   0.00000  Uiso   1.00
Zn353  Zn    0.25000   0.50000   0.56093   0.00000  Uiso   1.00
Zn354  Zn    0.25000   0.50000   0.43907   0.00000  Uiso   1.00
N355   N     0.25000   0.50000   0.35788   0.00000  Uiso   1.00
N356   N     0.25000   0.50000   0.64212   0.00000  Uiso   1.00
C357   C     0.40702   0.54408   0.51133   0.00000  Uiso   1.00
C358   C     0.09298   0.45592   0.51133   0.00000  Uiso   1.00
C359   C     0.40702   0.45592   0.48867   0.00000  Uiso   1.00
C360   C     0.09298   0.54408   0.48867   0.00000  Uiso   1.00
C361   C     0.38437   0.50000   0.50000   0.00000  Uiso   1.00
C362   C     0.11562   0.50000   0.50000   0.00000  Uiso   1.00
C363   C     0.45336   0.45490   0.49488   0.00000  Uiso   1.00
C364   C     0.04664   0.54510   0.49488   0.00000  Uiso   1.00
C365   C     0.45336   0.54510   0.50512   0.00000  Uiso   1.00
C366   C     0.04664   0.45490   0.50512   0.00000  Uiso   1.00
C367   C     0.47664   0.50000   0.50000   0.00000  Uiso   1.00
C368   C     0.02336   0.50000   0.50000   0.00000  Uiso   1.00
C369   C     0.47702   0.41029   0.49622   0.00000  Uiso   1.00
C370   C     0.02298   0.58971   0.49622   0.00000  Uiso   1.00
C371   C     0.47702   0.58971   0.50378   0.00000  Uiso   1.00
C372   C     0.02298   0.41029   0.50378   0.00000  Uiso   1.00
C373   C     0.25000   0.35500   0.50000   0.00000  Uiso   1.00
C374   C     0.25000   0.64500   0.50000   0.00000  Uiso   1.00
I375   I     0.37104   0.60712   0.54071   0.00000  Uiso   1.00
I376   I     0.12896   0.39288   0.54071   0.00000  Uiso   1.00
I377   I     0.37104   0.39288   0.45929   0.00000  Uiso   1.00
I378   I     0.12896   0.60712   0.45929   0.00000  Uiso   1.00
O379   O     0.75000   0.42845   0.54562   0.00000  Uiso   1.00
O380   O     0.75000   0.57155   0.45438   0.00000  Uiso   1.00
O381   O     0.75000   0.57155   0.54562   0.00000  Uiso   1.00
O382   O     0.75000   0.42845   0.45438   0.00000  Uiso   1.00
H383   H     0.96016   0.37519   0.49377   0.00000  Uiso   1.00
H384   H     0.53984   0.62481   0.49377   0.00000  Uiso   1.00
H385   H     0.96016   0.62481   0.50623   0.00000  Uiso   1.00
H386   H     0.53984   0.37519   0.50623   0.00000  Uiso   1.00
C387   C     0.75000   0.40595   0.50000   0.00000  Uiso   1.00
C388   C     0.75000   0.59405   0.50000   0.00000  Uiso   1.00
O389   O     0.68392   0.50000   0.54563   0.00000  Uiso   1.00
O390   O     0.81607   0.50000   0.45437   0.00000  Uiso   1.00
O391   O     0.81607   0.50000   0.54563   0.00000  Uiso   1.00
O392   O     0.68392   0.50000   0.45437   0.00000  Uiso   1.00
C393   C     0.66328   0.50000   0.50000   0.00000  Uiso   1.00
C394   C     0.83672   0.50000   0.50000   0.00000  Uiso   1.00
Zn395  Zn    0.75000   0.50000   0.56093   0.00000  Uiso   1.00
Zn396  Zn    0.75000   0.50000   0.43907   0.00000  Uiso   1.00
N397   N     0.75000   0.50000   0.35788   0.00000  Uiso   1.00
N398   N     0.75000   0.50000   0.64212   0.00000  Uiso   1.00
C399   C     0.90702   0.54408   0.51133   0.00000  Uiso   1.00
C400   C     0.59298   0.45592   0.51133   0.00000  Uiso   1.00
C401   C     0.90702   0.45592   0.48867   0.00000  Uiso   1.00
C402   C     0.59298   0.54408   0.48867   0.00000  Uiso   1.00
C403   C     0.88437   0.50000   0.50000   0.00000  Uiso   1.00
C404   C     0.61562   0.50000   0.50000   0.00000  Uiso   1.00
C405   C     0.95336   0.45490   0.49488   0.00000  Uiso   1.00
C406   C     0.54664   0.54510   0.49488   0.00000  Uiso   1.00
C407   C     0.95336   0.54510   0.50512   0.00000  Uiso   1.00
C408   C     0.54664   0.45490   0.50512   0.00000  Uiso   1.00
C409   C     0.97664   0.50000   0.50000   0.00000  Uiso   1.00
C410   C     0.52336   0.50000   0.50000   0.00000  Uiso   1.00
C411   C     0.97702   0.41029   0.49622   0.00000  Uiso   1.00
C412   C     0.52298   0.58971   0.49622   0.00000  Uiso   1.00
C413   C     0.97702   0.58971   0.50378   0.00000  Uiso   1.00
C414   C     0.52298   0.41029   0.50378   0.00000  Uiso   1.00
C415   C     0.75000   0.35500   0.50000   0.00000  Uiso   1.00
C416   C     0.75000   0.64500   0.50000   0.00000  Uiso   1.00
I417   I     0.87104   0.60712   0.54071   0.00000  Uiso   1.00
I418   I     0.62896   0.39288   0.54071   0.00000  Uiso   1.00
I419   I     0.87104   0.39288   0.45929   0.00000  Uiso   1.00
I420   I     0.62896   0.60712   0.45929   0.00000  Uiso   1.00
O421   O     0.25000   0.76178   0.54562   0.00000  Uiso   1.00
O422   O     0.25000   0.90488   0.45438   0.00000  Uiso   1.00
O423   O     0.25000   0.90488   0.54562   0.00000  Uiso   1.00
O424   O     0.25000   0.76178   0.45438   0.00000  Uiso   1.00
H425   H     0.46016   0.70852   0.49377   0.00000  Uiso   1.00
H426   H     0.03984   0.95814   0.49377   0.00000  Uiso   1.00
H427   H     0.46016   0.95814   0.50623   0.00000  Uiso   1.00
H428   H     0.03984   0.70852   0.50623   0.00000  Uiso   1.00
C429   C     0.25000   0.73928   0.50000   0.00000  Uiso   1.00
C430   C     0.25000   0.92738   0.50000   0.00000  Uiso   1.00
O431   O     0.18392   0.83333   0.54563   0.00000  Uiso   1.00
O432   O     0.31607   0.83333   0.45437   0.00000  Uiso   1.00
O433   O     0.31607   0.83333   0.54563   0.00000  Uiso   1.00
O434   O     0.18392   0.83333   0.45437   0.00000  Uiso   1.00
C435   C     0.16328   0.83333   0.50000   0.00000  Uiso   1.00
C436   C     0.33672   0.83333   0.50000   0.00000  Uiso   1.00
Zn437  Zn    0.25000   0.83333   0.56093   0.00000  Uiso   1.00
Zn438  Zn    0.25000   0.83333   0.43907   0.00000  Uiso   1.00
N439   N     0.25000   0.83333   0.35788   0.00000  Uiso   1.00
N440   N     0.25000   0.83333   0.64212   0.00000  Uiso   1.00
C441   C     0.40702   0.87741   0.51133   0.00000  Uiso   1.00
C442   C     0.09298   0.78925   0.51133   0.00000  Uiso   1.00
C443   C     0.40702   0.78925   0.48867   0.00000  Uiso   1.00
C444   C     0.09298   0.87741   0.48867   0.00000  Uiso   1.00
C445   C     0.38437   0.83333   0.50000   0.00000  Uiso   1.00
C446   C     0.11562   0.83333   0.50000   0.00000  Uiso   1.00
C447   C     0.45336   0.78823   0.49488   0.00000  Uiso   1.00
C448   C     0.04664   0.87843   0.49488   0.00000  Uiso   1.00
C449   C     0.45336   0.87843   0.50512   0.00000  Uiso   1.00
C450   C     0.04664   0.78823   0.50512   0.00000  Uiso   1.00
C451   C     0.47664   0.83333   0.50000   0.00000  Uiso   1.00
C452   C     0.02336   0.83333   0.50000   0.00000  Uiso   1.00
C453   C     0.47702   0.74363   0.49622   0.00000  Uiso   1.00
C454   C     0.02298   0.92304   0.49622   0.00000  Uiso   1.00
C455   C     0.47702   0.92304   0.50378   0.00000  Uiso   1.00
C456   C     0.02298   0.74363   0.50378   0.00000  Uiso   1.00
C457   C     0.25000   0.68833   0.50000   0.00000  Uiso   1.00
C458   C     0.25000   0.97834   0.50000   0.00000  Uiso   1.00
I459   I     0.37104   0.94045   0.54071   0.00000  Uiso   1.00
I460   I     0.12896   0.72622   0.54071   0.00000  Uiso   1.00
I461   I     0.37104   0.72622   0.45929   0.00000  Uiso   1.00
I462   I     0.12896   0.94045   0.45929   0.00000  Uiso   1.00
O463   O     0.75000   0.76178   0.54562   0.00000  Uiso   1.00
O464   O     0.75000   0.90488   0.45438   0.00000  Uiso   1.00
O465   O     0.75000   0.90488   0.54562   0.00000  Uiso   1.00
O466   O     0.75000   0.76178   0.45438   0.00000  Uiso   1.00
H467   H     0.96016   0.70852   0.49377   0.00000  Uiso   1.00
H468   H     0.53984   0.95814   0.49377   0.00000  Uiso   1.00
H469   H     0.96016   0.95814   0.50623   0.00000  Uiso   1.00
H470   H     0.53984   0.70852   0.50623   0.00000  Uiso   1.00
C471   C     0.75000   0.73928   0.50000   0.00000  Uiso   1.00
C472   C     0.75000   0.92738   0.50000   0.00000  Uiso   1.00
O473   O     0.68392   0.83333   0.54563   0.00000  Uiso   1.00
O474   O     0.81607   0.83333   0.45437   0.00000  Uiso   1.00
O475   O     0.81607   0.83333   0.54563   0.00000  Uiso   1.00
O476   O     0.68392   0.83333   0.45437   0.00000  Uiso   1.00
C477   C     0.66328   0.83333   0.50000   0.00000  Uiso   1.00
C478   C     0.83672   0.83333   0.50000   0.00000  Uiso   1.00
Zn479  Zn    0.75000   0.83333   0.56093   0.00000  Uiso   1.00
Zn480  Zn    0.75000   0.83333   0.43907   0.00000  Uiso   1.00
N481   N     0.75000   0.83333   0.35788   0.00000  Uiso   1.00
N482   N     0.75000   0.83333   0.64212   0.00000  Uiso   1.00
C483   C     0.90702   0.87741   0.51133   0.00000  Uiso   1.00
C484   C     0.59298   0.78925   0.51133   0.00000  Uiso   1.00
C485   C     0.90702   0.78925   0.48867   0.00000  Uiso   1.00
C486   C     0.59298   0.87741   0.48867   0.00000  Uiso   1.00
C487   C     0.88437   0.83333   0.50000   0.00000  Uiso   1.00
C488   C     0.61562   0.83333   0.50000   0.00000  Uiso   1.00
C489   C     0.95336   0.78823   0.49488   0.00000  Uiso   1.00
C490   C     0.54664   0.87843   0.49488   0.00000  Uiso   1.00
C491   C     0.95336   0.87843   0.50512   0.00000  Uiso   1.00
C492   C     0.54664   0.78823   0.50512   0.00000  Uiso   1.00
C493   C     0.97664   0.83333   0.50000   0.00000  Uiso   1.00
C494   C     0.52336   0.83333   0.50000   0.00000  Uiso   1.00
C495   C     0.97702   0.74363   0.49622   0.00000  Uiso   1.00
C496   C     0.52298   0.92304   0.49622   0.00000  Uiso   1.00
C497   C     0.97702   0.92304   0.50378   0.00000  Uiso   1.00
C498   C     0.52298   0.74363   0.50378   0.00000  Uiso   1.00
C499   C     0.75000   0.68833   0.50000   0.00000  Uiso   1.00
C500   C     0.75000   0.97834   0.50000   0.00000  Uiso   1.00
I501   I     0.87104   0.94045   0.54071   0.00000  Uiso   1.00
I502   I     0.62896   0.72622   0.54071   0.00000  Uiso   1.00
I503   I     0.87104   0.72622   0.45929   0.00000  Uiso   1.00
I504   I     0.62896   0.94045   0.45929   0.00000  Uiso   1.00
O505   O     0.25000   0.09512   0.87895   0.00000  Uiso   1.00
O506   O     0.25000   0.23822   0.78772   0.00000  Uiso   1.00
O507   O     0.25000   0.23822   0.87895   0.00000  Uiso   1.00
O508   O     0.25000   0.09512   0.78772   0.00000  Uiso   1.00
H509   H     0.46016   0.04186   0.82710   0.00000  Uiso   1.00
H510   H     0.03984   0.29148   0.82710   0.00000  Uiso   1.00
H511   H     0.46016   0.29148   0.83956   0.00000  Uiso   1.00
H512   H     0.03984   0.04186   0.83956   0.00000  Uiso   1.00
C513   C     0.25000   0.07262   0.83333   0.00000  Uiso   1.00
C514   C     0.25000   0.26072   0.83333   0.00000  Uiso   1.00
O515   O     0.18392   0.16667   0.87896   0.00000  Uiso   1.00
O516   O     0.31607   0.16667   0.78770   0.00000  Uiso   1.00
O517   O     0.31607   0.16667   0.87896   0.00000  Uiso   1.00
O518   O     0.18392   0.16667   0.78770   0.00000  Uiso   1.00
C519   C     0.16328   0.16667   0.83333   0.00000  Uiso   1.00
C520   C     0.33672   0.16667   0.83333   0.00000  Uiso   1.00
Zn521  Zn    0.25000   0.16667   0.89426   0.00000  Uiso   1.00
Zn522  Zn    0.25000   0.16667   0.77241   0.00000  Uiso   1.00
N523   N     0.25000   0.16667   0.69121   0.00000  Uiso   1.00
N524   N     0.25000   0.16667   0.97545   0.00000  Uiso   1.00
C525   C     0.40702   0.21075   0.84467   0.00000  Uiso   1.00
C526   C     0.09298   0.12259   0.84467   0.00000  Uiso   1.00
C527   C     0.40702   0.12259   0.82200   0.00000  Uiso   1.00
C528   C     0.09298   0.21075   0.82200   0.00000  Uiso   1.00
C529   C     0.38437   0.16667   0.83333   0.00000  Uiso   1.00
C530   C     0.11562   0.16667   0.83333   0.00000  Uiso   1.00
C531   C     0.45336   0.12157   0.82821   0.00000  Uiso   1.00
C532   C     0.04664   0.21177   0.82821   0.00000  Uiso   1.00
C533   C     0.45336   0.21177   0.83846   0.00000  Uiso   1.00
C534   C     0.04664   0.12157   0.83846   0.00000  Uiso   1.00
C535   C     0.47664   0.16667   0.83333   0.00000  Uiso   1.00
C536   C     0.02336   0.16667   0.83333   0.00000  Uiso   1.00
C537   C     0.47702   0.07696   0.82955   0.00000  Uiso   1.00
C538   C     0.02298   0.25637   0.82955   0.00000  Uiso   1.00
C539   C     0.47702   0.25637   0.83712   0.00000  Uiso   1.00
C540   C     0.02298   0.07696   0.83712   0.00000  Uiso   1.00
C541   C     0.25000   0.02166   0.83333   0.00000  Uiso   1.00
C542   C     0.25000   0.31167   0.83333   0.00000  Uiso   1.00
I543   I     0.37104   0.27378   0.87405   0.00000  Uiso   1.00
I544   I     0.12896   0.05955   0.87405   0.00000  Uiso   1.00
I545   I     0.37104   0.05955   0.79262   0.00000  Uiso   1.00
I546   I     0.12896   0.27378   0.79262   0.00000  Uiso   1.00
O547   O     0.75000   0.09512   0.87895   0.00000  Uiso   1.00
O548   O     0.75000   0.23822   0.78772   0.00000  Uiso   1.00
O549   O     0.75000   0.23822   0.87895   0.00000  Uiso   1.00
O550   O     0.75000   0.09512   0.78772   0.00000  Uiso   1.00
H551   H     0.96016   0.04186   0.82710   0.00000  Uiso   1.00
H552   H     0.53984   0.29148   0.82710   0.00000  Uiso   1.00
H553   H     0.96016   0.29148   0.83956   0.00000  Uiso   1.00
H554   H     0.53984   0.04186   0.83956   0.00000  Uiso   1.00
C555   C     0.75000   0.07262   0.83333   0.00000  Uiso   1.00
C556   C     0.75000   0.26072   0.83333   0.00000  Uiso   1.00
O557   O     0.68392   0.16667   0.87896   0.00000  Uiso   1.00
O558   O     0.81607   0.16667   0.78770   0.00000  Uiso   1.00
O559   O     0.81607   0.16667   0.87896   0.00000  Uiso   1.00
O560   O     0.68392   0.16667   0.78770   0.00000  Uiso   1.00
C561   C     0.66328   0.16667   0.83333   0.00000  Uiso   1.00
C562   C     0.83672   0.16667   0.83333   0.00000  Uiso   1.00
Zn563  Zn    0.75000   0.16667   0.89426   0.00000  Uiso   1.00
Zn564  Zn    0.75000   0.16667   0.77241   0.00000  Uiso   1.00
N565   N     0.75000   0.16667   0.69121   0.00000  Uiso   1.00
N566   N     0.75000   0.16667   0.97545   0.00000  Uiso   1.00
C567   C     0.90702   0.21075   0.84467   0.00000  Uiso   1.00
C568   C     0.59298   0.12259   0.84467   0.00000  Uiso   1.00
C569   C     0.90702   0.12259   0.82200   0.00000  Uiso   1.00
C570   C     0.59298   0.21075   0.82200   0.00000  Uiso   1.00
C571   C     0.88437   0.16667   0.83333   0.00000  Uiso   1.00
C572   C     0.61562   0.16667   0.83333   0.00000  Uiso   1.00
C573   C     0.95336   0.12157   0.82821   0.00000  Uiso   1.00
C574   C     0.54664   0.21177   0.82821   0.00000  Uiso   1.00
C575   C     0.95336   0.21177   0.83846   0.00000  Uiso   1.00
C576   C     0.54664   0.12157   0.83846   0.00000  Uiso   1.00
C577   C     0.97664   0.16667   0.83333   0.00000  Uiso   1.00
C578   C     0.52336   0.16667   0.83333   0.00000  Uiso   1.00
C579   C     0.97702   0.07696   0.82955   0.00000  Uiso   1.00
C580   C     0.52298   0.25637   0.82955   0.00000  Uiso   1.00
C581   C     0.97702   0.25637   0.83712   0.00000  Uiso   1.00
C582   C     0.52298   0.07696   0.83712   0.00000  Uiso   1.00
C583   C     0.75000   0.02166   0.83333   0.00000  Uiso   1.00
C584   C     0.75000   0.31167   0.83333   0.00000  Uiso   1.00
I585   I     0.87104   0.27378   0.87405   0.00000  Uiso   1.00
I586   I     0.62896   0.05955   0.87405   0.00000  Uiso   1.00
I587   I     0.87104   0.05955   0.79262   0.00000  Uiso   1.00
I588   I     0.62896   0.27378   0.79262   0.00000  Uiso   1.00
O589   O     0.25000   0.42845   0.87895   0.00000  Uiso   1.00
O590   O     0.25000   0.57155   0.78772   0.00000  Uiso   1.00
O591   O     0.25000   0.57155   0.87895   0.00000  Uiso   1.00
O592   O     0.25000   0.42845   0.78772   0.00000  Uiso   1.00
H593   H     0.46016   0.37519   0.82710   0.00000  Uiso   1.00
H594   H     0.03984   0.62481   0.82710   0.00000  Uiso   1.00
H595   H     0.46016   0.62481   0.83956   0.00000  Uiso   1.00
H596   H     0.03984   0.37519   0.83956   0.00000  Uiso   1.00
C597   C     0.25000   0.40595   0.83333   0.00000  Uiso   1.00
C598   C     0.25000   0.59405   0.83333   0.00000  Uiso   1.00
O599   O     0.18392   0.50000   0.87896   0.00000  Uiso   1.00
O600   O     0.31607   0.50000   0.78770   0.00000  Uiso   1.00
O601   O     0.31607   0.50000   0.87896   0.00000  Uiso   1.00
O602   O     0.18392   0.50000   0.78770   0.00000  Uiso   1.00
C603   C     0.16328   0.50000   0.83333   0.00000  Uiso   1.00
C604   C     0.33672   0.50000   0.83333   0.00000  Uiso   1.00
Zn605  Zn    0.25000   0.50000   0.89426   0.00000  Uiso   1.00
Zn606  Zn    0.25000   0.50000   0.77241   0.00000  Uiso   1.00
N607   N     0.25000   0.50000   0.69121   0.00000  Uiso   1.00
N608   N     0.25000   0.50000   0.97545   0.00000  Uiso   1.00
C609   C     0.40702   0.54408   0.84467   0.00000  Uiso   1.00
C610   C     0.09298   0.45592   0.84467   0.00000  Uiso   1.00
C611   C     0.40702   0.45592   0.82200   0.00000  Uiso   1.00
C612   C     0.09298   0.54408   0.82200   0.00000  Uiso   1.00
C613   C     0.38437   0.50000   0.83333   0.00000  Uiso   1.00
C614   C     0.11562   0.50000   0.83333   0.00000  Uiso   1.00
C615   C     0.45336   0.45490   0.82821   0.00000  Uiso   1.00
C616   C     0.04664   0.54510   0.82821   0.00000  Uiso   1.00
C617   C     0.45336   0.54510   0.83846   0.00000  Uiso   1.00
C618   C     0.04664   0.45490   0.83846   0.00000  Uiso   1.00
C619   C     0.47664   0.50000   0.83333   0.00000  Uiso   1.00
C620   C     0.02336   0.50000   0.83333   0.00000  Uiso   1.00
C621   C     0.47702   0.41029   0.82955   0.00000  Uiso   1.00
C622   C     0.02298   0.58971   0.82955   0.00000  Uiso   1.00
C623   C     0.47702   0.58971   0.83712   0.00000  Uiso   1.00
C624   C     0.02298   0.41029   0.83712   0.00000  Uiso   1.00
C625   C     0.25000   0.35500   0.83333   0.00000  Uiso   1.00
C626   C     0.25000   0.64500   0.83333   0.00000  Uiso   1.00
I627   I     0.37104   0.60712   0.87405   0.00000  Uiso   1.00
I628   I     0.12896   0.39288   0.87405   0.00000  Uiso   1.00
I629   I     0.37104   0.39288   0.79262   0.00000  Uiso   1.00
I630   I     0.12896   0.60712   0.79262   0.00000  Uiso   1.00
O631   O     0.75000   0.42845   0.87895   0.00000  Uiso   1.00
O632   O     0.75000   0.57155   0.78772   0.00000  Uiso   1.00
O633   O     0.75000   0.57155   0.87895   0.00000  Uiso   1.00
O634   O     0.75000   0.42845   0.78772   0.00000  Uiso   1.00
H635   H     0.96016   0.37519   0.82710   0.00000  Uiso   1.00
H636   H     0.53984   0.62481   0.82710   0.00000  Uiso   1.00
H637   H     0.96016   0.62481   0.83956   0.00000  Uiso   1.00
H638   H     0.53984   0.37519   0.83956   0.00000  Uiso   1.00
C639   C     0.75000   0.40595   0.83333   0.00000  Uiso   1.00
C640   C     0.75000   0.59405   0.83333   0.00000  Uiso   1.00
O641   O     0.68392   0.50000   0.87896   0.00000  Uiso   1.00
O642   O     0.81607   0.50000   0.78770   0.00000  Uiso   1.00
O643   O     0.81607   0.50000   0.87896   0.00000  Uiso   1.00
O644   O     0.68392   0.50000   0.78770   0.00000  Uiso   1.00
C645   C     0.66328   0.50000   0.83333   0.00000  Uiso   1.00
C646   C     0.83672   0.50000   0.83333   0.00000  Uiso   1.00
Zn647  Zn    0.75000   0.50000   0.89426   0.00000  Uiso   1.00
Zn648  Zn    0.75000   0.50000   0.77241   0.00000  Uiso   1.00
N649   N     0.75000   0.50000   0.69121   0.00000  Uiso   1.00
N650   N     0.75000   0.50000   0.97545   0.00000  Uiso   1.00
C651   C     0.90702   0.54408   0.84467   0.00000  Uiso   1.00
C652   C     0.59298   0.45592   0.84467   0.00000  Uiso   1.00
C653   C     0.90702   0.45592   0.82200   0.00000  Uiso   1.00
C654   C     0.59298   0.54408   0.82200   0.00000  Uiso   1.00
C655   C     0.88437   0.50000   0.83333   0.00000  Uiso   1.00
C656   C     0.61562   0.50000   0.83333   0.00000  Uiso   1.00
C657   C     0.95336   0.45490   0.82821   0.00000  Uiso   1.00
C658   C     0.54664   0.54510   0.82821   0.00000  Uiso   1.00
C659   C     0.95336   0.54510   0.83846   0.00000  Uiso   1.00
C660   C     0.54664   0.45490   0.83846   0.00000  Uiso   1.00
C661   C     0.97664   0.50000   0.83333   0.00000  Uiso   1.00
C662   C     0.52336   0.50000   0.83333   0.00000  Uiso   1.00
C663   C     0.97702   0.41029   0.82955   0.00000  Uiso   1.00
C664   C     0.52298   0.58971   0.82955   0.00000  Uiso   1.00
C665   C     0.97702   0.58971   0.83712   0.00000  Uiso   1.00
C666   C     0.52298   0.41029   0.83712   0.00000  Uiso   1.00
C667   C     0.75000   0.35500   0.83333   0.00000  Uiso   1.00
C668   C     0.75000   0.64500   0.83333   0.00000  Uiso   1.00
I669   I     0.87104   0.60712   0.87405   0.00000  Uiso   1.00
I670   I     0.62896   0.39288   0.87405   0.00000  Uiso   1.00
I671   I     0.87104   0.39288   0.79262   0.00000  Uiso   1.00
I672   I     0.62896   0.60712   0.79262   0.00000  Uiso   1.00
O673   O     0.25000   0.76178   0.87895   0.00000  Uiso   1.00
O674   O     0.25000   0.90488   0.78772   0.00000  Uiso   1.00
O675   O     0.25000   0.90488   0.87895   0.00000  Uiso   1.00
O676   O     0.25000   0.76178   0.78772   0.00000  Uiso   1.00
H677   H     0.46016   0.70852   0.82710   0.00000  Uiso   1.00
H678   H     0.03984   0.95814   0.82710   0.00000  Uiso   1.00
H679   H     0.46016   0.95814   0.83956   0.00000  Uiso   1.00
H680   H     0.03984   0.70852   0.83956   0.00000  Uiso   1.00
C681   C     0.25000   0.73928   0.83333   0.00000  Uiso   1.00
C682   C     0.25000   0.92738   0.83333   0.00000  Uiso   1.00
O683   O     0.18392   0.83333   0.87896   0.00000  Uiso   1.00
O684   O     0.31607   0.83333   0.78770   0.00000  Uiso   1.00
O685   O     0.31607   0.83333   0.87896   0.00000  Uiso   1.00
O686   O     0.18392   0.83333   0.78770   0.00000  Uiso   1.00
C687   C     0.16328   0.83333   0.83333   0.00000  Uiso   1.00
C688   C     0.33672   0.83333   0.83333   0.00000  Uiso   1.00
Zn689  Zn    0.25000   0.83333   0.89426   0.00000  Uiso   1.00
Zn690  Zn    0.25000   0.83333   0.77241   0.00000  Uiso   1.00
N691   N     0.25000   0.83333   0.69121   0.00000  Uiso   1.00
N692   N     0.25000   0.83333   0.97545   0.00000  Uiso   1.00
C693   C     0.40702   0.87741   0.84467   0.00000  Uiso   1.00
C694   C     0.09298   0.78925   0.84467   0.00000  Uiso   1.00
C695   C     0.40702   0.78925   0.82200   0.00000  Uiso   1.00
C696   C     0.09298   0.87741   0.82200   0.00000  Uiso   1.00
C697   C     0.38437   0.83333   0.83333   0.00000  Uiso   1.00
C698   C     0.11562   0.83333   0.83333   0.00000  Uiso   1.00
C699   C     0.45336   0.78823   0.82821   0.00000  Uiso   1.00
C700   C     0.04664   0.87843   0.82821   0.00000  Uiso   1.00
C701   C     0.45336   0.87843   0.83846   0.00000  Uiso   1.00
C702   C     0.04664   0.78823   0.83846   0.00000  Uiso   1.00
C703   C     0.47664   0.83333   0.83333   0.00000  Uiso   1.00
C704   C     0.02336   0.83333   0.83333   0.00000  Uiso   1.00
C705   C     0.47702   0.74363   0.82955   0.00000  Uiso   1.00
C706   C     0.02298   0.92304   0.82955   0.00000  Uiso   1.00
C707   C     0.47702   0.92304   0.83712   0.00000  Uiso   1.00
C708   C     0.02298   0.74363   0.83712   0.00000  Uiso   1.00
C709   C     0.25000   0.68833   0.83333   0.00000  Uiso   1.00
C710   C     0.25000   0.97834   0.83333   0.00000  Uiso   1.00
I711   I     0.37104   0.94045   0.87405   0.00000  Uiso   1.00
I712   I     0.12896   0.72622   0.87405   0.00000  Uiso   1.00
I713   I     0.37104   0.72622   0.79262   0.00000  Uiso   1.00
I714   I     0.12896   0.94045   0.79262   0.00000  Uiso   1.00
O715   O     0.75000   0.76178   0.87895   0.00000  Uiso   1.00
O716   O     0.75000   0.90488   0.78772   0.00000  Uiso   1.00
O717   O     0.75000   0.90488   0.87895   0.00000  Uiso   1.00
O718   O     0.75000   0.76178   0.78772   0.00000  Uiso   1.00
H719   H     0.96016   0.70852   0.82710   0.00000  Uiso   1.00
H720   H     0.53984   0.95814   0.82710   0.00000  Uiso   1.00
H721   H     0.96016   0.95814   0.83956   0.00000  Uiso   1.00
H722   H     0.53984   0.70852   0.83956   0.00000  Uiso   1.00
C723   C     0.75000   0.73928   0.83333   0.00000  Uiso   1.00
C724   C     0.75000   0.92738   0.83333   0.00000  Uiso   1.00
O725   O     0.68392   0.83333   0.87896   0.00000  Uiso   1.00
O726   O     0.81607   0.83333   0.78770   0.00000  Uiso   1.00
O727   O     0.81607   0.83333   0.87896   0.00000  Uiso   1.00
O728   O     0.68392   0.83333   0.78770   0.00000  Uiso   1.00
C729   C     0.66328   0.83333   0.83333   0.00000  Uiso   1.00
C730   C     0.83672   0.83333   0.83333   0.00000  Uiso   1.00
Zn731  Zn    0.75000   0.83333   0.89426   0.00000  Uiso   1.00
Zn732  Zn    0.75000   0.83333   0.77241   0.00000  Uiso   1.00
N733   N     0.75000   0.83333   0.69121   0.00000  Uiso   1.00
N734   N     0.75000   0.83333   0.97545   0.00000  Uiso   1.00
C735   C     0.90702   0.87741   0.84467   0.00000  Uiso   1.00
C736   C     0.59298   0.78925   0.84467   0.00000  Uiso   1.00
C737   C     0.90702   0.78925   0.82200   0.00000  Uiso   1.00
C738   C     0.59298   0.87741   0.82200   0.00000  Uiso   1.00
C739   C     0.88437   0.83333   0.83333   0.00000  Uiso   1.00
C740   C     0.61562   0.83333   0.83333   0.00000  Uiso   1.00
C741   C     0.95336   0.78823   0.82821   0.00000  Uiso   1.00
C742   C     0.54664   0.87843   0.82821   0.00000  Uiso   1.00
C743   C     0.95336   0.87843   0.83846   0.00000  Uiso   1.00
C744   C     0.54664   0.78823   0.83846   0.00000  Uiso   1.00
C745   C     0.97664   0.83333   0.83333   0.00000  Uiso   1.00
C746   C     0.52336   0.83333   0.83333   0.00000  Uiso   1.00
C747   C     0.97702   0.74363   0.82955   0.00000  Uiso   1.00
C748   C     0.52298   0.92304   0.82955   0.00000  Uiso   1.00
C749   C     0.97702   0.92304   0.83712   0.00000  Uiso   1.00
C750   C     0.52298   0.74363   0.83712   0.00000  Uiso   1.00
C751   C     0.75000   0.68833   0.83333   0.00000  Uiso   1.00
C752   C     0.75000   0.97834   0.83333   0.00000  Uiso   1.00
I753   I     0.87104   0.94045   0.87405   0.00000  Uiso   1.00
I754   I     0.62896   0.72622   0.87405   0.00000  Uiso   1.00
I755   I     0.87104   0.72622   0.79262   0.00000  Uiso   1.00
I756   I     0.62896   0.94045   0.79262   0.00000  Uiso   1.00
loop_
_geom_bond_atom_site_label_1
_geom_bond_atom_site_label_2
_geom_bond_distance
_geom_bond_site_symmetry_2
_ccdc_geom_bond_type
O1     Zn17    1.973   .     S
O1     C9      1.266   .     A
O2     Zn18    1.973   .     S
O2     C10     1.266   .     A
O3     C10     1.266   .     A
O3     Zn17    1.973   .     S
O4     Zn18    1.973   .     S
O4     C9      1.266   .     A
H5     C33     1.077   .     S
H6     C34     1.077   .     S
H7     C35     1.077   .     S
H8     C36     1.077   .     S
C9     C37     1.379   .     S
C10    C38     1.379   .     S
O11    C15     1.270   .     A
O11    Zn17    2.011   .     S
O12    C16     1.270   .     A
O12    Zn18    2.011   .     S
O13    Zn17    2.011   .     S
O13    C16     1.270   .     A
O14    Zn18    2.011   .     S
O14    C15     1.270   .     A
C15    C26     1.425   .     S
C16    C25     1.425   .     S
Zn17   N20     1.976   .     S
Zn18   N19     1.976   .     S
N19    N524    1.194   1_554 S
N20    N271    1.194   .     S
C21    C25     1.400   .     A
C21    C29     1.394   .     A
C21    I39     2.141   .     S
C22    C26     1.400   .     A
C22    I40     2.141   .     S
C22    C30     1.394   .     A
C23    I41     2.141   .     S
C23    C27     1.394   .     A
C23    C25     1.400   .     A
C24    I42     2.141   .     S
C24    C26     1.400   .     A
C24    C28     1.394   .     A
C27    C33     1.400   .     A
C27    C31     1.411   .     A
C28    C34     1.400   .     A
C28    C32     1.411   .     A
C29    C31     1.411   .     A
C29    C35     1.400   .     A
C30    C36     1.400   .     A
C30    C32     1.411   .     A
C31    C74     1.397   .     S
C32    C73     1.397   1_455 S
C33    C78     1.387   .     S
C34    C77     1.387   1_455 S
C35    C76     1.387   .     S
C36    C75     1.387   1_455 S
C37    C206    1.173   1_545 S
C38    C121    1.173   .     S
O43    Zn59    1.973   .     S
O43    C51     1.266   .     A
O44    Zn60    1.973   .     S
O44    C52     1.266   .     A
O45    C52     1.266   .     A
O45    Zn59    1.973   .     S
O46    Zn60    1.973   .     S
O46    C51     1.266   .     A
H47    C75     1.077   .     S
H48    C76     1.077   .     S
H49    C77     1.077   .     S
H50    C78     1.077   .     S
C51    C79     1.379   .     S
C52    C80     1.379   .     S
O53    C57     1.270   .     A
O53    Zn59    2.011   .     S
O54    C58     1.270   .     A
O54    Zn60    2.011   .     S
O55    Zn59    2.011   .     S
O55    C58     1.270   .     A
O56    Zn60    2.011   .     S
O56    C57     1.270   .     A
C57    C68     1.425   .     S
C58    C67     1.425   .     S
Zn59   N62     1.976   .     S
Zn60   N61     1.976   .     S
N61    N566    1.194   1_554 S
N62    N313    1.194   .     S
C63    C67     1.400   .     A
C63    C71     1.394   .     A
C63    I81     2.141   .     S
C64    C68     1.400   .     A
C64    I82     2.141   .     S
C64    C72     1.394   .     A
C65    I83     2.141   .     S
C65    C69     1.394   .     A
C65    C67     1.400   .     A
C66    I84     2.141   .     S
C66    C68     1.400   .     A
C66    C70     1.394   .     A
C69    C75     1.400   .     A
C69    C73     1.411   .     A
C70    C76     1.400   .     A
C70    C74     1.411   .     A
C71    C73     1.411   .     A
C71    C77     1.400   .     A
C72    C78     1.400   .     A
C72    C74     1.411   .     A
C73    C32     1.397   1_655 S
C75    C36     1.387   1_655 S
C77    C34     1.387   1_655 S
C79    C248    1.173   1_545 S
C80    C163    1.173   .     S
O85    Zn101   1.973   .     S
O85    C93     1.266   .     A
O86    Zn102   1.973   .     S
O86    C94     1.266   .     A
O87    C94     1.266   .     A
O87    Zn101   1.973   .     S
O88    Zn102   1.973   .     S
O88    C93     1.266   .     A
H89    C117    1.077   .     S
H90    C118    1.077   .     S
H91    C119    1.077   .     S
H92    C120    1.077   .     S
C93    C121    1.379   .     S
C94    C122    1.379   .     S
O95    C99     1.270   .     A
O95    Zn101   2.011   .     S
O96    C100    1.270   .     A
O96    Zn102   2.011   .     S
O97    Zn101   2.011   .     S
O97    C100    1.270   .     A
O98    Zn102   2.011   .     S
O98    C99     1.270   .     A
C99    C110    1.425   .     S
C100   C109    1.425   .     S
Zn101  N104    1.976   .     S
Zn102  N103    1.976   .     S
N103   N608    1.194   1_554 S
N104   N355    1.194   .     S
C105   C109    1.400   .     A
C105   C113    1.394   .     A
C105   I123    2.141   .     S
C106   C110    1.400   .     A
C106   I124    2.141   .     S
C106   C114    1.394   .     A
C107   I125    2.141   .     S
C107   C111    1.394   .     A
C107   C109    1.400   .     A
C108   I126    2.141   .     S
C108   C110    1.400   .     A
C108   C112    1.394   .     A
C111   C117    1.400   .     A
C111   C115    1.411   .     A
C112   C118    1.400   .     A
C112   C116    1.411   .     A
C113   C115    1.411   .     A
C113   C119    1.400   .     A
C114   C120    1.400   .     A
C114   C116    1.411   .     A
C115   C158    1.397   .     S
C116   C157    1.397   1_455 S
C117   C162    1.387   .     S
C118   C161    1.387   1_455 S
C119   C160    1.387   .     S
C120   C159    1.387   1_455 S
C122   C205    1.173   .     S
O127   Zn143   1.973   .     S
O127   C135    1.266   .     A
O128   Zn144   1.973   .     S
O128   C136    1.266   .     A
O129   C136    1.266   .     A
O129   Zn143   1.973   .     S
O130   Zn144   1.973   .     S
O130   C135    1.266   .     A
H131   C159    1.077   .     S
H132   C160    1.077   .     S
H133   C161    1.077   .     S
H134   C162    1.077   .     S
C135   C163    1.379   .     S
C136   C164    1.379   .     S
O137   C141    1.270   .     A
O137   Zn143   2.011   .     S
O138   C142    1.270   .     A
O138   Zn144   2.011   .     S
O139   Zn143   2.011   .     S
O139   C142    1.270   .     A
O140   Zn144   2.011   .     S
O140   C141    1.270   .     A
C141   C152    1.425   .     S
C142   C151    1.425   .     S
Zn143  N146    1.976   .     S
Zn144  N145    1.976   .     S
N145   N650    1.194   1_554 S
N146   N397    1.194   .     S
C147   C151    1.400   .     A
C147   C155    1.394   .     A
C147   I165    2.141   .     S
C148   C152    1.400   .     A
C148   I166    2.141   .     S
C148   C156    1.394   .     A
C149   I167    2.141   .     S
C149   C153    1.394   .     A
C149   C151    1.400   .     A
C150   I168    2.141   .     S
C150   C152    1.400   .     A
C150   C154    1.394   .     A
C153   C159    1.400   .     A
C153   C157    1.411   .     A
C154   C160    1.400   .     A
C154   C158    1.411   .     A
C155   C157    1.411   .     A
C155   C161    1.400   .     A
C156   C162    1.400   .     A
C156   C158    1.411   .     A
C157   C116    1.397   1_655 S
C159   C120    1.387   1_655 S
C161   C118    1.387   1_655 S
C164   C247    1.173   .     S
O169   Zn185   1.973   .     S
O169   C177    1.266   .     A
O170   Zn186   1.973   .     S
O170   C178    1.266   .     A
O171   C178    1.266   .     A
O171   Zn185   1.973   .     S
O172   Zn186   1.973   .     S
O172   C177    1.266   .     A
H173   C201    1.077   .     S
H174   C202    1.077   .     S
H175   C203    1.077   .     S
H176   C204    1.077   .     S
C177   C205    1.379   .     S
C178   C206    1.379   .     S
O179   C183    1.270   .     A
O179   Zn185   2.011   .     S
O180   C184    1.270   .     A
O180   Zn186   2.011   .     S
O181   Zn185   2.011   .     S
O181   C184    1.270   .     A
O182   Zn186   2.011   .     S
O182   C183    1.270   .     A
C183   C194    1.425   .     S
C184   C193    1.425   .     S
Zn185  N188    1.976   .     S
Zn186  N187    1.976   .     S
N187   N692    1.194   1_554 S
N188   N439    1.194   .     S
C189   C193    1.400   .     A
C189   C197    1.394   .     A
C189   I207    2.141   .     S
C190   C194    1.400   .     A
C190   I208    2.141   .     S
C190   C198    1.394   .     A
C191   I209    2.141   .     S
C191   C195    1.394   .     A
C191   C193    1.400   .     A
C192   I210    2.141   .     S
C192   C194    1.400   .     A
C192   C196    1.394   .     A
C195   C201    1.400   .     A
C195   C199    1.411   .     A
C196   C202    1.400   .     A
C196   C200    1.411   .     A
C197   C199    1.411   .     A
C197   C203    1.400   .     A
C198   C204    1.400   .     A
C198   C200    1.411   .     A
C199   C242    1.397   .     S
C200   C241    1.397   1_455 S
C201   C246    1.387   .     S
C202   C245    1.387   1_455 S
C203   C244    1.387   .     S
C204   C243    1.387   1_455 S
C206   C37     1.173   1_565 S
O211   Zn227   1.973   .     S
O211   C219    1.266   .     A
O212   Zn228   1.973   .     S
O212   C220    1.266   .     A
O213   C220    1.266   .     A
O213   Zn227   1.973   .     S
O214   Zn228   1.973   .     S
O214   C219    1.266   .     A
H215   C243    1.077   .     S
H216   C244    1.077   .     S
H217   C245    1.077   .     S
H218   C246    1.077   .     S
C219   C247    1.379   .     S
C220   C248    1.379   .     S
O221   C225    1.270   .     A
O221   Zn227   2.011   .     S
O222   C226    1.270   .     A
O222   Zn228   2.011   .     S
O223   Zn227   2.011   .     S
O223   C226    1.270   .     A
O224   Zn228   2.011   .     S
O224   C225    1.270   .     A
C225   C236    1.425   .     S
C226   C235    1.425   .     S
Zn227  N230    1.976   .     S
Zn228  N229    1.976   .     S
N229   N734    1.194   1_554 S
N230   N481    1.194   .     S
C231   C235    1.400   .     A
C231   C239    1.394   .     A
C231   I249    2.141   .     S
C232   C236    1.400   .     A
C232   I250    2.141   .     S
C232   C240    1.394   .     A
C233   I251    2.141   .     S
C233   C237    1.394   .     A
C233   C235    1.400   .     A
C234   I252    2.141   .     S
C234   C236    1.400   .     A
C234   C238    1.394   .     A
C237   C243    1.400   .     A
C237   C241    1.411   .     A
C238   C244    1.400   .     A
C238   C242    1.411   .     A
C239   C241    1.411   .     A
C239   C245    1.400   .     A
C240   C246    1.400   .     A
C240   C242    1.411   .     A
C241   C200    1.397   1_655 S
C243   C204    1.387   1_655 S
C245   C202    1.387   1_655 S
C248   C79     1.173   1_565 S
O253   Zn269   1.973   .     S
O253   C261    1.266   .     A
O254   Zn270   1.973   .     S
O254   C262    1.266   .     A
O255   C262    1.266   .     A
O255   Zn269   1.973   .     S
O256   Zn270   1.973   .     S
O256   C261    1.266   .     A
H257   C285    1.077   .     S
H258   C286    1.077   .     S
H259   C287    1.077   .     S
H260   C288    1.077   .     S
C261   C289    1.379   .     S
C262   C290    1.379   .     S
O263   C267    1.270   .     A
O263   Zn269   2.011   .     S
O264   C268    1.270   .     A
O264   Zn270   2.011   .     S
O265   Zn269   2.011   .     S
O265   C268    1.270   .     A
O266   Zn270   2.011   .     S
O266   C267    1.270   .     A
C267   C278    1.425   .     S
C268   C277    1.425   .     S
Zn269  N272    1.976   .     S
Zn270  N271    1.976   .     S
N272   N523    1.194   .     S
C273   C277    1.400   .     A
C273   C281    1.394   .     A
C273   I291    2.141   .     S
C274   C278    1.400   .     A
C274   I292    2.141   .     S
C274   C282    1.394   .     A
C275   I293    2.141   .     S
C275   C279    1.394   .     A
C275   C277    1.400   .     A
C276   I294    2.141   .     S
C276   C278    1.400   .     A
C276   C280    1.394   .     A
C279   C285    1.400   .     A
C279   C283    1.411   .     A
C280   C286    1.400   .     A
C280   C284    1.411   .     A
C281   C283    1.411   .     A
C281   C287    1.400   .     A
C282   C288    1.400   .     A
C282   C284    1.411   .     A
C283   C326    1.397   .     S
C284   C325    1.397   1_455 S
C285   C330    1.387   .     S
C286   C329    1.387   1_455 S
C287   C328    1.387   .     S
C288   C327    1.387   1_455 S
C289   C458    1.173   1_545 S
C290   C373    1.173   .     S
O295   Zn311   1.973   .     S
O295   C303    1.266   .     A
O296   Zn312   1.973   .     S
O296   C304    1.266   .     A
O297   C304    1.266   .     A
O297   Zn311   1.973   .     S
O298   Zn312   1.973   .     S
O298   C303    1.266   .     A
H299   C327    1.077   .     S
H300   C328    1.077   .     S
H301   C329    1.077   .     S
H302   C330    1.077   .     S
C303   C331    1.379   .     S
C304   C332    1.379   .     S
O305   C309    1.270   .     A
O305   Zn311   2.011   .     S
O306   C310    1.270   .     A
O306   Zn312   2.011   .     S
O307   Zn311   2.011   .     S
O307   C310    1.270   .     A
O308   Zn312   2.011   .     S
O308   C309    1.270   .     A
C309   C320    1.425   .     S
C310   C319    1.425   .     S
Zn311  N314    1.976   .     S
Zn312  N313    1.976   .     S
N314   N565    1.194   .     S
C315   C319    1.400   .     A
C315   C323    1.394   .     A
C315   I333    2.141   .     S
C316   C320    1.400   .     A
C316   I334    2.141   .     S
C316   C324    1.394   .     A
C317   I335    2.141   .     S
C317   C321    1.394   .     A
C317   C319    1.400   .     A
C318   I336    2.141   .     S
C318   C320    1.400   .     A
C318   C322    1.394   .     A
C321   C327    1.400   .     A
C321   C325    1.411   .     A
C322   C328    1.400   .     A
C322   C326    1.411   .     A
C323   C325    1.411   .     A
C323   C329    1.400   .     A
C324   C330    1.400   .     A
C324   C326    1.411   .     A
C325   C284    1.397   1_655 S
C327   C288    1.387   1_655 S
C329   C286    1.387   1_655 S
C331   C500    1.173   1_545 S
C332   C415    1.173   .     S
O337   Zn353   1.973   .     S
O337   C345    1.266   .     A
O338   Zn354   1.973   .     S
O338   C346    1.266   .     A
O339   C346    1.266   .     A
O339   Zn353   1.973   .     S
O340   Zn354   1.973   .     S
O340   C345    1.266   .     A
H341   C369    1.077   .     S
H342   C370    1.077   .     S
H343   C371    1.077   .     S
H344   C372    1.077   .     S
C345   C373    1.379   .     S
C346   C374    1.379   .     S
O347   C351    1.270   .     A
O347   Zn353   2.011   .     S
O348   C352    1.270   .     A
O348   Zn354   2.011   .     S
O349   Zn353   2.011   .     S
O349   C352    1.270   .     A
O350   Zn354   2.011   .     S
O350   C351    1.270   .     A
C351   C362    1.425   .     S
C352   C361    1.425   .     S
Zn353  N356    1.976   .     S
Zn354  N355    1.976   .     S
N356   N607    1.194   .     S
C357   C361    1.400   .     A
C357   C365    1.394   .     A
C357   I375    2.141   .     S
C358   C362    1.400   .     A
C358   I376    2.141   .     S
C358   C366    1.394   .     A
C359   I377    2.141   .     S
C359   C363    1.394   .     A
C359   C361    1.400   .     A
C360   I378    2.141   .     S
C360   C362    1.400   .     A
C360   C364    1.394   .     A
C363   C369    1.400   .     A
C363   C367    1.411   .     A
C364   C370    1.400   .     A
C364   C368    1.411   .     A
C365   C367    1.411   .     A
C365   C371    1.400   .     A
C366   C372    1.400   .     A
C366   C368    1.411   .     A
C367   C410    1.397   .     S
C368   C409    1.397   1_455 S
C369   C414    1.387   .     S
C370   C413    1.387   1_455 S
C371   C412    1.387   .     S
C372   C411    1.387   1_455 S
C374   C457    1.173   .     S
O379   Zn395   1.973   .     S
O379   C387    1.266   .     A
O380   Zn396   1.973   .     S
O380   C388    1.266   .     A
O381   C388    1.266   .     A
O381   Zn395   1.973   .     S
O382   Zn396   1.973   .     S
O382   C387    1.266   .     A
H383   C411    1.077   .     S
H384   C412    1.077   .     S
H385   C413    1.077   .     S
H386   C414    1.077   .     S
C387   C415    1.379   .     S
C388   C416    1.379   .     S
O389   C393    1.270   .     A
O389   Zn395   2.011   .     S
O390   C394    1.270   .     A
O390   Zn396   2.011   .     S
O391   Zn395   2.011   .     S
O391   C394    1.270   .     A
O392   Zn396   2.011   .     S
O392   C393    1.270   .     A
C393   C404    1.425   .     S
C394   C403    1.425   .     S
Zn395  N398    1.976   .     S
Zn396  N397    1.976   .     S
N398   N649    1.194   .     S
C399   C403    1.400   .     A
C399   C407    1.394   .     A
C399   I417    2.141   .     S
C400   C404    1.400   .     A
C400   I418    2.141   .     S
C400   C408    1.394   .     A
C401   I419    2.141   .     S
C401   C405    1.394   .     A
C401   C403    1.400   .     A
C402   I420    2.141   .     S
C402   C404    1.400   .     A
C402   C406    1.394   .     A
C405   C411    1.400   .     A
C405   C409    1.411   .     A
C406   C412    1.400   .     A
C406   C410    1.411   .     A
C407   C409    1.411   .     A
C407   C413    1.400   .     A
C408   C414    1.400   .     A
C408   C410    1.411   .     A
C409   C368    1.397   1_655 S
C411   C372    1.387   1_655 S
C413   C370    1.387   1_655 S
C416   C499    1.173   .     S
O421   Zn437   1.973   .     S
O421   C429    1.266   .     A
O422   Zn438   1.973   .     S
O422   C430    1.266   .     A
O423   C430    1.266   .     A
O423   Zn437   1.973   .     S
O424   Zn438   1.973   .     S
O424   C429    1.266   .     A
H425   C453    1.077   .     S
H426   C454    1.077   .     S
H427   C455    1.077   .     S
H428   C456    1.077   .     S
C429   C457    1.379   .     S
C430   C458    1.379   .     S
O431   C435    1.270   .     A
O431   Zn437   2.011   .     S
O432   C436    1.270   .     A
O432   Zn438   2.011   .     S
O433   Zn437   2.011   .     S
O433   C436    1.270   .     A
O434   Zn438   2.011   .     S
O434   C435    1.270   .     A
C435   C446    1.425   .     S
C436   C445    1.425   .     S
Zn437  N440    1.976   .     S
Zn438  N439    1.976   .     S
N440   N691    1.194   .     S
C441   C445    1.400   .     A
C441   C449    1.394   .     A
C441   I459    2.141   .     S
C442   C446    1.400   .     A
C442   I460    2.141   .     S
C442   C450    1.394   .     A
C443   I461    2.141   .     S
C443   C447    1.394   .     A
C443   C445    1.400   .     A
C444   I462    2.141   .     S
C444   C446    1.400   .     A
C444   C448    1.394   .     A
C447   C453    1.400   .     A
C447   C451    1.411   .     A
C448   C454    1.400   .     A
C448   C452    1.411   .     A
C449   C451    1.411   .     A
C449   C455    1.400   .     A
C450   C456    1.400   .     A
C450   C452    1.411   .     A
C451   C494    1.397   .     S
C452   C493    1.397   1_455 S
C453   C498    1.387   .     S
C454   C497    1.387   1_455 S
C455   C496    1.387   .     S
C456   C495    1.387   1_455 S
C458   C289    1.173   1_565 S
O463   Zn479   1.973   .     S
O463   C471    1.266   .     A
O464   Zn480   1.973   .     S
O464   C472    1.266   .     A
O465   C472    1.266   .     A
O465   Zn479   1.973   .     S
O466   Zn480   1.973   .     S
O466   C471    1.266   .     A
H467   C495    1.077   .     S
H468   C496    1.077   .     S
H469   C497    1.077   .     S
H470   C498    1.077   .     S
C471   C499    1.379   .     S
C472   C500    1.379   .     S
O473   C477    1.270   .     A
O473   Zn479   2.011   .     S
O474   C478    1.270   .     A
O474   Zn480   2.011   .     S
O475   Zn479   2.011   .     S
O475   C478    1.270   .     A
O476   Zn480   2.011   .     S
O476   C477    1.270   .     A
C477   C488    1.425   .     S
C478   C487    1.425   .     S
Zn479  N482    1.976   .     S
Zn480  N481    1.976   .     S
N482   N733    1.194   .     S
C483   C487    1.400   .     A
C483   C491    1.394   .     A
C483   I501    2.141   .     S
C484   C488    1.400   .     A
C484   I502    2.141   .     S
C484   C492    1.394   .     A
C485   I503    2.141   .     S
C485   C489    1.394   .     A
C485   C487    1.400   .     A
C486   I504    2.141   .     S
C486   C488    1.400   .     A
C486   C490    1.394   .     A
C489   C495    1.400   .     A
C489   C493    1.411   .     A
C490   C496    1.400   .     A
C490   C494    1.411   .     A
C491   C493    1.411   .     A
C491   C497    1.400   .     A
C492   C498    1.400   .     A
C492   C494    1.411   .     A
C493   C452    1.397   1_655 S
C495   C456    1.387   1_655 S
C497   C454    1.387   1_655 S
C500   C331    1.173   1_565 S
O505   Zn521   1.973   .     S
O505   C513    1.266   .     A
O506   Zn522   1.973   .     S
O506   C514    1.266   .     A
O507   C514    1.266   .     A
O507   Zn521   1.973   .     S
O508   Zn522   1.973   .     S
O508   C513    1.266   .     A
H509   C537    1.077   .     S
H510   C538    1.077   .     S
H511   C539    1.077   .     S
H512   C540    1.077   .     S
C513   C541    1.379   .     S
C514   C542    1.379   .     S
O515   C519    1.270   .     A
O515   Zn521   2.011   .     S
O516   C520    1.270   .     A
O516   Zn522   2.011   .     S
O517   Zn521   2.011   .     S
O517   C520    1.270   .     A
O518   Zn522   2.011   .     S
O518   C519    1.270   .     A
C519   C530    1.425   .     S
C520   C529    1.425   .     S
Zn521  N524    1.976   .     S
Zn522  N523    1.976   .     S
N524   N19     1.194   1_556 S
C525   C529    1.400   .     A
C525   C533    1.394   .     A
C525   I543    2.141   .     S
C526   C530    1.400   .     A
C526   I544    2.141   .     S
C526   C534    1.394   .     A
C527   I545    2.141   .     S
C527   C531    1.394   .     A
C527   C529    1.400   .     A
C528   I546    2.141   .     S
C528   C530    1.400   .     A
C528   C532    1.394   .     A
C531   C537    1.400   .     A
C531   C535    1.411   .     A
C532   C538    1.400   .     A
C532   C536    1.411   .     A
C533   C535    1.411   .     A
C533   C539    1.400   .     A
C534   C540    1.400   .     A
C534   C536    1.411   .     A
C535   C578    1.397   .     S
C536   C577    1.397   1_455 S
C537   C582    1.387   .     S
C538   C581    1.387   1_455 S
C539   C580    1.387   .     S
C540   C579    1.387   1_455 S
C541   C710    1.173   1_545 S
C542   C625    1.173   .     S
O547   Zn563   1.973   .     S
O547   C555    1.266   .     A
O548   Zn564   1.973   .     S
O548   C556    1.266   .     A
O549   C556    1.266   .     A
O549   Zn563   1.973   .     S
O550   Zn564   1.973   .     S
O550   C555    1.266   .     A
H551   C579    1.077   .     S
H552   C580    1.077   .     S
H553   C581    1.077   .     S
H554   C582    1.077   .     S
C555   C583    1.379   .     S
C556   C584    1.379   .     S
O557   C561    1.270   .     A
O557   Zn563   2.011   .     S
O558   C562    1.270   .     A
O558   Zn564   2.011   .     S
O559   Zn563   2.011   .     S
O559   C562    1.270   .     A
O560   Zn564   2.011   .     S
O560   C561    1.270   .     A
C561   C572    1.425   .     S
C562   C571    1.425   .     S
Zn563  N566    1.976   .     S
Zn564  N565    1.976   .     S
N566   N61     1.194   1_556 S
C567   C571    1.400   .     A
C567   C575    1.394   .     A
C567   I585    2.141   .     S
C568   C572    1.400   .     A
C568   I586    2.141   .     S
C568   C576    1.394   .     A
C569   I587    2.141   .     S
C569   C573    1.394   .     A
C569   C571    1.400   .     A
C570   I588    2.141   .     S
C570   C572    1.400   .     A
C570   C574    1.394   .     A
C573   C579    1.400   .     A
C573   C577    1.411   .     A
C574   C580    1.400   .     A
C574   C578    1.411   .     A
C575   C577    1.411   .     A
C575   C581    1.400   .     A
C576   C582    1.400   .     A
C576   C578    1.411   .     A
C577   C536    1.397   1_655 S
C579   C540    1.387   1_655 S
C581   C538    1.387   1_655 S
C583   C752    1.173   1_545 S
C584   C667    1.173   .     S
O589   Zn605   1.973   .     S
O589   C597    1.266   .     A
O590   Zn606   1.973   .     S
O590   C598    1.266   .     A
O591   C598    1.266   .     A
O591   Zn605   1.973   .     S
O592   Zn606   1.973   .     S
O592   C597    1.266   .     A
H593   C621    1.077   .     S
H594   C622    1.077   .     S
H595   C623    1.077   .     S
H596   C624    1.077   .     S
C597   C625    1.379   .     S
C598   C626    1.379   .     S
O599   C603    1.270   .     A
O599   Zn605   2.011   .     S
O600   C604    1.270   .     A
O600   Zn606   2.011   .     S
O601   Zn605   2.011   .     S
O601   C604    1.270   .     A
O602   Zn606   2.011   .     S
O602   C603    1.270   .     A
C603   C614    1.425   .     S
C604   C613    1.425   .     S
Zn605  N608    1.976   .     S
Zn606  N607    1.976   .     S
N608   N103    1.194   1_556 S
C609   C613    1.400   .     A
C609   C617    1.394   .     A
C609   I627    2.141   .     S
C610   C614    1.400   .     A
C610   I628    2.141   .     S
C610   C618    1.394   .     A
C611   I629    2.141   .     S
C611   C615    1.394   .     A
C611   C613    1.400   .     A
C612   I630    2.141   .     S
C612   C614    1.400   .     A
C612   C616    1.394   .     A
C615   C621    1.400   .     A
C615   C619    1.411   .     A
C616   C622    1.400   .     A
C616   C620    1.411   .     A
C617   C619    1.411   .     A
C617   C623    1.400   .     A
C618   C624    1.400   .     A
C618   C620    1.411   .     A
C619   C662    1.397   .     S
C620   C661    1.397   1_455 S
C621   C666    1.387   .     S
C622   C665    1.387   1_455 S
C623   C664    1.387   .     S
C624   C663    1.387   1_455 S
C626   C709    1.173   .     S
O631   Zn647   1.973   .     S
O631   C639    1.266   .     A
O632   Zn648   1.973   .     S
O632   C640    1.266   .     A
O633   C640    1.266   .     A
O633   Zn647   1.973   .     S
O634   Zn648   1.973   .     S
O634   C639    1.266   .     A
H635   C663    1.077   .     S
H636   C664    1.077   .     S
H637   C665    1.077   .     S
H638   C666    1.077   .     S
C639   C667    1.379   .     S
C640   C668    1.379   .     S
O641   C645    1.270   .     A
O641   Zn647   2.011   .     S
O642   C646    1.270   .     A
O642   Zn648   2.011   .     S
O643   Zn647   2.011   .     S
O643   C646    1.270   .     A
O644   Zn648   2.011   .     S
O644   C645    1.270   .     A
C645   C656    1.425   .     S
C646   C655    1.425   .     S
Zn647  N650    1.976   .     S
Zn648  N649    1.976   .     S
N650   N145    1.194   1_556 S
C651   C655    1.400   .     A
C651   C659    1.394   .     A
C651   I669    2.141   .     S
C652   C656    1.400   .     A
C652   I670    2.141   .     S
C652   C660    1.394   .     A
C653   I671    2.141   .     S
C653   C657    1.394   .     A
C653   C655    1.400   .     A
C654   I672    2.141   .     S
C654   C656    1.400   .     A
C654   C658    1.394   .     A
C657   C663    1.400   .     A
C657   C661    1.411   .     A
C658   C664    1.400   .     A
C658   C662    1.411   .     A
C659   C661    1.411   .     A
C659   C665    1.400   .     A
C660   C666    1.400   .     A
C660   C662    1.411   .     A
C661   C620    1.397   1_655 S
C663   C624    1.387   1_655 S
C665   C622    1.387   1_655 S
C668   C751    1.173   .     S
O673   Zn689   1.973   .     S
O673   C681    1.266   .     A
O674   Zn690   1.973   .     S
O674   C682    1.266   .     A
O675   C682    1.266   .     A
O675   Zn689   1.973   .     S
O676   Zn690   1.973   .     S
O676   C681    1.266   .     A
H677   C705    1.077   .     S
H678   C706    1.077   .     S
H679   C707    1.077   .     S
H680   C708    1.077   .     S
C681   C709    1.379   .     S
C682   C710    1.379   .     S
O683   C687    1.270   .     A
O683   Zn689   2.011   .     S
O684   C688    1.270   .     A
O684   Zn690   2.011   .     S
O685   Zn689   2.011   .     S
O685   C688    1.270   .     A
O686   Zn690   2.011   .     S
O686   C687    1.270   .     A
C687   C698    1.425   .     S
C688   C697    1.425   .     S
Zn689  N692    1.976   .     S
Zn690  N691    1.976   .     S
N692   N187    1.194   1_556 S
C693   C697    1.400   .     A
C693   C701    1.394   .     A
C693   I711    2.141   .     S
C694   C698    1.400   .     A
C694   I712    2.141   .     S
C694   C702    1.394   .     A
C695   I713    2.141   .     S
C695   C699    1.394   .     A
C695   C697    1.400   .     A
C696   I714    2.141   .     S
C696   C698    1.400   .     A
C696   C700    1.394   .     A
C699   C705    1.400   .     A
C699   C703    1.411   .     A
C700   C706    1.400   .     A
C700   C704    1.411   .     A
C701   C703    1.411   .     A
C701   C707    1.400   .     A
C702   C708    1.400   .     A
C702   C704    1.411   .     A
C703   C746    1.397   .     S
C704   C745    1.397   1_455 S
C705   C750    1.387   .     S
C706   C749    1.387   1_455 S
C707   C748    1.387   .     S
C708   C747    1.387   1_455 S
C710   C541    1.173   1_565 S
O715   Zn731   1.973   .     S
O715   C723    1.266   .     A
O716   Zn732   1.973   .     S
O716   C724    1.266   .     A
O717   C724    1.266   .     A
O717   Zn731   1.973   .     S
O718   Zn732   1.973   .     S
O718   C723    1.266   .     A
H719   C747    1.077   .     S
H720   C748    1.077   .     S
H721   C749    1.077   .     S
H722   C750    1.077   .     S
C723   C751    1.379   .     S
C724   C752    1.379   .     S
O725   C729    1.270   .     A
O725   Zn731   2.011   .     S
O726   C730    1.270   .     A
O726   Zn732   2.011   .     S
O727   Zn731   2.011   .     S
O727   C730    1.270   .     A
O728   Zn732   2.011   .     S
O728   C729    1.270   .     A
C729   C740    1.425   .     S
C730   C739    1.425   .     S
Zn731  N734    1.976   .     S
Zn732  N733    1.976   .     S
N734   N229    1.194   1_556 S
C735   C739    1.400   .     A
C735   C743    1.394   .     A
C735   I753    2.141   .     S
C736   C740    1.400   .     A
C736   I754    2.141   .     S
C736   C744    1.394   .     A
C737   I755    2.141   .     S
C737   C741    1.394   .     A
C737   C739    1.400   .     A
C738   I756    2.141   .     S
C738   C740    1.400   .     A
C738   C742    1.394   .     A
C741   C747    1.400   .     A
C741   C745    1.411   .     A
C742   C748    1.400   .     A
C742   C746    1.411   .     A
C743   C745    1.411   .     A
C743   C749    1.400   .     A
C744   C750    1.400   .     A
C744   C746    1.411   .     A
C745   C704    1.397   1_655 S
C747   C708    1.387   1_655 S
C749   C706    1.387   1_655 S
C752   C583    1.173   1_565 S
