data_str_m3_o2_o5_pcu_sym.108
_audit_creation_date              2020-01-03
_audit_creation_method            'Materials Studio'
_symmetry_space_group_name_H-M    'P1'
_symmetry_Int_Tables_number       1
_symmetry_cell_setting            triclinic
loop_
_symmetry_equiv_pos_as_xyz
  x,y,z
_cell_length_a                    30.0453
_cell_length_b                    28.5508
_cell_length_c                    26.7080
_cell_angle_alpha                 90.0005
_cell_angle_beta                  91.2862
_cell_angle_gamma                 89.9985
loop_
_atom_site_label
_atom_site_type_symbol
_atom_site_fract_x
_atom_site_fract_y
_atom_site_fract_z
_atom_site_U_iso_or_equiv
_atom_site_adp_type
_atom_site_occupancy
C1     C     0.16390   0.25002   0.16785   0.00000  Uiso   1.00
C2     C     0.24999   0.44853   0.12216   0.00000  Uiso   1.00
C3     C     0.24992   0.24999   0.07293   0.00000  Uiso   1.00
C4     C     0.25008   0.24999   0.26040   0.00000  Uiso   1.00
C5     C     0.25000   0.02711   0.16667   0.00000  Uiso   1.00
C6     C     0.25000   0.47418   0.16667   0.00000  Uiso   1.00
C7     C     0.24998   0.24997   0.02181   0.00000  Uiso   1.00
C8     C     0.25002   0.24997   0.31152   0.00000  Uiso   1.00
C9     C     0.04496   0.28176   0.14351   0.00000  Uiso   1.00
C10    C     0.45232   0.20986   0.14140   0.00000  Uiso   1.00
C11    C     0.45504   0.28178   0.18977   0.00000  Uiso   1.00
C12    C     0.33610   0.25002   0.16548   0.00000  Uiso   1.00
C13    C     0.04768   0.20987   0.19191   0.00000  Uiso   1.00
C14    C     0.09078   0.28530   0.14599   0.00000  Uiso   1.00
C15    C     0.40590   0.21232   0.13813   0.00000  Uiso   1.00
C16    C     0.40923   0.28531   0.18730   0.00000  Uiso   1.00
C17    C     0.09410   0.21233   0.19521   0.00000  Uiso   1.00
C18    C     0.11569   0.24969   0.17038   0.00000  Uiso   1.00
C19    C     0.38431   0.24969   0.16295   0.00000  Uiso   1.00
C20    C     0.02385   0.24444   0.16632   0.00000  Uiso   1.00
C21    C     0.47615   0.24444   0.16696   0.00000  Uiso   1.00
C22    C     0.15297   0.12396   0.09912   0.00000  Uiso   1.00
C23    C     0.22575   0.10224   0.13103   0.00000  Uiso   1.00
C24    C     0.29559   0.37060   0.27946   0.00000  Uiso   1.00
C25    C     0.34702   0.12396   0.23423   0.00000  Uiso   1.00
C26    C     0.20442   0.37060   0.05386   0.00000  Uiso   1.00
C27    C     0.11266   0.36588   0.15502   0.00000  Uiso   1.00
C28    C     0.40117   0.13773   0.08913   0.00000  Uiso   1.00
C29    C     0.38733   0.36589   0.17827   0.00000  Uiso   1.00
C30    C     0.09880   0.13783   0.24435   0.00000  Uiso   1.00
C31    C     0.25049   0.39898   0.21093   0.00000  Uiso   1.00
C32    C     0.27425   0.10224   0.20230   0.00000  Uiso   1.00
C33    C     0.24951   0.39898   0.12240   0.00000  Uiso   1.00
C34    C     0.22613   0.05274   0.13002   0.00000  Uiso   1.00
C35    C     0.25002   0.44854   0.21117   0.00000  Uiso   1.00
C36    C     0.27387   0.05274   0.20331   0.00000  Uiso   1.00
H37    H     0.02559   0.30879   0.12455   0.00000  Uiso   1.00
H38    H     0.13642   0.14935   0.07331   0.00000  Uiso   1.00
H39    H     0.14323   0.13230   0.13795   0.00000  Uiso   1.00
H40    H     0.14130   0.08811   0.08936   0.00000  Uiso   1.00
H41    H     0.22983   0.39082   0.28291   0.00000  Uiso   1.00
H42    H     0.31026   0.40530   0.28902   0.00000  Uiso   1.00
H43    H     0.31714   0.35203   0.25294   0.00000  Uiso   1.00
H44    H     0.29403   0.34897   0.31387   0.00000  Uiso   1.00
H45    H     0.28954   0.11995   0.27500   0.00000  Uiso   1.00
H46    H     0.36357   0.14934   0.26005   0.00000  Uiso   1.00
H47    H     0.35677   0.13230   0.19541   0.00000  Uiso   1.00
H48    H     0.47051   0.18250   0.12268   0.00000  Uiso   1.00
H49    H     0.35869   0.08810   0.24399   0.00000  Uiso   1.00
H50    H     0.27019   0.39081   0.05043   0.00000  Uiso   1.00
H51    H     0.18976   0.40530   0.04429   0.00000  Uiso   1.00
H52    H     0.18287   0.35204   0.08038   0.00000  Uiso   1.00
H53    H     0.20599   0.34897   0.01946   0.00000  Uiso   1.00
H54    H     0.09866   0.33201   0.08817   0.00000  Uiso   1.00
H55    H     0.07835   0.37865   0.16167   0.00000  Uiso   1.00
H56    H     0.13156   0.39410   0.13635   0.00000  Uiso   1.00
H57    H     0.12947   0.35804   0.19155   0.00000  Uiso   1.00
H58    H     0.35698   0.19450   0.08459   0.00000  Uiso   1.00
H59    H     0.47441   0.30881   0.20870   0.00000  Uiso   1.00
H60    H     0.37513   0.11453   0.07249   0.00000  Uiso   1.00
H61    H     0.41836   0.11820   0.11990   0.00000  Uiso   1.00
H62    H     0.42498   0.14699   0.05949   0.00000  Uiso   1.00
H63    H     0.40136   0.33203   0.24512   0.00000  Uiso   1.00
H64    H     0.42164   0.37866   0.17160   0.00000  Uiso   1.00
H65    H     0.36844   0.39411   0.19693   0.00000  Uiso   1.00
H66    H     0.37052   0.35804   0.14175   0.00000  Uiso   1.00
H67    H     0.14303   0.19456   0.24874   0.00000  Uiso   1.00
H68    H     0.12483   0.11464   0.26106   0.00000  Uiso   1.00
H69    H     0.08160   0.11824   0.21363   0.00000  Uiso   1.00
H70    H     0.02949   0.18251   0.21064   0.00000  Uiso   1.00
H71    H     0.07499   0.14718   0.27396   0.00000  Uiso   1.00
H72    H     0.20687   0.03459   0.10130   0.00000  Uiso   1.00
H73    H     0.24957   0.46679   0.24672   0.00000  Uiso   1.00
H74    H     0.29313   0.03458   0.23204   0.00000  Uiso   1.00
H75    H     0.25043   0.46679   0.08662   0.00000  Uiso   1.00
H76    H     0.21045   0.11995   0.05834   0.00000  Uiso   1.00
N77    N     0.25000   0.12624   0.16667   0.00000  Uiso   1.00
N78    N     0.11951   0.17964   0.22495   0.00000  Uiso   1.00
N79    N     0.25000   0.37377   0.16667   0.00000  Uiso   1.00
N80    N     0.20072   0.12737   0.09427   0.00000  Uiso   1.00
N81    N     0.25134   0.37605   0.25786   0.00000  Uiso   1.00
N82    N     0.29927   0.12737   0.23907   0.00000  Uiso   1.00
N83    N     0.24867   0.37605   0.07547   0.00000  Uiso   1.00
N84    N     0.11140   0.32461   0.12349   0.00000  Uiso   1.00
N85    N     0.38049   0.17961   0.10842   0.00000  Uiso   1.00
N86    N     0.38861   0.32462   0.20980   0.00000  Uiso   1.00
O87    O     0.18453   0.28974   0.16667   0.00000  Uiso   1.00
O88    O     0.31547   0.21026   0.16666   0.00000  Uiso   1.00
O89    O     0.31547   0.28974   0.16666   0.00000  Uiso   1.00
O90    O     0.18453   0.21026   0.16667   0.00000  Uiso   1.00
O91    O     0.25000   0.28973   0.09511   0.00000  Uiso   1.00
O92    O     0.25000   0.21027   0.23822   0.00000  Uiso   1.00
O93    O     0.25000   0.28973   0.23822   0.00000  Uiso   1.00
O94    O     0.25000   0.21027   0.09511   0.00000  Uiso   1.00
Zn95   Zn    0.25000   0.30307   0.16667   0.00000  Uiso   1.00
Zn96   Zn    0.25000   0.19693   0.16667   0.00000  Uiso   1.00
C97    C     0.66390   0.25002   0.16785   0.00000  Uiso   1.00
C98    C     0.74999   0.44853   0.12216   0.00000  Uiso   1.00
C99    C     0.74992   0.24999   0.07293   0.00000  Uiso   1.00
C100   C     0.75008   0.24999   0.26040   0.00000  Uiso   1.00
C101   C     0.75000   0.02711   0.16667   0.00000  Uiso   1.00
C102   C     0.75000   0.47418   0.16667   0.00000  Uiso   1.00
C103   C     0.74998   0.24997   0.02181   0.00000  Uiso   1.00
C104   C     0.75002   0.24997   0.31152   0.00000  Uiso   1.00
C105   C     0.54496   0.28176   0.14351   0.00000  Uiso   1.00
C106   C     0.95232   0.20986   0.14140   0.00000  Uiso   1.00
C107   C     0.95504   0.28178   0.18977   0.00000  Uiso   1.00
C108   C     0.83610   0.25002   0.16548   0.00000  Uiso   1.00
C109   C     0.54768   0.20987   0.19191   0.00000  Uiso   1.00
C110   C     0.59078   0.28530   0.14599   0.00000  Uiso   1.00
C111   C     0.90590   0.21232   0.13813   0.00000  Uiso   1.00
C112   C     0.90923   0.28531   0.18730   0.00000  Uiso   1.00
C113   C     0.59410   0.21233   0.19521   0.00000  Uiso   1.00
C114   C     0.61569   0.24969   0.17038   0.00000  Uiso   1.00
C115   C     0.88431   0.24969   0.16295   0.00000  Uiso   1.00
C116   C     0.52385   0.24444   0.16632   0.00000  Uiso   1.00
C117   C     0.97615   0.24444   0.16696   0.00000  Uiso   1.00
C118   C     0.65297   0.12396   0.09912   0.00000  Uiso   1.00
C119   C     0.72575   0.10224   0.13103   0.00000  Uiso   1.00
C120   C     0.79559   0.37060   0.27946   0.00000  Uiso   1.00
C121   C     0.84702   0.12396   0.23423   0.00000  Uiso   1.00
C122   C     0.70442   0.37060   0.05386   0.00000  Uiso   1.00
C123   C     0.61266   0.36588   0.15502   0.00000  Uiso   1.00
C124   C     0.90117   0.13773   0.08913   0.00000  Uiso   1.00
C125   C     0.88733   0.36589   0.17827   0.00000  Uiso   1.00
C126   C     0.59880   0.13783   0.24435   0.00000  Uiso   1.00
C127   C     0.75049   0.39898   0.21093   0.00000  Uiso   1.00
C128   C     0.77425   0.10224   0.20230   0.00000  Uiso   1.00
C129   C     0.74951   0.39898   0.12240   0.00000  Uiso   1.00
C130   C     0.72613   0.05274   0.13002   0.00000  Uiso   1.00
C131   C     0.75002   0.44854   0.21117   0.00000  Uiso   1.00
C132   C     0.77387   0.05274   0.20331   0.00000  Uiso   1.00
H133   H     0.52559   0.30879   0.12455   0.00000  Uiso   1.00
H134   H     0.63642   0.14935   0.07331   0.00000  Uiso   1.00
H135   H     0.64323   0.13230   0.13795   0.00000  Uiso   1.00
H136   H     0.64130   0.08811   0.08936   0.00000  Uiso   1.00
H137   H     0.72983   0.39082   0.28291   0.00000  Uiso   1.00
H138   H     0.81026   0.40530   0.28902   0.00000  Uiso   1.00
H139   H     0.81714   0.35203   0.25294   0.00000  Uiso   1.00
H140   H     0.79403   0.34897   0.31387   0.00000  Uiso   1.00
H141   H     0.78954   0.11995   0.27500   0.00000  Uiso   1.00
H142   H     0.86357   0.14934   0.26005   0.00000  Uiso   1.00
H143   H     0.85677   0.13230   0.19541   0.00000  Uiso   1.00
H144   H     0.97051   0.18250   0.12268   0.00000  Uiso   1.00
H145   H     0.85869   0.08810   0.24399   0.00000  Uiso   1.00
H146   H     0.77019   0.39081   0.05043   0.00000  Uiso   1.00
H147   H     0.68976   0.40530   0.04429   0.00000  Uiso   1.00
H148   H     0.68287   0.35204   0.08038   0.00000  Uiso   1.00
H149   H     0.70599   0.34897   0.01946   0.00000  Uiso   1.00
H150   H     0.59866   0.33201   0.08817   0.00000  Uiso   1.00
H151   H     0.57835   0.37865   0.16167   0.00000  Uiso   1.00
H152   H     0.63156   0.39410   0.13635   0.00000  Uiso   1.00
H153   H     0.62947   0.35804   0.19155   0.00000  Uiso   1.00
H154   H     0.85698   0.19450   0.08459   0.00000  Uiso   1.00
H155   H     0.97441   0.30881   0.20870   0.00000  Uiso   1.00
H156   H     0.87513   0.11453   0.07249   0.00000  Uiso   1.00
H157   H     0.91836   0.11820   0.11990   0.00000  Uiso   1.00
H158   H     0.92498   0.14699   0.05949   0.00000  Uiso   1.00
H159   H     0.90136   0.33203   0.24512   0.00000  Uiso   1.00
H160   H     0.92164   0.37866   0.17160   0.00000  Uiso   1.00
H161   H     0.86844   0.39411   0.19693   0.00000  Uiso   1.00
H162   H     0.87052   0.35804   0.14175   0.00000  Uiso   1.00
H163   H     0.64303   0.19456   0.24874   0.00000  Uiso   1.00
H164   H     0.62483   0.11464   0.26106   0.00000  Uiso   1.00
H165   H     0.58160   0.11824   0.21363   0.00000  Uiso   1.00
H166   H     0.52949   0.18251   0.21064   0.00000  Uiso   1.00
H167   H     0.57499   0.14718   0.27396   0.00000  Uiso   1.00
H168   H     0.70687   0.03459   0.10130   0.00000  Uiso   1.00
H169   H     0.74957   0.46679   0.24672   0.00000  Uiso   1.00
H170   H     0.79313   0.03458   0.23204   0.00000  Uiso   1.00
H171   H     0.75043   0.46679   0.08662   0.00000  Uiso   1.00
H172   H     0.71045   0.11995   0.05834   0.00000  Uiso   1.00
N173   N     0.75000   0.12624   0.16667   0.00000  Uiso   1.00
N174   N     0.61951   0.17964   0.22495   0.00000  Uiso   1.00
N175   N     0.75000   0.37377   0.16667   0.00000  Uiso   1.00
N176   N     0.70072   0.12737   0.09427   0.00000  Uiso   1.00
N177   N     0.75134   0.37605   0.25786   0.00000  Uiso   1.00
N178   N     0.79927   0.12737   0.23907   0.00000  Uiso   1.00
N179   N     0.74867   0.37605   0.07547   0.00000  Uiso   1.00
N180   N     0.61140   0.32461   0.12349   0.00000  Uiso   1.00
N181   N     0.88049   0.17961   0.10842   0.00000  Uiso   1.00
N182   N     0.88861   0.32462   0.20980   0.00000  Uiso   1.00
O183   O     0.68453   0.28974   0.16667   0.00000  Uiso   1.00
O184   O     0.81547   0.21026   0.16666   0.00000  Uiso   1.00
O185   O     0.81547   0.28974   0.16666   0.00000  Uiso   1.00
O186   O     0.68453   0.21026   0.16667   0.00000  Uiso   1.00
O187   O     0.75000   0.28973   0.09511   0.00000  Uiso   1.00
O188   O     0.75000   0.21027   0.23822   0.00000  Uiso   1.00
O189   O     0.75000   0.28973   0.23822   0.00000  Uiso   1.00
O190   O     0.75000   0.21027   0.09511   0.00000  Uiso   1.00
Zn191  Zn    0.75000   0.30307   0.16667   0.00000  Uiso   1.00
Zn192  Zn    0.75000   0.19693   0.16667   0.00000  Uiso   1.00
C193   C     0.16390   0.75002   0.16785   0.00000  Uiso   1.00
C194   C     0.24999   0.94853   0.12216   0.00000  Uiso   1.00
C195   C     0.24992   0.74999   0.07293   0.00000  Uiso   1.00
C196   C     0.25008   0.74999   0.26040   0.00000  Uiso   1.00
C197   C     0.25000   0.52711   0.16667   0.00000  Uiso   1.00
C198   C     0.25000   0.97418   0.16667   0.00000  Uiso   1.00
C199   C     0.24998   0.74997   0.02181   0.00000  Uiso   1.00
C200   C     0.25002   0.74997   0.31152   0.00000  Uiso   1.00
C201   C     0.04496   0.78176   0.14351   0.00000  Uiso   1.00
C202   C     0.45232   0.70986   0.14140   0.00000  Uiso   1.00
C203   C     0.45504   0.78178   0.18977   0.00000  Uiso   1.00
C204   C     0.33610   0.75002   0.16548   0.00000  Uiso   1.00
C205   C     0.04768   0.70987   0.19191   0.00000  Uiso   1.00
C206   C     0.09078   0.78530   0.14599   0.00000  Uiso   1.00
C207   C     0.40590   0.71232   0.13813   0.00000  Uiso   1.00
C208   C     0.40923   0.78531   0.18730   0.00000  Uiso   1.00
C209   C     0.09410   0.71233   0.19521   0.00000  Uiso   1.00
C210   C     0.11569   0.74969   0.17038   0.00000  Uiso   1.00
C211   C     0.38431   0.74969   0.16295   0.00000  Uiso   1.00
C212   C     0.02385   0.74444   0.16632   0.00000  Uiso   1.00
C213   C     0.47615   0.74444   0.16696   0.00000  Uiso   1.00
C214   C     0.15297   0.62396   0.09912   0.00000  Uiso   1.00
C215   C     0.22575   0.60224   0.13103   0.00000  Uiso   1.00
C216   C     0.29559   0.87060   0.27946   0.00000  Uiso   1.00
C217   C     0.34702   0.62396   0.23423   0.00000  Uiso   1.00
C218   C     0.20442   0.87060   0.05386   0.00000  Uiso   1.00
C219   C     0.11266   0.86588   0.15502   0.00000  Uiso   1.00
C220   C     0.40117   0.63773   0.08913   0.00000  Uiso   1.00
C221   C     0.38733   0.86589   0.17827   0.00000  Uiso   1.00
C222   C     0.09880   0.63783   0.24435   0.00000  Uiso   1.00
C223   C     0.25049   0.89898   0.21093   0.00000  Uiso   1.00
C224   C     0.27425   0.60224   0.20230   0.00000  Uiso   1.00
C225   C     0.24951   0.89898   0.12240   0.00000  Uiso   1.00
C226   C     0.22613   0.55274   0.13002   0.00000  Uiso   1.00
C227   C     0.25002   0.94854   0.21117   0.00000  Uiso   1.00
C228   C     0.27387   0.55274   0.20331   0.00000  Uiso   1.00
H229   H     0.02559   0.80879   0.12455   0.00000  Uiso   1.00
H230   H     0.13642   0.64935   0.07331   0.00000  Uiso   1.00
H231   H     0.14323   0.63230   0.13795   0.00000  Uiso   1.00
H232   H     0.14130   0.58811   0.08936   0.00000  Uiso   1.00
H233   H     0.22983   0.89082   0.28291   0.00000  Uiso   1.00
H234   H     0.31026   0.90530   0.28902   0.00000  Uiso   1.00
H235   H     0.31714   0.85203   0.25294   0.00000  Uiso   1.00
H236   H     0.29403   0.84897   0.31387   0.00000  Uiso   1.00
H237   H     0.28954   0.61995   0.27500   0.00000  Uiso   1.00
H238   H     0.36357   0.64934   0.26005   0.00000  Uiso   1.00
H239   H     0.35677   0.63230   0.19541   0.00000  Uiso   1.00
H240   H     0.47051   0.68250   0.12268   0.00000  Uiso   1.00
H241   H     0.35869   0.58810   0.24399   0.00000  Uiso   1.00
H242   H     0.27019   0.89081   0.05043   0.00000  Uiso   1.00
H243   H     0.18976   0.90530   0.04429   0.00000  Uiso   1.00
H244   H     0.18287   0.85204   0.08038   0.00000  Uiso   1.00
H245   H     0.20599   0.84897   0.01946   0.00000  Uiso   1.00
H246   H     0.09866   0.83201   0.08817   0.00000  Uiso   1.00
H247   H     0.07835   0.87865   0.16167   0.00000  Uiso   1.00
H248   H     0.13156   0.89410   0.13635   0.00000  Uiso   1.00
H249   H     0.12947   0.85804   0.19155   0.00000  Uiso   1.00
H250   H     0.35698   0.69450   0.08459   0.00000  Uiso   1.00
H251   H     0.47441   0.80881   0.20870   0.00000  Uiso   1.00
H252   H     0.37513   0.61453   0.07249   0.00000  Uiso   1.00
H253   H     0.41836   0.61820   0.11990   0.00000  Uiso   1.00
H254   H     0.42498   0.64699   0.05949   0.00000  Uiso   1.00
H255   H     0.40136   0.83203   0.24512   0.00000  Uiso   1.00
H256   H     0.42164   0.87866   0.17160   0.00000  Uiso   1.00
H257   H     0.36844   0.89411   0.19693   0.00000  Uiso   1.00
H258   H     0.37052   0.85804   0.14175   0.00000  Uiso   1.00
H259   H     0.14303   0.69456   0.24874   0.00000  Uiso   1.00
H260   H     0.12483   0.61464   0.26106   0.00000  Uiso   1.00
H261   H     0.08160   0.61824   0.21363   0.00000  Uiso   1.00
H262   H     0.02949   0.68251   0.21064   0.00000  Uiso   1.00
H263   H     0.07499   0.64718   0.27396   0.00000  Uiso   1.00
H264   H     0.20687   0.53459   0.10130   0.00000  Uiso   1.00
H265   H     0.24957   0.96679   0.24672   0.00000  Uiso   1.00
H266   H     0.29313   0.53458   0.23204   0.00000  Uiso   1.00
H267   H     0.25043   0.96679   0.08662   0.00000  Uiso   1.00
H268   H     0.21045   0.61995   0.05834   0.00000  Uiso   1.00
N269   N     0.25000   0.62624   0.16667   0.00000  Uiso   1.00
N270   N     0.11951   0.67964   0.22495   0.00000  Uiso   1.00
N271   N     0.25000   0.87377   0.16667   0.00000  Uiso   1.00
N272   N     0.20072   0.62737   0.09427   0.00000  Uiso   1.00
N273   N     0.25134   0.87605   0.25786   0.00000  Uiso   1.00
N274   N     0.29927   0.62737   0.23907   0.00000  Uiso   1.00
N275   N     0.24867   0.87605   0.07547   0.00000  Uiso   1.00
N276   N     0.11140   0.82461   0.12349   0.00000  Uiso   1.00
N277   N     0.38049   0.67961   0.10842   0.00000  Uiso   1.00
N278   N     0.38861   0.82462   0.20980   0.00000  Uiso   1.00
O279   O     0.18453   0.78974   0.16667   0.00000  Uiso   1.00
O280   O     0.31547   0.71026   0.16666   0.00000  Uiso   1.00
O281   O     0.31547   0.78974   0.16666   0.00000  Uiso   1.00
O282   O     0.18453   0.71026   0.16667   0.00000  Uiso   1.00
O283   O     0.25000   0.78973   0.09511   0.00000  Uiso   1.00
O284   O     0.25000   0.71027   0.23822   0.00000  Uiso   1.00
O285   O     0.25000   0.78973   0.23822   0.00000  Uiso   1.00
O286   O     0.25000   0.71027   0.09511   0.00000  Uiso   1.00
Zn287  Zn    0.25000   0.80307   0.16667   0.00000  Uiso   1.00
Zn288  Zn    0.25000   0.69693   0.16667   0.00000  Uiso   1.00
C289   C     0.66390   0.75002   0.16785   0.00000  Uiso   1.00
C290   C     0.74999   0.94853   0.12216   0.00000  Uiso   1.00
C291   C     0.74992   0.74999   0.07293   0.00000  Uiso   1.00
C292   C     0.75008   0.74999   0.26040   0.00000  Uiso   1.00
C293   C     0.75000   0.52711   0.16667   0.00000  Uiso   1.00
C294   C     0.75000   0.97418   0.16667   0.00000  Uiso   1.00
C295   C     0.74998   0.74997   0.02181   0.00000  Uiso   1.00
C296   C     0.75002   0.74997   0.31152   0.00000  Uiso   1.00
C297   C     0.54496   0.78176   0.14351   0.00000  Uiso   1.00
C298   C     0.95232   0.70986   0.14140   0.00000  Uiso   1.00
C299   C     0.95504   0.78178   0.18977   0.00000  Uiso   1.00
C300   C     0.83610   0.75002   0.16548   0.00000  Uiso   1.00
C301   C     0.54768   0.70987   0.19191   0.00000  Uiso   1.00
C302   C     0.59078   0.78530   0.14599   0.00000  Uiso   1.00
C303   C     0.90590   0.71232   0.13813   0.00000  Uiso   1.00
C304   C     0.90923   0.78531   0.18730   0.00000  Uiso   1.00
C305   C     0.59410   0.71233   0.19521   0.00000  Uiso   1.00
C306   C     0.61569   0.74969   0.17038   0.00000  Uiso   1.00
C307   C     0.88431   0.74969   0.16295   0.00000  Uiso   1.00
C308   C     0.52385   0.74444   0.16632   0.00000  Uiso   1.00
C309   C     0.97615   0.74444   0.16696   0.00000  Uiso   1.00
C310   C     0.65297   0.62396   0.09912   0.00000  Uiso   1.00
C311   C     0.72575   0.60224   0.13103   0.00000  Uiso   1.00
C312   C     0.79559   0.87060   0.27946   0.00000  Uiso   1.00
C313   C     0.84702   0.62396   0.23423   0.00000  Uiso   1.00
C314   C     0.70442   0.87060   0.05386   0.00000  Uiso   1.00
C315   C     0.61266   0.86588   0.15502   0.00000  Uiso   1.00
C316   C     0.90117   0.63773   0.08913   0.00000  Uiso   1.00
C317   C     0.88733   0.86589   0.17827   0.00000  Uiso   1.00
C318   C     0.59880   0.63783   0.24435   0.00000  Uiso   1.00
C319   C     0.75049   0.89898   0.21093   0.00000  Uiso   1.00
C320   C     0.77425   0.60224   0.20230   0.00000  Uiso   1.00
C321   C     0.74951   0.89898   0.12240   0.00000  Uiso   1.00
C322   C     0.72613   0.55274   0.13002   0.00000  Uiso   1.00
C323   C     0.75002   0.94854   0.21117   0.00000  Uiso   1.00
C324   C     0.77387   0.55274   0.20331   0.00000  Uiso   1.00
H325   H     0.52559   0.80879   0.12455   0.00000  Uiso   1.00
H326   H     0.63642   0.64935   0.07331   0.00000  Uiso   1.00
H327   H     0.64323   0.63230   0.13795   0.00000  Uiso   1.00
H328   H     0.64130   0.58811   0.08936   0.00000  Uiso   1.00
H329   H     0.72983   0.89082   0.28291   0.00000  Uiso   1.00
H330   H     0.81026   0.90530   0.28902   0.00000  Uiso   1.00
H331   H     0.81714   0.85203   0.25294   0.00000  Uiso   1.00
H332   H     0.79403   0.84897   0.31387   0.00000  Uiso   1.00
H333   H     0.78954   0.61995   0.27500   0.00000  Uiso   1.00
H334   H     0.86357   0.64934   0.26005   0.00000  Uiso   1.00
H335   H     0.85677   0.63230   0.19541   0.00000  Uiso   1.00
H336   H     0.97051   0.68250   0.12268   0.00000  Uiso   1.00
H337   H     0.85869   0.58810   0.24399   0.00000  Uiso   1.00
H338   H     0.77019   0.89081   0.05043   0.00000  Uiso   1.00
H339   H     0.68976   0.90530   0.04429   0.00000  Uiso   1.00
H340   H     0.68287   0.85204   0.08038   0.00000  Uiso   1.00
H341   H     0.70599   0.84897   0.01946   0.00000  Uiso   1.00
H342   H     0.59866   0.83201   0.08817   0.00000  Uiso   1.00
H343   H     0.57835   0.87865   0.16167   0.00000  Uiso   1.00
H344   H     0.63156   0.89410   0.13635   0.00000  Uiso   1.00
H345   H     0.62947   0.85804   0.19155   0.00000  Uiso   1.00
H346   H     0.85698   0.69450   0.08459   0.00000  Uiso   1.00
H347   H     0.97441   0.80881   0.20870   0.00000  Uiso   1.00
H348   H     0.87513   0.61453   0.07249   0.00000  Uiso   1.00
H349   H     0.91836   0.61820   0.11990   0.00000  Uiso   1.00
H350   H     0.92498   0.64699   0.05949   0.00000  Uiso   1.00
H351   H     0.90136   0.83203   0.24512   0.00000  Uiso   1.00
H352   H     0.92164   0.87866   0.17160   0.00000  Uiso   1.00
H353   H     0.86844   0.89411   0.19693   0.00000  Uiso   1.00
H354   H     0.87052   0.85804   0.14175   0.00000  Uiso   1.00
H355   H     0.64303   0.69456   0.24874   0.00000  Uiso   1.00
H356   H     0.62483   0.61464   0.26106   0.00000  Uiso   1.00
H357   H     0.58160   0.61824   0.21363   0.00000  Uiso   1.00
H358   H     0.52949   0.68251   0.21064   0.00000  Uiso   1.00
H359   H     0.57499   0.64718   0.27396   0.00000  Uiso   1.00
H360   H     0.70687   0.53459   0.10130   0.00000  Uiso   1.00
H361   H     0.74957   0.96679   0.24672   0.00000  Uiso   1.00
H362   H     0.79313   0.53458   0.23204   0.00000  Uiso   1.00
H363   H     0.75043   0.96679   0.08662   0.00000  Uiso   1.00
H364   H     0.71045   0.61995   0.05834   0.00000  Uiso   1.00
N365   N     0.75000   0.62624   0.16667   0.00000  Uiso   1.00
N366   N     0.61951   0.67964   0.22495   0.00000  Uiso   1.00
N367   N     0.75000   0.87377   0.16667   0.00000  Uiso   1.00
N368   N     0.70072   0.62737   0.09427   0.00000  Uiso   1.00
N369   N     0.75134   0.87605   0.25786   0.00000  Uiso   1.00
N370   N     0.79927   0.62737   0.23907   0.00000  Uiso   1.00
N371   N     0.74867   0.87605   0.07547   0.00000  Uiso   1.00
N372   N     0.61140   0.82461   0.12349   0.00000  Uiso   1.00
N373   N     0.88049   0.67961   0.10842   0.00000  Uiso   1.00
N374   N     0.88861   0.82462   0.20980   0.00000  Uiso   1.00
O375   O     0.68453   0.78974   0.16667   0.00000  Uiso   1.00
O376   O     0.81547   0.71026   0.16666   0.00000  Uiso   1.00
O377   O     0.81547   0.78974   0.16666   0.00000  Uiso   1.00
O378   O     0.68453   0.71026   0.16667   0.00000  Uiso   1.00
O379   O     0.75000   0.78973   0.09511   0.00000  Uiso   1.00
O380   O     0.75000   0.71027   0.23822   0.00000  Uiso   1.00
O381   O     0.75000   0.78973   0.23822   0.00000  Uiso   1.00
O382   O     0.75000   0.71027   0.09511   0.00000  Uiso   1.00
Zn383  Zn    0.75000   0.80307   0.16667   0.00000  Uiso   1.00
Zn384  Zn    0.75000   0.69693   0.16667   0.00000  Uiso   1.00
C385   C     0.16390   0.25002   0.50119   0.00000  Uiso   1.00
C386   C     0.24999   0.44853   0.45549   0.00000  Uiso   1.00
C387   C     0.24992   0.24999   0.40626   0.00000  Uiso   1.00
C388   C     0.25008   0.24999   0.59374   0.00000  Uiso   1.00
C389   C     0.25000   0.02711   0.50000   0.00000  Uiso   1.00
C390   C     0.25000   0.47418   0.50000   0.00000  Uiso   1.00
C391   C     0.24998   0.24997   0.35514   0.00000  Uiso   1.00
C392   C     0.25002   0.24997   0.64486   0.00000  Uiso   1.00
C393   C     0.04496   0.28176   0.47684   0.00000  Uiso   1.00
C394   C     0.45232   0.20986   0.47473   0.00000  Uiso   1.00
C395   C     0.45504   0.28178   0.52310   0.00000  Uiso   1.00
C396   C     0.33610   0.25002   0.49881   0.00000  Uiso   1.00
C397   C     0.04768   0.20987   0.52525   0.00000  Uiso   1.00
C398   C     0.09078   0.28530   0.47933   0.00000  Uiso   1.00
C399   C     0.40590   0.21232   0.47146   0.00000  Uiso   1.00
C400   C     0.40923   0.28531   0.52063   0.00000  Uiso   1.00
C401   C     0.09410   0.21233   0.52854   0.00000  Uiso   1.00
C402   C     0.11569   0.24969   0.50371   0.00000  Uiso   1.00
C403   C     0.38431   0.24969   0.49628   0.00000  Uiso   1.00
C404   C     0.02385   0.24444   0.49965   0.00000  Uiso   1.00
C405   C     0.47615   0.24444   0.50030   0.00000  Uiso   1.00
C406   C     0.15297   0.12396   0.43246   0.00000  Uiso   1.00
C407   C     0.22575   0.10224   0.46437   0.00000  Uiso   1.00
C408   C     0.29559   0.37060   0.61280   0.00000  Uiso   1.00
C409   C     0.34702   0.12396   0.56756   0.00000  Uiso   1.00
C410   C     0.20442   0.37060   0.38719   0.00000  Uiso   1.00
C411   C     0.11266   0.36588   0.48835   0.00000  Uiso   1.00
C412   C     0.40117   0.13773   0.42246   0.00000  Uiso   1.00
C413   C     0.38733   0.36589   0.51160   0.00000  Uiso   1.00
C414   C     0.09880   0.13783   0.57769   0.00000  Uiso   1.00
C415   C     0.25049   0.39898   0.54426   0.00000  Uiso   1.00
C416   C     0.27425   0.10224   0.53563   0.00000  Uiso   1.00
C417   C     0.24951   0.39898   0.45574   0.00000  Uiso   1.00
C418   C     0.22613   0.05274   0.46335   0.00000  Uiso   1.00
C419   C     0.25002   0.44854   0.54451   0.00000  Uiso   1.00
C420   C     0.27387   0.05274   0.53665   0.00000  Uiso   1.00
H421   H     0.02559   0.30879   0.45789   0.00000  Uiso   1.00
H422   H     0.13642   0.14935   0.40664   0.00000  Uiso   1.00
H423   H     0.14323   0.13230   0.47128   0.00000  Uiso   1.00
H424   H     0.14130   0.08811   0.42269   0.00000  Uiso   1.00
H425   H     0.22983   0.39082   0.61624   0.00000  Uiso   1.00
H426   H     0.31026   0.40530   0.62236   0.00000  Uiso   1.00
H427   H     0.31714   0.35203   0.58627   0.00000  Uiso   1.00
H428   H     0.29403   0.34897   0.64720   0.00000  Uiso   1.00
H429   H     0.28954   0.11995   0.60833   0.00000  Uiso   1.00
H430   H     0.36357   0.14934   0.59339   0.00000  Uiso   1.00
H431   H     0.35677   0.13230   0.52874   0.00000  Uiso   1.00
H432   H     0.47051   0.18250   0.45601   0.00000  Uiso   1.00
H433   H     0.35869   0.08810   0.57732   0.00000  Uiso   1.00
H434   H     0.27019   0.39081   0.38377   0.00000  Uiso   1.00
H435   H     0.18976   0.40530   0.37763   0.00000  Uiso   1.00
H436   H     0.18287   0.35204   0.41371   0.00000  Uiso   1.00
H437   H     0.20599   0.34897   0.35279   0.00000  Uiso   1.00
H438   H     0.09866   0.33201   0.42150   0.00000  Uiso   1.00
H439   H     0.07835   0.37865   0.49500   0.00000  Uiso   1.00
H440   H     0.13156   0.39410   0.46968   0.00000  Uiso   1.00
H441   H     0.12947   0.35804   0.52488   0.00000  Uiso   1.00
H442   H     0.35698   0.19450   0.41792   0.00000  Uiso   1.00
H443   H     0.47441   0.30881   0.54204   0.00000  Uiso   1.00
H444   H     0.37513   0.11453   0.40582   0.00000  Uiso   1.00
H445   H     0.41836   0.11820   0.45324   0.00000  Uiso   1.00
H446   H     0.42498   0.14699   0.39282   0.00000  Uiso   1.00
H447   H     0.40136   0.33203   0.57845   0.00000  Uiso   1.00
H448   H     0.42164   0.37866   0.50493   0.00000  Uiso   1.00
H449   H     0.36844   0.39411   0.53027   0.00000  Uiso   1.00
H450   H     0.37052   0.35804   0.47508   0.00000  Uiso   1.00
H451   H     0.14303   0.19456   0.58207   0.00000  Uiso   1.00
H452   H     0.12483   0.11464   0.59439   0.00000  Uiso   1.00
H453   H     0.08160   0.11824   0.54696   0.00000  Uiso   1.00
H454   H     0.02949   0.18251   0.54397   0.00000  Uiso   1.00
H455   H     0.07499   0.14718   0.60730   0.00000  Uiso   1.00
H456   H     0.20687   0.03459   0.43463   0.00000  Uiso   1.00
H457   H     0.24957   0.46679   0.58005   0.00000  Uiso   1.00
H458   H     0.29313   0.03458   0.56537   0.00000  Uiso   1.00
H459   H     0.25043   0.46679   0.41995   0.00000  Uiso   1.00
H460   H     0.21045   0.11995   0.39167   0.00000  Uiso   1.00
N461   N     0.25000   0.12624   0.50000   0.00000  Uiso   1.00
N462   N     0.11951   0.17964   0.55828   0.00000  Uiso   1.00
N463   N     0.25000   0.37377   0.50000   0.00000  Uiso   1.00
N464   N     0.20072   0.12737   0.42761   0.00000  Uiso   1.00
N465   N     0.25134   0.37605   0.59119   0.00000  Uiso   1.00
N466   N     0.29927   0.12737   0.57240   0.00000  Uiso   1.00
N467   N     0.24867   0.37605   0.40881   0.00000  Uiso   1.00
N468   N     0.11140   0.32461   0.45682   0.00000  Uiso   1.00
N469   N     0.38049   0.17961   0.44175   0.00000  Uiso   1.00
N470   N     0.38861   0.32462   0.54314   0.00000  Uiso   1.00
O471   O     0.18453   0.28974   0.50000   0.00000  Uiso   1.00
O472   O     0.31547   0.21026   0.50000   0.00000  Uiso   1.00
O473   O     0.31547   0.28974   0.50000   0.00000  Uiso   1.00
O474   O     0.18453   0.21026   0.50000   0.00000  Uiso   1.00
O475   O     0.25000   0.28973   0.42845   0.00000  Uiso   1.00
O476   O     0.25000   0.21027   0.57155   0.00000  Uiso   1.00
O477   O     0.25000   0.28973   0.57155   0.00000  Uiso   1.00
O478   O     0.25000   0.21027   0.42845   0.00000  Uiso   1.00
Zn479  Zn    0.25000   0.30307   0.50000   0.00000  Uiso   1.00
Zn480  Zn    0.25000   0.19693   0.50000   0.00000  Uiso   1.00
C481   C     0.66390   0.25002   0.50119   0.00000  Uiso   1.00
C482   C     0.74999   0.44853   0.45549   0.00000  Uiso   1.00
C483   C     0.74992   0.24999   0.40626   0.00000  Uiso   1.00
C484   C     0.75008   0.24999   0.59374   0.00000  Uiso   1.00
C485   C     0.75000   0.02711   0.50000   0.00000  Uiso   1.00
C486   C     0.75000   0.47418   0.50000   0.00000  Uiso   1.00
C487   C     0.74998   0.24997   0.35514   0.00000  Uiso   1.00
C488   C     0.75002   0.24997   0.64486   0.00000  Uiso   1.00
C489   C     0.54496   0.28176   0.47684   0.00000  Uiso   1.00
C490   C     0.95232   0.20986   0.47473   0.00000  Uiso   1.00
C491   C     0.95504   0.28178   0.52310   0.00000  Uiso   1.00
C492   C     0.83610   0.25002   0.49881   0.00000  Uiso   1.00
C493   C     0.54768   0.20987   0.52525   0.00000  Uiso   1.00
C494   C     0.59078   0.28530   0.47933   0.00000  Uiso   1.00
C495   C     0.90590   0.21232   0.47146   0.00000  Uiso   1.00
C496   C     0.90923   0.28531   0.52063   0.00000  Uiso   1.00
C497   C     0.59410   0.21233   0.52854   0.00000  Uiso   1.00
C498   C     0.61569   0.24969   0.50371   0.00000  Uiso   1.00
C499   C     0.88431   0.24969   0.49628   0.00000  Uiso   1.00
C500   C     0.52385   0.24444   0.49965   0.00000  Uiso   1.00
C501   C     0.97615   0.24444   0.50030   0.00000  Uiso   1.00
C502   C     0.65297   0.12396   0.43246   0.00000  Uiso   1.00
C503   C     0.72575   0.10224   0.46437   0.00000  Uiso   1.00
C504   C     0.79559   0.37060   0.61280   0.00000  Uiso   1.00
C505   C     0.84702   0.12396   0.56756   0.00000  Uiso   1.00
C506   C     0.70442   0.37060   0.38719   0.00000  Uiso   1.00
C507   C     0.61266   0.36588   0.48835   0.00000  Uiso   1.00
C508   C     0.90117   0.13773   0.42246   0.00000  Uiso   1.00
C509   C     0.88733   0.36589   0.51160   0.00000  Uiso   1.00
C510   C     0.59880   0.13783   0.57769   0.00000  Uiso   1.00
C511   C     0.75049   0.39898   0.54426   0.00000  Uiso   1.00
C512   C     0.77425   0.10224   0.53563   0.00000  Uiso   1.00
C513   C     0.74951   0.39898   0.45574   0.00000  Uiso   1.00
C514   C     0.72613   0.05274   0.46335   0.00000  Uiso   1.00
C515   C     0.75002   0.44854   0.54451   0.00000  Uiso   1.00
C516   C     0.77387   0.05274   0.53665   0.00000  Uiso   1.00
H517   H     0.52559   0.30879   0.45789   0.00000  Uiso   1.00
H518   H     0.63642   0.14935   0.40664   0.00000  Uiso   1.00
H519   H     0.64323   0.13230   0.47128   0.00000  Uiso   1.00
H520   H     0.64130   0.08811   0.42269   0.00000  Uiso   1.00
H521   H     0.72983   0.39082   0.61624   0.00000  Uiso   1.00
H522   H     0.81026   0.40530   0.62236   0.00000  Uiso   1.00
H523   H     0.81714   0.35203   0.58627   0.00000  Uiso   1.00
H524   H     0.79403   0.34897   0.64720   0.00000  Uiso   1.00
H525   H     0.78954   0.11995   0.60833   0.00000  Uiso   1.00
H526   H     0.86357   0.14934   0.59339   0.00000  Uiso   1.00
H527   H     0.85677   0.13230   0.52874   0.00000  Uiso   1.00
H528   H     0.97051   0.18250   0.45601   0.00000  Uiso   1.00
H529   H     0.85869   0.08810   0.57732   0.00000  Uiso   1.00
H530   H     0.77019   0.39081   0.38377   0.00000  Uiso   1.00
H531   H     0.68976   0.40530   0.37763   0.00000  Uiso   1.00
H532   H     0.68287   0.35204   0.41371   0.00000  Uiso   1.00
H533   H     0.70599   0.34897   0.35279   0.00000  Uiso   1.00
H534   H     0.59866   0.33201   0.42150   0.00000  Uiso   1.00
H535   H     0.57835   0.37865   0.49500   0.00000  Uiso   1.00
H536   H     0.63156   0.39410   0.46968   0.00000  Uiso   1.00
H537   H     0.62947   0.35804   0.52488   0.00000  Uiso   1.00
H538   H     0.85698   0.19450   0.41792   0.00000  Uiso   1.00
H539   H     0.97441   0.30881   0.54204   0.00000  Uiso   1.00
H540   H     0.87513   0.11453   0.40582   0.00000  Uiso   1.00
H541   H     0.91836   0.11820   0.45324   0.00000  Uiso   1.00
H542   H     0.92498   0.14699   0.39282   0.00000  Uiso   1.00
H543   H     0.90136   0.33203   0.57845   0.00000  Uiso   1.00
H544   H     0.92164   0.37866   0.50493   0.00000  Uiso   1.00
H545   H     0.86844   0.39411   0.53027   0.00000  Uiso   1.00
H546   H     0.87052   0.35804   0.47508   0.00000  Uiso   1.00
H547   H     0.64303   0.19456   0.58207   0.00000  Uiso   1.00
H548   H     0.62483   0.11464   0.59439   0.00000  Uiso   1.00
H549   H     0.58160   0.11824   0.54696   0.00000  Uiso   1.00
H550   H     0.52949   0.18251   0.54397   0.00000  Uiso   1.00
H551   H     0.57499   0.14718   0.60730   0.00000  Uiso   1.00
H552   H     0.70687   0.03459   0.43463   0.00000  Uiso   1.00
H553   H     0.74957   0.46679   0.58005   0.00000  Uiso   1.00
H554   H     0.79313   0.03458   0.56537   0.00000  Uiso   1.00
H555   H     0.75043   0.46679   0.41995   0.00000  Uiso   1.00
H556   H     0.71045   0.11995   0.39167   0.00000  Uiso   1.00
N557   N     0.75000   0.12624   0.50000   0.00000  Uiso   1.00
N558   N     0.61951   0.17964   0.55828   0.00000  Uiso   1.00
N559   N     0.75000   0.37377   0.50000   0.00000  Uiso   1.00
N560   N     0.70072   0.12737   0.42761   0.00000  Uiso   1.00
N561   N     0.75134   0.37605   0.59119   0.00000  Uiso   1.00
N562   N     0.79927   0.12737   0.57240   0.00000  Uiso   1.00
N563   N     0.74867   0.37605   0.40881   0.00000  Uiso   1.00
N564   N     0.61140   0.32461   0.45682   0.00000  Uiso   1.00
N565   N     0.88049   0.17961   0.44175   0.00000  Uiso   1.00
N566   N     0.88861   0.32462   0.54314   0.00000  Uiso   1.00
O567   O     0.68453   0.28974   0.50000   0.00000  Uiso   1.00
O568   O     0.81547   0.21026   0.50000   0.00000  Uiso   1.00
O569   O     0.81547   0.28974   0.50000   0.00000  Uiso   1.00
O570   O     0.68453   0.21026   0.50000   0.00000  Uiso   1.00
O571   O     0.75000   0.28973   0.42845   0.00000  Uiso   1.00
O572   O     0.75000   0.21027   0.57155   0.00000  Uiso   1.00
O573   O     0.75000   0.28973   0.57155   0.00000  Uiso   1.00
O574   O     0.75000   0.21027   0.42845   0.00000  Uiso   1.00
Zn575  Zn    0.75000   0.30307   0.50000   0.00000  Uiso   1.00
Zn576  Zn    0.75000   0.19693   0.50000   0.00000  Uiso   1.00
C577   C     0.16390   0.75002   0.50119   0.00000  Uiso   1.00
C578   C     0.24999   0.94853   0.45549   0.00000  Uiso   1.00
C579   C     0.24992   0.74999   0.40626   0.00000  Uiso   1.00
C580   C     0.25008   0.74999   0.59374   0.00000  Uiso   1.00
C581   C     0.25000   0.52711   0.50000   0.00000  Uiso   1.00
C582   C     0.25000   0.97418   0.50000   0.00000  Uiso   1.00
C583   C     0.24998   0.74997   0.35514   0.00000  Uiso   1.00
C584   C     0.25002   0.74997   0.64486   0.00000  Uiso   1.00
C585   C     0.04496   0.78176   0.47684   0.00000  Uiso   1.00
C586   C     0.45232   0.70986   0.47473   0.00000  Uiso   1.00
C587   C     0.45504   0.78178   0.52310   0.00000  Uiso   1.00
C588   C     0.33610   0.75002   0.49881   0.00000  Uiso   1.00
C589   C     0.04768   0.70987   0.52525   0.00000  Uiso   1.00
C590   C     0.09078   0.78530   0.47933   0.00000  Uiso   1.00
C591   C     0.40590   0.71232   0.47146   0.00000  Uiso   1.00
C592   C     0.40923   0.78531   0.52063   0.00000  Uiso   1.00
C593   C     0.09410   0.71233   0.52854   0.00000  Uiso   1.00
C594   C     0.11569   0.74969   0.50371   0.00000  Uiso   1.00
C595   C     0.38431   0.74969   0.49628   0.00000  Uiso   1.00
C596   C     0.02385   0.74444   0.49965   0.00000  Uiso   1.00
C597   C     0.47615   0.74444   0.50030   0.00000  Uiso   1.00
C598   C     0.15297   0.62396   0.43246   0.00000  Uiso   1.00
C599   C     0.22575   0.60224   0.46437   0.00000  Uiso   1.00
C600   C     0.29559   0.87060   0.61280   0.00000  Uiso   1.00
C601   C     0.34702   0.62396   0.56756   0.00000  Uiso   1.00
C602   C     0.20442   0.87060   0.38719   0.00000  Uiso   1.00
C603   C     0.11266   0.86588   0.48835   0.00000  Uiso   1.00
C604   C     0.40117   0.63773   0.42246   0.00000  Uiso   1.00
C605   C     0.38733   0.86589   0.51160   0.00000  Uiso   1.00
C606   C     0.09880   0.63783   0.57769   0.00000  Uiso   1.00
C607   C     0.25049   0.89898   0.54426   0.00000  Uiso   1.00
C608   C     0.27425   0.60224   0.53563   0.00000  Uiso   1.00
C609   C     0.24951   0.89898   0.45574   0.00000  Uiso   1.00
C610   C     0.22613   0.55274   0.46335   0.00000  Uiso   1.00
C611   C     0.25002   0.94854   0.54451   0.00000  Uiso   1.00
C612   C     0.27387   0.55274   0.53665   0.00000  Uiso   1.00
H613   H     0.02559   0.80879   0.45789   0.00000  Uiso   1.00
H614   H     0.13642   0.64935   0.40664   0.00000  Uiso   1.00
H615   H     0.14323   0.63230   0.47128   0.00000  Uiso   1.00
H616   H     0.14130   0.58811   0.42269   0.00000  Uiso   1.00
H617   H     0.22983   0.89082   0.61624   0.00000  Uiso   1.00
H618   H     0.31026   0.90530   0.62236   0.00000  Uiso   1.00
H619   H     0.31714   0.85203   0.58627   0.00000  Uiso   1.00
H620   H     0.29403   0.84897   0.64720   0.00000  Uiso   1.00
H621   H     0.28954   0.61995   0.60833   0.00000  Uiso   1.00
H622   H     0.36357   0.64934   0.59339   0.00000  Uiso   1.00
H623   H     0.35677   0.63230   0.52874   0.00000  Uiso   1.00
H624   H     0.47051   0.68250   0.45601   0.00000  Uiso   1.00
H625   H     0.35869   0.58810   0.57732   0.00000  Uiso   1.00
H626   H     0.27019   0.89081   0.38377   0.00000  Uiso   1.00
H627   H     0.18976   0.90530   0.37763   0.00000  Uiso   1.00
H628   H     0.18287   0.85204   0.41371   0.00000  Uiso   1.00
H629   H     0.20599   0.84897   0.35279   0.00000  Uiso   1.00
H630   H     0.09866   0.83201   0.42150   0.00000  Uiso   1.00
H631   H     0.07835   0.87865   0.49500   0.00000  Uiso   1.00
H632   H     0.13156   0.89410   0.46968   0.00000  Uiso   1.00
H633   H     0.12947   0.85804   0.52488   0.00000  Uiso   1.00
H634   H     0.35698   0.69450   0.41792   0.00000  Uiso   1.00
H635   H     0.47441   0.80881   0.54204   0.00000  Uiso   1.00
H636   H     0.37513   0.61453   0.40582   0.00000  Uiso   1.00
H637   H     0.41836   0.61820   0.45324   0.00000  Uiso   1.00
H638   H     0.42498   0.64699   0.39282   0.00000  Uiso   1.00
H639   H     0.40136   0.83203   0.57845   0.00000  Uiso   1.00
H640   H     0.42164   0.87866   0.50493   0.00000  Uiso   1.00
H641   H     0.36844   0.89411   0.53027   0.00000  Uiso   1.00
H642   H     0.37052   0.85804   0.47508   0.00000  Uiso   1.00
H643   H     0.14303   0.69456   0.58207   0.00000  Uiso   1.00
H644   H     0.12483   0.61464   0.59439   0.00000  Uiso   1.00
H645   H     0.08160   0.61824   0.54696   0.00000  Uiso   1.00
H646   H     0.02949   0.68251   0.54397   0.00000  Uiso   1.00
H647   H     0.07499   0.64718   0.60730   0.00000  Uiso   1.00
H648   H     0.20687   0.53459   0.43463   0.00000  Uiso   1.00
H649   H     0.24957   0.96679   0.58005   0.00000  Uiso   1.00
H650   H     0.29313   0.53458   0.56537   0.00000  Uiso   1.00
H651   H     0.25043   0.96679   0.41995   0.00000  Uiso   1.00
H652   H     0.21045   0.61995   0.39167   0.00000  Uiso   1.00
N653   N     0.25000   0.62624   0.50000   0.00000  Uiso   1.00
N654   N     0.11951   0.67964   0.55828   0.00000  Uiso   1.00
N655   N     0.25000   0.87377   0.50000   0.00000  Uiso   1.00
N656   N     0.20072   0.62737   0.42761   0.00000  Uiso   1.00
N657   N     0.25134   0.87605   0.59119   0.00000  Uiso   1.00
N658   N     0.29927   0.62737   0.57240   0.00000  Uiso   1.00
N659   N     0.24867   0.87605   0.40881   0.00000  Uiso   1.00
N660   N     0.11140   0.82461   0.45682   0.00000  Uiso   1.00
N661   N     0.38049   0.67961   0.44175   0.00000  Uiso   1.00
N662   N     0.38861   0.82462   0.54314   0.00000  Uiso   1.00
O663   O     0.18453   0.78974   0.50000   0.00000  Uiso   1.00
O664   O     0.31547   0.71026   0.50000   0.00000  Uiso   1.00
O665   O     0.31547   0.78974   0.50000   0.00000  Uiso   1.00
O666   O     0.18453   0.71026   0.50000   0.00000  Uiso   1.00
O667   O     0.25000   0.78973   0.42845   0.00000  Uiso   1.00
O668   O     0.25000   0.71027   0.57155   0.00000  Uiso   1.00
O669   O     0.25000   0.78973   0.57155   0.00000  Uiso   1.00
O670   O     0.25000   0.71027   0.42845   0.00000  Uiso   1.00
Zn671  Zn    0.25000   0.80307   0.50000   0.00000  Uiso   1.00
Zn672  Zn    0.25000   0.69693   0.50000   0.00000  Uiso   1.00
C673   C     0.66390   0.75002   0.50119   0.00000  Uiso   1.00
C674   C     0.74999   0.94853   0.45549   0.00000  Uiso   1.00
C675   C     0.74992   0.74999   0.40626   0.00000  Uiso   1.00
C676   C     0.75008   0.74999   0.59374   0.00000  Uiso   1.00
C677   C     0.75000   0.52711   0.50000   0.00000  Uiso   1.00
C678   C     0.75000   0.97418   0.50000   0.00000  Uiso   1.00
C679   C     0.74998   0.74997   0.35514   0.00000  Uiso   1.00
C680   C     0.75002   0.74997   0.64486   0.00000  Uiso   1.00
C681   C     0.54496   0.78176   0.47684   0.00000  Uiso   1.00
C682   C     0.95232   0.70986   0.47473   0.00000  Uiso   1.00
C683   C     0.95504   0.78178   0.52310   0.00000  Uiso   1.00
C684   C     0.83610   0.75002   0.49881   0.00000  Uiso   1.00
C685   C     0.54768   0.70987   0.52525   0.00000  Uiso   1.00
C686   C     0.59078   0.78530   0.47933   0.00000  Uiso   1.00
C687   C     0.90590   0.71232   0.47146   0.00000  Uiso   1.00
C688   C     0.90923   0.78531   0.52063   0.00000  Uiso   1.00
C689   C     0.59410   0.71233   0.52854   0.00000  Uiso   1.00
C690   C     0.61569   0.74969   0.50371   0.00000  Uiso   1.00
C691   C     0.88431   0.74969   0.49628   0.00000  Uiso   1.00
C692   C     0.52385   0.74444   0.49965   0.00000  Uiso   1.00
C693   C     0.97615   0.74444   0.50030   0.00000  Uiso   1.00
C694   C     0.65297   0.62396   0.43246   0.00000  Uiso   1.00
C695   C     0.72575   0.60224   0.46437   0.00000  Uiso   1.00
C696   C     0.79559   0.87060   0.61280   0.00000  Uiso   1.00
C697   C     0.84702   0.62396   0.56756   0.00000  Uiso   1.00
C698   C     0.70442   0.87060   0.38719   0.00000  Uiso   1.00
C699   C     0.61266   0.86588   0.48835   0.00000  Uiso   1.00
C700   C     0.90117   0.63773   0.42246   0.00000  Uiso   1.00
C701   C     0.88733   0.86589   0.51160   0.00000  Uiso   1.00
C702   C     0.59880   0.63783   0.57769   0.00000  Uiso   1.00
C703   C     0.75049   0.89898   0.54426   0.00000  Uiso   1.00
C704   C     0.77425   0.60224   0.53563   0.00000  Uiso   1.00
C705   C     0.74951   0.89898   0.45574   0.00000  Uiso   1.00
C706   C     0.72613   0.55274   0.46335   0.00000  Uiso   1.00
C707   C     0.75002   0.94854   0.54451   0.00000  Uiso   1.00
C708   C     0.77387   0.55274   0.53665   0.00000  Uiso   1.00
H709   H     0.52559   0.80879   0.45789   0.00000  Uiso   1.00
H710   H     0.63642   0.64935   0.40664   0.00000  Uiso   1.00
H711   H     0.64323   0.63230   0.47128   0.00000  Uiso   1.00
H712   H     0.64130   0.58811   0.42269   0.00000  Uiso   1.00
H713   H     0.72983   0.89082   0.61624   0.00000  Uiso   1.00
H714   H     0.81026   0.90530   0.62236   0.00000  Uiso   1.00
H715   H     0.81714   0.85203   0.58627   0.00000  Uiso   1.00
H716   H     0.79403   0.84897   0.64720   0.00000  Uiso   1.00
H717   H     0.78954   0.61995   0.60833   0.00000  Uiso   1.00
H718   H     0.86357   0.64934   0.59339   0.00000  Uiso   1.00
H719   H     0.85677   0.63230   0.52874   0.00000  Uiso   1.00
H720   H     0.97051   0.68250   0.45601   0.00000  Uiso   1.00
H721   H     0.85869   0.58810   0.57732   0.00000  Uiso   1.00
H722   H     0.77019   0.89081   0.38377   0.00000  Uiso   1.00
H723   H     0.68976   0.90530   0.37763   0.00000  Uiso   1.00
H724   H     0.68287   0.85204   0.41371   0.00000  Uiso   1.00
H725   H     0.70599   0.84897   0.35279   0.00000  Uiso   1.00
H726   H     0.59866   0.83201   0.42150   0.00000  Uiso   1.00
H727   H     0.57835   0.87865   0.49500   0.00000  Uiso   1.00
H728   H     0.63156   0.89410   0.46968   0.00000  Uiso   1.00
H729   H     0.62947   0.85804   0.52488   0.00000  Uiso   1.00
H730   H     0.85698   0.69450   0.41792   0.00000  Uiso   1.00
H731   H     0.97441   0.80881   0.54204   0.00000  Uiso   1.00
H732   H     0.87513   0.61453   0.40582   0.00000  Uiso   1.00
H733   H     0.91836   0.61820   0.45324   0.00000  Uiso   1.00
H734   H     0.92498   0.64699   0.39282   0.00000  Uiso   1.00
H735   H     0.90136   0.83203   0.57845   0.00000  Uiso   1.00
H736   H     0.92164   0.87866   0.50493   0.00000  Uiso   1.00
H737   H     0.86844   0.89411   0.53027   0.00000  Uiso   1.00
H738   H     0.87052   0.85804   0.47508   0.00000  Uiso   1.00
H739   H     0.64303   0.69456   0.58207   0.00000  Uiso   1.00
H740   H     0.62483   0.61464   0.59439   0.00000  Uiso   1.00
H741   H     0.58160   0.61824   0.54696   0.00000  Uiso   1.00
H742   H     0.52949   0.68251   0.54397   0.00000  Uiso   1.00
H743   H     0.57499   0.64718   0.60730   0.00000  Uiso   1.00
H744   H     0.70687   0.53459   0.43463   0.00000  Uiso   1.00
H745   H     0.74957   0.96679   0.58005   0.00000  Uiso   1.00
H746   H     0.79313   0.53458   0.56537   0.00000  Uiso   1.00
H747   H     0.75043   0.96679   0.41995   0.00000  Uiso   1.00
H748   H     0.71045   0.61995   0.39167   0.00000  Uiso   1.00
N749   N     0.75000   0.62624   0.50000   0.00000  Uiso   1.00
N750   N     0.61951   0.67964   0.55828   0.00000  Uiso   1.00
N751   N     0.75000   0.87377   0.50000   0.00000  Uiso   1.00
N752   N     0.70072   0.62737   0.42761   0.00000  Uiso   1.00
N753   N     0.75134   0.87605   0.59119   0.00000  Uiso   1.00
N754   N     0.79927   0.62737   0.57240   0.00000  Uiso   1.00
N755   N     0.74867   0.87605   0.40881   0.00000  Uiso   1.00
N756   N     0.61140   0.82461   0.45682   0.00000  Uiso   1.00
N757   N     0.88049   0.67961   0.44175   0.00000  Uiso   1.00
N758   N     0.88861   0.82462   0.54314   0.00000  Uiso   1.00
O759   O     0.68453   0.78974   0.50000   0.00000  Uiso   1.00
O760   O     0.81547   0.71026   0.50000   0.00000  Uiso   1.00
O761   O     0.81547   0.78974   0.50000   0.00000  Uiso   1.00
O762   O     0.68453   0.71026   0.50000   0.00000  Uiso   1.00
O763   O     0.75000   0.78973   0.42845   0.00000  Uiso   1.00
O764   O     0.75000   0.71027   0.57155   0.00000  Uiso   1.00
O765   O     0.75000   0.78973   0.57155   0.00000  Uiso   1.00
O766   O     0.75000   0.71027   0.42845   0.00000  Uiso   1.00
Zn767  Zn    0.75000   0.80307   0.50000   0.00000  Uiso   1.00
Zn768  Zn    0.75000   0.69693   0.50000   0.00000  Uiso   1.00
C769   C     0.16390   0.25002   0.83452   0.00000  Uiso   1.00
C770   C     0.24999   0.44853   0.78883   0.00000  Uiso   1.00
C771   C     0.24992   0.24999   0.73960   0.00000  Uiso   1.00
C772   C     0.25008   0.24999   0.92707   0.00000  Uiso   1.00
C773   C     0.25000   0.02711   0.83333   0.00000  Uiso   1.00
C774   C     0.25000   0.47418   0.83333   0.00000  Uiso   1.00
C775   C     0.24998   0.24997   0.68848   0.00000  Uiso   1.00
C776   C     0.25002   0.24997   0.97819   0.00000  Uiso   1.00
C777   C     0.04496   0.28176   0.81017   0.00000  Uiso   1.00
C778   C     0.45232   0.20986   0.80806   0.00000  Uiso   1.00
C779   C     0.45504   0.28178   0.85644   0.00000  Uiso   1.00
C780   C     0.33610   0.25002   0.83214   0.00000  Uiso   1.00
C781   C     0.04768   0.20987   0.85858   0.00000  Uiso   1.00
C782   C     0.09078   0.28530   0.81266   0.00000  Uiso   1.00
C783   C     0.40590   0.21232   0.80479   0.00000  Uiso   1.00
C784   C     0.40923   0.28531   0.85397   0.00000  Uiso   1.00
C785   C     0.09410   0.21233   0.86187   0.00000  Uiso   1.00
C786   C     0.11569   0.24969   0.83704   0.00000  Uiso   1.00
C787   C     0.38431   0.24969   0.82961   0.00000  Uiso   1.00
C788   C     0.02385   0.24444   0.83298   0.00000  Uiso   1.00
C789   C     0.47615   0.24444   0.83363   0.00000  Uiso   1.00
C790   C     0.15297   0.12396   0.76579   0.00000  Uiso   1.00
C791   C     0.22575   0.10224   0.79770   0.00000  Uiso   1.00
C792   C     0.29559   0.37060   0.94613   0.00000  Uiso   1.00
C793   C     0.34702   0.12396   0.90089   0.00000  Uiso   1.00
C794   C     0.20442   0.37060   0.72052   0.00000  Uiso   1.00
C795   C     0.11266   0.36588   0.82168   0.00000  Uiso   1.00
C796   C     0.40117   0.13773   0.75579   0.00000  Uiso   1.00
C797   C     0.38733   0.36589   0.84493   0.00000  Uiso   1.00
C798   C     0.09880   0.13783   0.91102   0.00000  Uiso   1.00
C799   C     0.25049   0.39898   0.87760   0.00000  Uiso   1.00
C800   C     0.27425   0.10224   0.86897   0.00000  Uiso   1.00
C801   C     0.24951   0.39898   0.78907   0.00000  Uiso   1.00
C802   C     0.22613   0.05274   0.79669   0.00000  Uiso   1.00
C803   C     0.25002   0.44854   0.87784   0.00000  Uiso   1.00
C804   C     0.27387   0.05274   0.86998   0.00000  Uiso   1.00
H805   H     0.02559   0.30879   0.79122   0.00000  Uiso   1.00
H806   H     0.13642   0.14935   0.73997   0.00000  Uiso   1.00
H807   H     0.14323   0.13230   0.80462   0.00000  Uiso   1.00
H808   H     0.14130   0.08811   0.75603   0.00000  Uiso   1.00
H809   H     0.22983   0.39082   0.94957   0.00000  Uiso   1.00
H810   H     0.31026   0.40530   0.95569   0.00000  Uiso   1.00
H811   H     0.31714   0.35203   0.91960   0.00000  Uiso   1.00
H812   H     0.29403   0.34897   0.98053   0.00000  Uiso   1.00
H813   H     0.28954   0.11995   0.94167   0.00000  Uiso   1.00
H814   H     0.36357   0.14934   0.92672   0.00000  Uiso   1.00
H815   H     0.35677   0.13230   0.86207   0.00000  Uiso   1.00
H816   H     0.47051   0.18250   0.78934   0.00000  Uiso   1.00
H817   H     0.35869   0.08810   0.91065   0.00000  Uiso   1.00
H818   H     0.27019   0.39081   0.71710   0.00000  Uiso   1.00
H819   H     0.18976   0.40530   0.71096   0.00000  Uiso   1.00
H820   H     0.18287   0.35204   0.74705   0.00000  Uiso   1.00
H821   H     0.20599   0.34897   0.68612   0.00000  Uiso   1.00
H822   H     0.09866   0.33201   0.75484   0.00000  Uiso   1.00
H823   H     0.07835   0.37865   0.82834   0.00000  Uiso   1.00
H824   H     0.13156   0.39410   0.80302   0.00000  Uiso   1.00
H825   H     0.12947   0.35804   0.85821   0.00000  Uiso   1.00
H826   H     0.35698   0.19450   0.75126   0.00000  Uiso   1.00
H827   H     0.47441   0.30881   0.87537   0.00000  Uiso   1.00
H828   H     0.37513   0.11453   0.73915   0.00000  Uiso   1.00
H829   H     0.41836   0.11820   0.78657   0.00000  Uiso   1.00
H830   H     0.42498   0.14699   0.72615   0.00000  Uiso   1.00
H831   H     0.40136   0.33203   0.91178   0.00000  Uiso   1.00
H832   H     0.42164   0.37866   0.83826   0.00000  Uiso   1.00
H833   H     0.36844   0.39411   0.86360   0.00000  Uiso   1.00
H834   H     0.37052   0.35804   0.80841   0.00000  Uiso   1.00
H835   H     0.14303   0.19456   0.91540   0.00000  Uiso   1.00
H836   H     0.12483   0.11464   0.92773   0.00000  Uiso   1.00
H837   H     0.08160   0.11824   0.88030   0.00000  Uiso   1.00
H838   H     0.02949   0.18251   0.87730   0.00000  Uiso   1.00
H839   H     0.07499   0.14718   0.94063   0.00000  Uiso   1.00
H840   H     0.20687   0.03459   0.76797   0.00000  Uiso   1.00
H841   H     0.24957   0.46679   0.91338   0.00000  Uiso   1.00
H842   H     0.29313   0.03458   0.89870   0.00000  Uiso   1.00
H843   H     0.25043   0.46679   0.75328   0.00000  Uiso   1.00
H844   H     0.21045   0.11995   0.72501   0.00000  Uiso   1.00
N845   N     0.25000   0.12624   0.83333   0.00000  Uiso   1.00
N846   N     0.11951   0.17964   0.89162   0.00000  Uiso   1.00
N847   N     0.25000   0.37377   0.83333   0.00000  Uiso   1.00
N848   N     0.20072   0.12737   0.76094   0.00000  Uiso   1.00
N849   N     0.25134   0.37605   0.92453   0.00000  Uiso   1.00
N850   N     0.29927   0.12737   0.90574   0.00000  Uiso   1.00
N851   N     0.24867   0.37605   0.74214   0.00000  Uiso   1.00
N852   N     0.11140   0.32461   0.79016   0.00000  Uiso   1.00
N853   N     0.38049   0.17961   0.77508   0.00000  Uiso   1.00
N854   N     0.38861   0.32462   0.87647   0.00000  Uiso   1.00
O855   O     0.18453   0.28974   0.83334   0.00000  Uiso   1.00
O856   O     0.31547   0.21026   0.83333   0.00000  Uiso   1.00
O857   O     0.31547   0.28974   0.83333   0.00000  Uiso   1.00
O858   O     0.18453   0.21026   0.83334   0.00000  Uiso   1.00
O859   O     0.25000   0.28973   0.76178   0.00000  Uiso   1.00
O860   O     0.25000   0.21027   0.90489   0.00000  Uiso   1.00
O861   O     0.25000   0.28973   0.90489   0.00000  Uiso   1.00
O862   O     0.25000   0.21027   0.76178   0.00000  Uiso   1.00
Zn863  Zn    0.25000   0.30307   0.83333   0.00000  Uiso   1.00
Zn864  Zn    0.25000   0.19693   0.83333   0.00000  Uiso   1.00
C865   C     0.66390   0.25002   0.83452   0.00000  Uiso   1.00
C866   C     0.74999   0.44853   0.78883   0.00000  Uiso   1.00
C867   C     0.74992   0.24999   0.73960   0.00000  Uiso   1.00
C868   C     0.75008   0.24999   0.92707   0.00000  Uiso   1.00
C869   C     0.75000   0.02711   0.83333   0.00000  Uiso   1.00
C870   C     0.75000   0.47418   0.83333   0.00000  Uiso   1.00
C871   C     0.74998   0.24997   0.68848   0.00000  Uiso   1.00
C872   C     0.75002   0.24997   0.97819   0.00000  Uiso   1.00
C873   C     0.54496   0.28176   0.81017   0.00000  Uiso   1.00
C874   C     0.95232   0.20986   0.80806   0.00000  Uiso   1.00
C875   C     0.95504   0.28178   0.85644   0.00000  Uiso   1.00
C876   C     0.83610   0.25002   0.83214   0.00000  Uiso   1.00
C877   C     0.54768   0.20987   0.85858   0.00000  Uiso   1.00
C878   C     0.59078   0.28530   0.81266   0.00000  Uiso   1.00
C879   C     0.90590   0.21232   0.80479   0.00000  Uiso   1.00
C880   C     0.90923   0.28531   0.85397   0.00000  Uiso   1.00
C881   C     0.59410   0.21233   0.86187   0.00000  Uiso   1.00
C882   C     0.61569   0.24969   0.83704   0.00000  Uiso   1.00
C883   C     0.88431   0.24969   0.82961   0.00000  Uiso   1.00
C884   C     0.52385   0.24444   0.83298   0.00000  Uiso   1.00
C885   C     0.97615   0.24444   0.83363   0.00000  Uiso   1.00
C886   C     0.65297   0.12396   0.76579   0.00000  Uiso   1.00
C887   C     0.72575   0.10224   0.79770   0.00000  Uiso   1.00
C888   C     0.79559   0.37060   0.94613   0.00000  Uiso   1.00
C889   C     0.84702   0.12396   0.90089   0.00000  Uiso   1.00
C890   C     0.70442   0.37060   0.72052   0.00000  Uiso   1.00
C891   C     0.61266   0.36588   0.82168   0.00000  Uiso   1.00
C892   C     0.90117   0.13773   0.75579   0.00000  Uiso   1.00
C893   C     0.88733   0.36589   0.84493   0.00000  Uiso   1.00
C894   C     0.59880   0.13783   0.91102   0.00000  Uiso   1.00
C895   C     0.75049   0.39898   0.87760   0.00000  Uiso   1.00
C896   C     0.77425   0.10224   0.86897   0.00000  Uiso   1.00
C897   C     0.74951   0.39898   0.78907   0.00000  Uiso   1.00
C898   C     0.72613   0.05274   0.79669   0.00000  Uiso   1.00
C899   C     0.75002   0.44854   0.87784   0.00000  Uiso   1.00
C900   C     0.77387   0.05274   0.86998   0.00000  Uiso   1.00
H901   H     0.52559   0.30879   0.79122   0.00000  Uiso   1.00
H902   H     0.63642   0.14935   0.73997   0.00000  Uiso   1.00
H903   H     0.64323   0.13230   0.80462   0.00000  Uiso   1.00
H904   H     0.64130   0.08811   0.75603   0.00000  Uiso   1.00
H905   H     0.72983   0.39082   0.94957   0.00000  Uiso   1.00
H906   H     0.81026   0.40530   0.95569   0.00000  Uiso   1.00
H907   H     0.81714   0.35203   0.91960   0.00000  Uiso   1.00
H908   H     0.79403   0.34897   0.98053   0.00000  Uiso   1.00
H909   H     0.78954   0.11995   0.94167   0.00000  Uiso   1.00
H910   H     0.86357   0.14934   0.92672   0.00000  Uiso   1.00
H911   H     0.85677   0.13230   0.86207   0.00000  Uiso   1.00
H912   H     0.97051   0.18250   0.78934   0.00000  Uiso   1.00
H913   H     0.85869   0.08810   0.91065   0.00000  Uiso   1.00
H914   H     0.77019   0.39081   0.71710   0.00000  Uiso   1.00
H915   H     0.68976   0.40530   0.71096   0.00000  Uiso   1.00
H916   H     0.68287   0.35204   0.74705   0.00000  Uiso   1.00
H917   H     0.70599   0.34897   0.68612   0.00000  Uiso   1.00
H918   H     0.59866   0.33201   0.75484   0.00000  Uiso   1.00
H919   H     0.57835   0.37865   0.82834   0.00000  Uiso   1.00
H920   H     0.63156   0.39410   0.80302   0.00000  Uiso   1.00
H921   H     0.62947   0.35804   0.85821   0.00000  Uiso   1.00
H922   H     0.85698   0.19450   0.75126   0.00000  Uiso   1.00
H923   H     0.97441   0.30881   0.87537   0.00000  Uiso   1.00
H924   H     0.87513   0.11453   0.73915   0.00000  Uiso   1.00
H925   H     0.91836   0.11820   0.78657   0.00000  Uiso   1.00
H926   H     0.92498   0.14699   0.72615   0.00000  Uiso   1.00
H927   H     0.90136   0.33203   0.91178   0.00000  Uiso   1.00
H928   H     0.92164   0.37866   0.83826   0.00000  Uiso   1.00
H929   H     0.86844   0.39411   0.86360   0.00000  Uiso   1.00
H930   H     0.87052   0.35804   0.80841   0.00000  Uiso   1.00
H931   H     0.64303   0.19456   0.91540   0.00000  Uiso   1.00
H932   H     0.62483   0.11464   0.92773   0.00000  Uiso   1.00
H933   H     0.58160   0.11824   0.88030   0.00000  Uiso   1.00
H934   H     0.52949   0.18251   0.87730   0.00000  Uiso   1.00
H935   H     0.57499   0.14718   0.94063   0.00000  Uiso   1.00
H936   H     0.70687   0.03459   0.76797   0.00000  Uiso   1.00
H937   H     0.74957   0.46679   0.91338   0.00000  Uiso   1.00
H938   H     0.79313   0.03458   0.89870   0.00000  Uiso   1.00
H939   H     0.75043   0.46679   0.75328   0.00000  Uiso   1.00
H940   H     0.71045   0.11995   0.72501   0.00000  Uiso   1.00
N941   N     0.75000   0.12624   0.83333   0.00000  Uiso   1.00
N942   N     0.61951   0.17964   0.89162   0.00000  Uiso   1.00
N943   N     0.75000   0.37377   0.83333   0.00000  Uiso   1.00
N944   N     0.70072   0.12737   0.76094   0.00000  Uiso   1.00
N945   N     0.75134   0.37605   0.92453   0.00000  Uiso   1.00
N946   N     0.79927   0.12737   0.90574   0.00000  Uiso   1.00
N947   N     0.74867   0.37605   0.74214   0.00000  Uiso   1.00
N948   N     0.61140   0.32461   0.79016   0.00000  Uiso   1.00
N949   N     0.88049   0.17961   0.77508   0.00000  Uiso   1.00
N950   N     0.88861   0.32462   0.87647   0.00000  Uiso   1.00
O951   O     0.68453   0.28974   0.83334   0.00000  Uiso   1.00
O952   O     0.81547   0.21026   0.83333   0.00000  Uiso   1.00
O953   O     0.81547   0.28974   0.83333   0.00000  Uiso   1.00
O954   O     0.68453   0.21026   0.83334   0.00000  Uiso   1.00
O955   O     0.75000   0.28973   0.76178   0.00000  Uiso   1.00
O956   O     0.75000   0.21027   0.90489   0.00000  Uiso   1.00
O957   O     0.75000   0.28973   0.90489   0.00000  Uiso   1.00
O958   O     0.75000   0.21027   0.76178   0.00000  Uiso   1.00
Zn959  Zn    0.75000   0.30307   0.83333   0.00000  Uiso   1.00
Zn960  Zn    0.75000   0.19693   0.83333   0.00000  Uiso   1.00
C961   C     0.16390   0.75002   0.83452   0.00000  Uiso   1.00
C962   C     0.24999   0.94853   0.78883   0.00000  Uiso   1.00
C963   C     0.24992   0.74999   0.73960   0.00000  Uiso   1.00
C964   C     0.25008   0.74999   0.92707   0.00000  Uiso   1.00
C965   C     0.25000   0.52711   0.83333   0.00000  Uiso   1.00
C966   C     0.25000   0.97418   0.83333   0.00000  Uiso   1.00
C967   C     0.24998   0.74997   0.68848   0.00000  Uiso   1.00
C968   C     0.25002   0.74997   0.97819   0.00000  Uiso   1.00
C969   C     0.04496   0.78176   0.81017   0.00000  Uiso   1.00
C970   C     0.45232   0.70986   0.80806   0.00000  Uiso   1.00
C971   C     0.45504   0.78178   0.85644   0.00000  Uiso   1.00
C972   C     0.33610   0.75002   0.83214   0.00000  Uiso   1.00
C973   C     0.04768   0.70987   0.85858   0.00000  Uiso   1.00
C974   C     0.09078   0.78530   0.81266   0.00000  Uiso   1.00
C975   C     0.40590   0.71232   0.80479   0.00000  Uiso   1.00
C976   C     0.40923   0.78531   0.85397   0.00000  Uiso   1.00
C977   C     0.09410   0.71233   0.86187   0.00000  Uiso   1.00
C978   C     0.11569   0.74969   0.83704   0.00000  Uiso   1.00
C979   C     0.38431   0.74969   0.82961   0.00000  Uiso   1.00
C980   C     0.02385   0.74444   0.83298   0.00000  Uiso   1.00
C981   C     0.47615   0.74444   0.83363   0.00000  Uiso   1.00
C982   C     0.15297   0.62396   0.76579   0.00000  Uiso   1.00
C983   C     0.22575   0.60224   0.79770   0.00000  Uiso   1.00
C984   C     0.29559   0.87060   0.94613   0.00000  Uiso   1.00
C985   C     0.34702   0.62396   0.90089   0.00000  Uiso   1.00
C986   C     0.20442   0.87060   0.72052   0.00000  Uiso   1.00
C987   C     0.11266   0.86588   0.82168   0.00000  Uiso   1.00
C988   C     0.40117   0.63773   0.75579   0.00000  Uiso   1.00
C989   C     0.38733   0.86589   0.84493   0.00000  Uiso   1.00
C990   C     0.09880   0.63783   0.91102   0.00000  Uiso   1.00
C991   C     0.25049   0.89898   0.87760   0.00000  Uiso   1.00
C992   C     0.27425   0.60224   0.86897   0.00000  Uiso   1.00
C993   C     0.24951   0.89898   0.78907   0.00000  Uiso   1.00
C994   C     0.22613   0.55274   0.79669   0.00000  Uiso   1.00
C995   C     0.25002   0.94854   0.87784   0.00000  Uiso   1.00
C996   C     0.27387   0.55274   0.86998   0.00000  Uiso   1.00
H997   H     0.02559   0.80879   0.79122   0.00000  Uiso   1.00
H998   H     0.13642   0.64935   0.73997   0.00000  Uiso   1.00
H999   H     0.14323   0.63230   0.80462   0.00000  Uiso   1.00
H1000  H     0.14130   0.58811   0.75603   0.00000  Uiso   1.00
H1001  H     0.22983   0.89082   0.94957   0.00000  Uiso   1.00
H1002  H     0.31026   0.90530   0.95569   0.00000  Uiso   1.00
H1003  H     0.31714   0.85203   0.91960   0.00000  Uiso   1.00
H1004  H     0.29403   0.84897   0.98053   0.00000  Uiso   1.00
H1005  H     0.28954   0.61995   0.94167   0.00000  Uiso   1.00
H1006  H     0.36357   0.64934   0.92672   0.00000  Uiso   1.00
H1007  H     0.35677   0.63230   0.86207   0.00000  Uiso   1.00
H1008  H     0.47051   0.68250   0.78934   0.00000  Uiso   1.00
H1009  H     0.35869   0.58810   0.91065   0.00000  Uiso   1.00
H1010  H     0.27019   0.89081   0.71710   0.00000  Uiso   1.00
H1011  H     0.18976   0.90530   0.71096   0.00000  Uiso   1.00
H1012  H     0.18287   0.85204   0.74705   0.00000  Uiso   1.00
H1013  H     0.20599   0.84897   0.68612   0.00000  Uiso   1.00
H1014  H     0.09866   0.83201   0.75484   0.00000  Uiso   1.00
H1015  H     0.07835   0.87865   0.82834   0.00000  Uiso   1.00
H1016  H     0.13156   0.89410   0.80302   0.00000  Uiso   1.00
H1017  H     0.12947   0.85804   0.85821   0.00000  Uiso   1.00
H1018  H     0.35698   0.69450   0.75126   0.00000  Uiso   1.00
H1019  H     0.47441   0.80881   0.87537   0.00000  Uiso   1.00
H1020  H     0.37513   0.61453   0.73915   0.00000  Uiso   1.00
H1021  H     0.41836   0.61820   0.78657   0.00000  Uiso   1.00
H1022  H     0.42498   0.64699   0.72615   0.00000  Uiso   1.00
H1023  H     0.40136   0.83203   0.91178   0.00000  Uiso   1.00
H1024  H     0.42164   0.87866   0.83826   0.00000  Uiso   1.00
H1025  H     0.36844   0.89411   0.86360   0.00000  Uiso   1.00
H1026  H     0.37052   0.85804   0.80841   0.00000  Uiso   1.00
H1027  H     0.14303   0.69456   0.91540   0.00000  Uiso   1.00
H1028  H     0.12483   0.61464   0.92773   0.00000  Uiso   1.00
H1029  H     0.08160   0.61824   0.88030   0.00000  Uiso   1.00
H1030  H     0.02949   0.68251   0.87730   0.00000  Uiso   1.00
H1031  H     0.07499   0.64718   0.94063   0.00000  Uiso   1.00
H1032  H     0.20687   0.53459   0.76797   0.00000  Uiso   1.00
H1033  H     0.24957   0.96679   0.91338   0.00000  Uiso   1.00
H1034  H     0.29313   0.53458   0.89870   0.00000  Uiso   1.00
H1035  H     0.25043   0.96679   0.75328   0.00000  Uiso   1.00
H1036  H     0.21045   0.61995   0.72501   0.00000  Uiso   1.00
N1037  N     0.25000   0.62624   0.83333   0.00000  Uiso   1.00
N1038  N     0.11951   0.67964   0.89162   0.00000  Uiso   1.00
N1039  N     0.25000   0.87377   0.83333   0.00000  Uiso   1.00
N1040  N     0.20072   0.62737   0.76094   0.00000  Uiso   1.00
N1041  N     0.25134   0.87605   0.92453   0.00000  Uiso   1.00
N1042  N     0.29927   0.62737   0.90574   0.00000  Uiso   1.00
N1043  N     0.24867   0.87605   0.74214   0.00000  Uiso   1.00
N1044  N     0.11140   0.82461   0.79016   0.00000  Uiso   1.00
N1045  N     0.38049   0.67961   0.77508   0.00000  Uiso   1.00
N1046  N     0.38861   0.82462   0.87647   0.00000  Uiso   1.00
O1047  O     0.18453   0.78974   0.83334   0.00000  Uiso   1.00
O1048  O     0.31547   0.71026   0.83333   0.00000  Uiso   1.00
O1049  O     0.31547   0.78974   0.83333   0.00000  Uiso   1.00
O1050  O     0.18453   0.71026   0.83334   0.00000  Uiso   1.00
O1051  O     0.25000   0.78973   0.76178   0.00000  Uiso   1.00
O1052  O     0.25000   0.71027   0.90489   0.00000  Uiso   1.00
O1053  O     0.25000   0.78973   0.90489   0.00000  Uiso   1.00
O1054  O     0.25000   0.71027   0.76178   0.00000  Uiso   1.00
Zn1055 Zn    0.25000   0.80307   0.83333   0.00000  Uiso   1.00
Zn1056 Zn    0.25000   0.69693   0.83333   0.00000  Uiso   1.00
C1057  C     0.66390   0.75002   0.83452   0.00000  Uiso   1.00
C1058  C     0.74999   0.94853   0.78883   0.00000  Uiso   1.00
C1059  C     0.74992   0.74999   0.73960   0.00000  Uiso   1.00
C1060  C     0.75008   0.74999   0.92707   0.00000  Uiso   1.00
C1061  C     0.75000   0.52711   0.83333   0.00000  Uiso   1.00
C1062  C     0.75000   0.97418   0.83333   0.00000  Uiso   1.00
C1063  C     0.74998   0.74997   0.68848   0.00000  Uiso   1.00
C1064  C     0.75002   0.74997   0.97819   0.00000  Uiso   1.00
C1065  C     0.54496   0.78176   0.81017   0.00000  Uiso   1.00
C1066  C     0.95232   0.70986   0.80806   0.00000  Uiso   1.00
C1067  C     0.95504   0.78178   0.85644   0.00000  Uiso   1.00
C1068  C     0.83610   0.75002   0.83214   0.00000  Uiso   1.00
C1069  C     0.54768   0.70987   0.85858   0.00000  Uiso   1.00
C1070  C     0.59078   0.78530   0.81266   0.00000  Uiso   1.00
C1071  C     0.90590   0.71232   0.80479   0.00000  Uiso   1.00
C1072  C     0.90923   0.78531   0.85397   0.00000  Uiso   1.00
C1073  C     0.59410   0.71233   0.86187   0.00000  Uiso   1.00
C1074  C     0.61569   0.74969   0.83704   0.00000  Uiso   1.00
C1075  C     0.88431   0.74969   0.82961   0.00000  Uiso   1.00
C1076  C     0.52385   0.74444   0.83298   0.00000  Uiso   1.00
C1077  C     0.97615   0.74444   0.83363   0.00000  Uiso   1.00
C1078  C     0.65297   0.62396   0.76579   0.00000  Uiso   1.00
C1079  C     0.72575   0.60224   0.79770   0.00000  Uiso   1.00
C1080  C     0.79559   0.87060   0.94613   0.00000  Uiso   1.00
C1081  C     0.84702   0.62396   0.90089   0.00000  Uiso   1.00
C1082  C     0.70442   0.87060   0.72052   0.00000  Uiso   1.00
C1083  C     0.61266   0.86588   0.82168   0.00000  Uiso   1.00
C1084  C     0.90117   0.63773   0.75579   0.00000  Uiso   1.00
C1085  C     0.88733   0.86589   0.84493   0.00000  Uiso   1.00
C1086  C     0.59880   0.63783   0.91102   0.00000  Uiso   1.00
C1087  C     0.75049   0.89898   0.87760   0.00000  Uiso   1.00
C1088  C     0.77425   0.60224   0.86897   0.00000  Uiso   1.00
C1089  C     0.74951   0.89898   0.78907   0.00000  Uiso   1.00
C1090  C     0.72613   0.55274   0.79669   0.00000  Uiso   1.00
C1091  C     0.75002   0.94854   0.87784   0.00000  Uiso   1.00
C1092  C     0.77387   0.55274   0.86998   0.00000  Uiso   1.00
H1093  H     0.52559   0.80879   0.79122   0.00000  Uiso   1.00
H1094  H     0.63642   0.64935   0.73997   0.00000  Uiso   1.00
H1095  H     0.64323   0.63230   0.80462   0.00000  Uiso   1.00
H1096  H     0.64130   0.58811   0.75603   0.00000  Uiso   1.00
H1097  H     0.72983   0.89082   0.94957   0.00000  Uiso   1.00
H1098  H     0.81026   0.90530   0.95569   0.00000  Uiso   1.00
H1099  H     0.81714   0.85203   0.91960   0.00000  Uiso   1.00
H1100  H     0.79403   0.84897   0.98053   0.00000  Uiso   1.00
H1101  H     0.78954   0.61995   0.94167   0.00000  Uiso   1.00
H1102  H     0.86357   0.64934   0.92672   0.00000  Uiso   1.00
H1103  H     0.85677   0.63230   0.86207   0.00000  Uiso   1.00
H1104  H     0.97051   0.68250   0.78934   0.00000  Uiso   1.00
H1105  H     0.85869   0.58810   0.91065   0.00000  Uiso   1.00
H1106  H     0.77019   0.89081   0.71710   0.00000  Uiso   1.00
H1107  H     0.68976   0.90530   0.71096   0.00000  Uiso   1.00
H1108  H     0.68287   0.85204   0.74705   0.00000  Uiso   1.00
H1109  H     0.70599   0.84897   0.68612   0.00000  Uiso   1.00
H1110  H     0.59866   0.83201   0.75484   0.00000  Uiso   1.00
H1111  H     0.57835   0.87865   0.82834   0.00000  Uiso   1.00
H1112  H     0.63156   0.89410   0.80302   0.00000  Uiso   1.00
H1113  H     0.62947   0.85804   0.85821   0.00000  Uiso   1.00
H1114  H     0.85698   0.69450   0.75126   0.00000  Uiso   1.00
H1115  H     0.97441   0.80881   0.87537   0.00000  Uiso   1.00
H1116  H     0.87513   0.61453   0.73915   0.00000  Uiso   1.00
H1117  H     0.91836   0.61820   0.78657   0.00000  Uiso   1.00
H1118  H     0.92498   0.64699   0.72615   0.00000  Uiso   1.00
H1119  H     0.90136   0.83203   0.91178   0.00000  Uiso   1.00
H1120  H     0.92164   0.87866   0.83826   0.00000  Uiso   1.00
H1121  H     0.86844   0.89411   0.86360   0.00000  Uiso   1.00
H1122  H     0.87052   0.85804   0.80841   0.00000  Uiso   1.00
H1123  H     0.64303   0.69456   0.91540   0.00000  Uiso   1.00
H1124  H     0.62483   0.61464   0.92773   0.00000  Uiso   1.00
H1125  H     0.58160   0.61824   0.88030   0.00000  Uiso   1.00
H1126  H     0.52949   0.68251   0.87730   0.00000  Uiso   1.00
H1127  H     0.57499   0.64718   0.94063   0.00000  Uiso   1.00
H1128  H     0.70687   0.53459   0.76797   0.00000  Uiso   1.00
H1129  H     0.74957   0.96679   0.91338   0.00000  Uiso   1.00
H1130  H     0.79313   0.53458   0.89870   0.00000  Uiso   1.00
H1131  H     0.75043   0.96679   0.75328   0.00000  Uiso   1.00
H1132  H     0.71045   0.61995   0.72501   0.00000  Uiso   1.00
N1133  N     0.75000   0.62624   0.83333   0.00000  Uiso   1.00
N1134  N     0.61951   0.67964   0.89162   0.00000  Uiso   1.00
N1135  N     0.75000   0.87377   0.83333   0.00000  Uiso   1.00
N1136  N     0.70072   0.62737   0.76094   0.00000  Uiso   1.00
N1137  N     0.75134   0.87605   0.92453   0.00000  Uiso   1.00
N1138  N     0.79927   0.62737   0.90574   0.00000  Uiso   1.00
N1139  N     0.74867   0.87605   0.74214   0.00000  Uiso   1.00
N1140  N     0.61140   0.82461   0.79016   0.00000  Uiso   1.00
N1141  N     0.88049   0.67961   0.77508   0.00000  Uiso   1.00
N1142  N     0.88861   0.82462   0.87647   0.00000  Uiso   1.00
O1143  O     0.68453   0.78974   0.83334   0.00000  Uiso   1.00
O1144  O     0.81547   0.71026   0.83333   0.00000  Uiso   1.00
O1145  O     0.81547   0.78974   0.83333   0.00000  Uiso   1.00
O1146  O     0.68453   0.71026   0.83334   0.00000  Uiso   1.00
O1147  O     0.75000   0.78973   0.76178   0.00000  Uiso   1.00
O1148  O     0.75000   0.71027   0.90489   0.00000  Uiso   1.00
O1149  O     0.75000   0.78973   0.90489   0.00000  Uiso   1.00
O1150  O     0.75000   0.71027   0.76178   0.00000  Uiso   1.00
Zn1151 Zn    0.75000   0.80307   0.83333   0.00000  Uiso   1.00
Zn1152 Zn    0.75000   0.69693   0.83333   0.00000  Uiso   1.00
loop_
_geom_bond_atom_site_label_1
_geom_bond_atom_site_label_2
_geom_bond_distance
_geom_bond_site_symmetry_2
_ccdc_geom_bond_type
C1     O87     1.293   .     A
C1     O90     1.294   .     A
C1     C18     1.452   .     S
C2     C6      1.396   .     A
C2     C33     1.415   .     A
C2     H75     1.083   .     S
C3     C7      1.365   .     S
C3     O91     1.280   .     A
C3     O94     1.280   .     A
C4     C8      1.365   .     S
C4     O93     1.280   .     A
C4     O92     1.280   .     A
C5     C36     1.406   .     A
C5     C34     1.406   .     A
C5     C198    1.511   1_545 S
C6     C35     1.396   .     A
C6     C197    1.511   .     S
C7     C776    1.165   1_554 S
C8     C391    1.165   .     S
C9     C14     1.380   .     A
C9     C20     1.388   .     A
C9     H37     1.085   .     S
C10    C15     1.397   .     A
C10    C21     1.390   .     A
C10    H48     1.082   .     S
C11    H59     1.085   .     S
C11    C21     1.388   .     A
C11    C16     1.380   .     A
C12    O88     1.294   .     A
C12    O89     1.293   .     A
C12    C19     1.452   .     S
C13    H70     1.082   .     S
C13    C20     1.390   .     A
C13    C17     1.397   .     A
C14    C18     1.413   .     A
C14    N84     1.422   .     S
C15    C19     1.420   .     A
C15    N85     1.435   .     S
C16    N86     1.422   .     S
C16    C19     1.413   .     A
C17    C18     1.420   .     A
C17    N78     1.435   .     S
C20    C117    1.434   1_455 S
C21    C116    1.434   .     S
C22    H38     1.110   .     S
C22    H40     1.111   .     S
C22    N80     1.447   .     S
C22    H39     1.110   .     S
C23    N80     1.418   .     S
C23    C34     1.414   .     A
C23    N77     1.369   .     A
C24    H42     1.112   .     S
C24    N81     1.446   .     S
C24    H44     1.109   .     S
C24    H43     1.106   .     S
C25    H47     1.110   .     S
C25    N82     1.447   .     S
C25    H49     1.111   .     S
C25    H46     1.110   .     S
C26    N83     1.446   .     S
C26    H53     1.109   .     S
C26    H52     1.106   .     S
C26    H51     1.112   .     S
C27    N84     1.448   .     S
C27    H55     1.112   .     S
C27    H57     1.111   .     S
C27    H56     1.110   .     S
C28    H61     1.111   .     S
C28    H60     1.110   .     S
C28    N85     1.447   .     S
C28    H62     1.111   .     S
C29    H64     1.112   .     S
C29    N86     1.448   .     S
C29    H65     1.110   .     S
C29    H66     1.111   .     S
C30    H71     1.111   .     S
C30    H69     1.111   .     S
C30    N78     1.447   .     S
C30    H68     1.110   .     S
C31    C35     1.415   .     A
C31    N79     1.384   .     A
C31    N81     1.414   .     S
C32    C36     1.414   .     A
C32    N77     1.369   .     A
C32    N82     1.418   .     S
C33    N79     1.384   .     A
C33    N83     1.414   .     S
C34    H72     1.083   .     S
C35    H73     1.083   .     S
C36    H74     1.083   .     S
H41    N81     1.031   .     S
H45    N82     1.031   .     S
H50    N83     1.031   .     S
H54    N84     1.032   .     S
H58    N85     1.032   .     S
H63    N86     1.032   .     S
H67    N78     1.032   .     S
H76    N80     1.031   .     S
N77    Zn96    2.018   .     S
N79    Zn95    2.018   .     S
O87    Zn95    2.004   .     S
O88    Zn96    2.004   .     S
O89    Zn95    2.004   .     S
O90    Zn96    2.004   .     S
O91    Zn95    1.949   .     S
O92    Zn96    1.949   .     S
O93    Zn95    1.949   .     S
O94    Zn96    1.949   .     S
C97    O183    1.293   .     A
C97    O186    1.294   .     A
C97    C114    1.452   .     S
C98    C102    1.396   .     A
C98    C129    1.415   .     A
C98    H171    1.083   .     S
C99    C103    1.365   .     S
C99    O187    1.280   .     A
C99    O190    1.280   .     A
C100   C104    1.365   .     S
C100   O189    1.280   .     A
C100   O188    1.280   .     A
C101   C132    1.406   .     A
C101   C130    1.406   .     A
C101   C294    1.511   1_545 S
C102   C131    1.396   .     A
C102   C293    1.511   .     S
C103   C872    1.165   1_554 S
C104   C487    1.165   .     S
C105   C110    1.380   .     A
C105   C116    1.388   .     A
C105   H133    1.085   .     S
C106   C111    1.397   .     A
C106   C117    1.390   .     A
C106   H144    1.082   .     S
C107   H155    1.085   .     S
C107   C117    1.388   .     A
C107   C112    1.380   .     A
C108   O184    1.294   .     A
C108   O185    1.293   .     A
C108   C115    1.452   .     S
C109   H166    1.082   .     S
C109   C116    1.390   .     A
C109   C113    1.397   .     A
C110   C114    1.413   .     A
C110   N180    1.422   .     S
C111   C115    1.420   .     A
C111   N181    1.435   .     S
C112   N182    1.422   .     S
C112   C115    1.413   .     A
C113   C114    1.420   .     A
C113   N174    1.435   .     S
C117   C20     1.434   1_655 S
C118   H134    1.110   .     S
C118   H136    1.111   .     S
C118   N176    1.447   .     S
C118   H135    1.110   .     S
C119   N176    1.418   .     S
C119   C130    1.414   .     A
C119   N173    1.369   .     A
C120   H138    1.112   .     S
C120   N177    1.446   .     S
C120   H140    1.109   .     S
C120   H139    1.106   .     S
C121   H143    1.110   .     S
C121   N178    1.447   .     S
C121   H145    1.111   .     S
C121   H142    1.110   .     S
C122   N179    1.446   .     S
C122   H149    1.109   .     S
C122   H148    1.106   .     S
C122   H147    1.112   .     S
C123   N180    1.448   .     S
C123   H151    1.112   .     S
C123   H153    1.111   .     S
C123   H152    1.110   .     S
C124   H157    1.111   .     S
C124   H156    1.110   .     S
C124   N181    1.447   .     S
C124   H158    1.111   .     S
C125   H160    1.112   .     S
C125   N182    1.448   .     S
C125   H161    1.110   .     S
C125   H162    1.111   .     S
C126   H167    1.111   .     S
C126   H165    1.111   .     S
C126   N174    1.447   .     S
C126   H164    1.110   .     S
C127   C131    1.415   .     A
C127   N175    1.384   .     A
C127   N177    1.414   .     S
C128   C132    1.414   .     A
C128   N173    1.369   .     A
C128   N178    1.418   .     S
C129   N175    1.384   .     A
C129   N179    1.414   .     S
C130   H168    1.083   .     S
C131   H169    1.083   .     S
C132   H170    1.083   .     S
H137   N177    1.031   .     S
H141   N178    1.031   .     S
H146   N179    1.031   .     S
H150   N180    1.032   .     S
H154   N181    1.032   .     S
H159   N182    1.032   .     S
H163   N174    1.032   .     S
H172   N176    1.031   .     S
N173   Zn192   2.018   .     S
N175   Zn191   2.018   .     S
O183   Zn191   2.004   .     S
O184   Zn192   2.004   .     S
O185   Zn191   2.004   .     S
O186   Zn192   2.004   .     S
O187   Zn191   1.949   .     S
O188   Zn192   1.949   .     S
O189   Zn191   1.949   .     S
O190   Zn192   1.949   .     S
C193   O279    1.293   .     A
C193   O282    1.294   .     A
C193   C210    1.452   .     S
C194   C198    1.396   .     A
C194   C225    1.415   .     A
C194   H267    1.083   .     S
C195   C199    1.365   .     S
C195   O283    1.280   .     A
C195   O286    1.280   .     A
C196   C200    1.365   .     S
C196   O285    1.280   .     A
C196   O284    1.280   .     A
C197   C228    1.406   .     A
C197   C226    1.406   .     A
C198   C227    1.396   .     A
C198   C5      1.511   1_565 S
C199   C968    1.165   1_554 S
C200   C583    1.165   .     S
C201   C206    1.380   .     A
C201   C212    1.388   .     A
C201   H229    1.085   .     S
C202   C207    1.397   .     A
C202   C213    1.390   .     A
C202   H240    1.082   .     S
C203   H251    1.085   .     S
C203   C213    1.388   .     A
C203   C208    1.380   .     A
C204   O280    1.294   .     A
C204   O281    1.293   .     A
C204   C211    1.452   .     S
C205   H262    1.082   .     S
C205   C212    1.390   .     A
C205   C209    1.397   .     A
C206   C210    1.413   .     A
C206   N276    1.422   .     S
C207   C211    1.420   .     A
C207   N277    1.435   .     S
C208   N278    1.422   .     S
C208   C211    1.413   .     A
C209   C210    1.420   .     A
C209   N270    1.435   .     S
C212   C309    1.434   1_455 S
C213   C308    1.434   .     S
C214   H230    1.110   .     S
C214   H232    1.111   .     S
C214   N272    1.447   .     S
C214   H231    1.110   .     S
C215   N272    1.418   .     S
C215   C226    1.414   .     A
C215   N269    1.369   .     A
C216   H234    1.112   .     S
C216   N273    1.446   .     S
C216   H236    1.109   .     S
C216   H235    1.106   .     S
C217   H239    1.110   .     S
C217   N274    1.447   .     S
C217   H241    1.111   .     S
C217   H238    1.110   .     S
C218   N275    1.446   .     S
C218   H245    1.109   .     S
C218   H244    1.106   .     S
C218   H243    1.112   .     S
C219   N276    1.448   .     S
C219   H247    1.112   .     S
C219   H249    1.111   .     S
C219   H248    1.110   .     S
C220   H253    1.111   .     S
C220   H252    1.110   .     S
C220   N277    1.447   .     S
C220   H254    1.111   .     S
C221   H256    1.112   .     S
C221   N278    1.448   .     S
C221   H257    1.110   .     S
C221   H258    1.111   .     S
C222   H263    1.111   .     S
C222   H261    1.111   .     S
C222   N270    1.447   .     S
C222   H260    1.110   .     S
C223   C227    1.415   .     A
C223   N271    1.384   .     A
C223   N273    1.414   .     S
C224   C228    1.414   .     A
C224   N269    1.369   .     A
C224   N274    1.418   .     S
C225   N271    1.384   .     A
C225   N275    1.414   .     S
C226   H264    1.083   .     S
C227   H265    1.083   .     S
C228   H266    1.083   .     S
H233   N273    1.031   .     S
H237   N274    1.031   .     S
H242   N275    1.031   .     S
H246   N276    1.032   .     S
H250   N277    1.032   .     S
H255   N278    1.032   .     S
H259   N270    1.032   .     S
H268   N272    1.031   .     S
N269   Zn288   2.018   .     S
N271   Zn287   2.018   .     S
O279   Zn287   2.004   .     S
O280   Zn288   2.004   .     S
O281   Zn287   2.004   .     S
O282   Zn288   2.004   .     S
O283   Zn287   1.949   .     S
O284   Zn288   1.949   .     S
O285   Zn287   1.949   .     S
O286   Zn288   1.949   .     S
C289   O375    1.293   .     A
C289   O378    1.294   .     A
C289   C306    1.452   .     S
C290   C294    1.396   .     A
C290   C321    1.415   .     A
C290   H363    1.083   .     S
C291   C295    1.365   .     S
C291   O379    1.280   .     A
C291   O382    1.280   .     A
C292   C296    1.365   .     S
C292   O381    1.280   .     A
C292   O380    1.280   .     A
C293   C324    1.406   .     A
C293   C322    1.406   .     A
C294   C323    1.396   .     A
C294   C101    1.511   1_565 S
C295   C1064   1.165   1_554 S
C296   C679    1.165   .     S
C297   C302    1.380   .     A
C297   C308    1.388   .     A
C297   H325    1.085   .     S
C298   C303    1.397   .     A
C298   C309    1.390   .     A
C298   H336    1.082   .     S
C299   H347    1.085   .     S
C299   C309    1.388   .     A
C299   C304    1.380   .     A
C300   O376    1.294   .     A
C300   O377    1.293   .     A
C300   C307    1.452   .     S
C301   H358    1.082   .     S
C301   C308    1.390   .     A
C301   C305    1.397   .     A
C302   C306    1.413   .     A
C302   N372    1.422   .     S
C303   C307    1.420   .     A
C303   N373    1.435   .     S
C304   N374    1.422   .     S
C304   C307    1.413   .     A
C305   C306    1.420   .     A
C305   N366    1.435   .     S
C309   C212    1.434   1_655 S
C310   H326    1.110   .     S
C310   H328    1.111   .     S
C310   N368    1.447   .     S
C310   H327    1.110   .     S
C311   N368    1.418   .     S
C311   C322    1.414   .     A
C311   N365    1.369   .     A
C312   H330    1.112   .     S
C312   N369    1.446   .     S
C312   H332    1.109   .     S
C312   H331    1.106   .     S
C313   H335    1.110   .     S
C313   N370    1.447   .     S
C313   H337    1.111   .     S
C313   H334    1.110   .     S
C314   N371    1.446   .     S
C314   H341    1.109   .     S
C314   H340    1.106   .     S
C314   H339    1.112   .     S
C315   N372    1.448   .     S
C315   H343    1.112   .     S
C315   H345    1.111   .     S
C315   H344    1.110   .     S
C316   H349    1.111   .     S
C316   H348    1.110   .     S
C316   N373    1.447   .     S
C316   H350    1.111   .     S
C317   H352    1.112   .     S
C317   N374    1.448   .     S
C317   H353    1.110   .     S
C317   H354    1.111   .     S
C318   H359    1.111   .     S
C318   H357    1.111   .     S
C318   N366    1.447   .     S
C318   H356    1.110   .     S
C319   C323    1.415   .     A
C319   N367    1.384   .     A
C319   N369    1.414   .     S
C320   C324    1.414   .     A
C320   N365    1.369   .     A
C320   N370    1.418   .     S
C321   N367    1.384   .     A
C321   N371    1.414   .     S
C322   H360    1.083   .     S
C323   H361    1.083   .     S
C324   H362    1.083   .     S
H329   N369    1.031   .     S
H333   N370    1.031   .     S
H338   N371    1.031   .     S
H342   N372    1.032   .     S
H346   N373    1.032   .     S
H351   N374    1.032   .     S
H355   N366    1.032   .     S
H364   N368    1.031   .     S
N365   Zn384   2.018   .     S
N367   Zn383   2.018   .     S
O375   Zn383   2.004   .     S
O376   Zn384   2.004   .     S
O377   Zn383   2.004   .     S
O378   Zn384   2.004   .     S
O379   Zn383   1.949   .     S
O380   Zn384   1.949   .     S
O381   Zn383   1.949   .     S
O382   Zn384   1.949   .     S
C385   O471    1.293   .     A
C385   O474    1.294   .     A
C385   C402    1.452   .     S
C386   C390    1.396   .     A
C386   C417    1.415   .     A
C386   H459    1.083   .     S
C387   C391    1.365   .     S
C387   O475    1.280   .     A
C387   O478    1.280   .     A
C388   C392    1.365   .     S
C388   O477    1.280   .     A
C388   O476    1.280   .     A
C389   C420    1.406   .     A
C389   C418    1.406   .     A
C389   C582    1.511   1_545 S
C390   C419    1.396   .     A
C390   C581    1.511   .     S
C392   C775    1.165   .     S
C393   C398    1.380   .     A
C393   C404    1.388   .     A
C393   H421    1.085   .     S
C394   C399    1.397   .     A
C394   C405    1.390   .     A
C394   H432    1.082   .     S
C395   H443    1.085   .     S
C395   C405    1.388   .     A
C395   C400    1.380   .     A
C396   O472    1.294   .     A
C396   O473    1.293   .     A
C396   C403    1.452   .     S
C397   H454    1.082   .     S
C397   C404    1.390   .     A
C397   C401    1.397   .     A
C398   C402    1.413   .     A
C398   N468    1.422   .     S
C399   C403    1.420   .     A
C399   N469    1.435   .     S
C400   N470    1.422   .     S
C400   C403    1.413   .     A
C401   C402    1.420   .     A
C401   N462    1.435   .     S
C404   C501    1.434   1_455 S
C405   C500    1.434   .     S
C406   H422    1.110   .     S
C406   H424    1.111   .     S
C406   N464    1.447   .     S
C406   H423    1.110   .     S
C407   N464    1.418   .     S
C407   C418    1.414   .     A
C407   N461    1.369   .     A
C408   H426    1.112   .     S
C408   N465    1.446   .     S
C408   H428    1.109   .     S
C408   H427    1.106   .     S
C409   H431    1.110   .     S
C409   N466    1.447   .     S
C409   H433    1.111   .     S
C409   H430    1.110   .     S
C410   N467    1.446   .     S
C410   H437    1.109   .     S
C410   H436    1.106   .     S
C410   H435    1.112   .     S
C411   N468    1.448   .     S
C411   H439    1.112   .     S
C411   H441    1.111   .     S
C411   H440    1.110   .     S
C412   H445    1.111   .     S
C412   H444    1.110   .     S
C412   N469    1.447   .     S
C412   H446    1.111   .     S
C413   H448    1.112   .     S
C413   N470    1.448   .     S
C413   H449    1.110   .     S
C413   H450    1.111   .     S
C414   H455    1.111   .     S
C414   H453    1.111   .     S
C414   N462    1.447   .     S
C414   H452    1.110   .     S
C415   C419    1.415   .     A
C415   N463    1.384   .     A
C415   N465    1.414   .     S
C416   C420    1.414   .     A
C416   N461    1.369   .     A
C416   N466    1.418   .     S
C417   N463    1.384   .     A
C417   N467    1.414   .     S
C418   H456    1.083   .     S
C419   H457    1.083   .     S
C420   H458    1.083   .     S
H425   N465    1.031   .     S
H429   N466    1.031   .     S
H434   N467    1.031   .     S
H438   N468    1.032   .     S
H442   N469    1.032   .     S
H447   N470    1.032   .     S
H451   N462    1.032   .     S
H460   N464    1.031   .     S
N461   Zn480   2.018   .     S
N463   Zn479   2.018   .     S
O471   Zn479   2.004   .     S
O472   Zn480   2.004   .     S
O473   Zn479   2.004   .     S
O474   Zn480   2.004   .     S
O475   Zn479   1.949   .     S
O476   Zn480   1.949   .     S
O477   Zn479   1.949   .     S
O478   Zn480   1.949   .     S
C481   O567    1.293   .     A
C481   O570    1.294   .     A
C481   C498    1.452   .     S
C482   C486    1.396   .     A
C482   C513    1.415   .     A
C482   H555    1.083   .     S
C483   C487    1.365   .     S
C483   O571    1.280   .     A
C483   O574    1.280   .     A
C484   C488    1.365   .     S
C484   O573    1.280   .     A
C484   O572    1.280   .     A
C485   C516    1.406   .     A
C485   C514    1.406   .     A
C485   C678    1.511   1_545 S
C486   C515    1.396   .     A
C486   C677    1.511   .     S
C488   C871    1.165   .     S
C489   C494    1.380   .     A
C489   C500    1.388   .     A
C489   H517    1.085   .     S
C490   C495    1.397   .     A
C490   C501    1.390   .     A
C490   H528    1.082   .     S
C491   H539    1.085   .     S
C491   C501    1.388   .     A
C491   C496    1.380   .     A
C492   O568    1.294   .     A
C492   O569    1.293   .     A
C492   C499    1.452   .     S
C493   H550    1.082   .     S
C493   C500    1.390   .     A
C493   C497    1.397   .     A
C494   C498    1.413   .     A
C494   N564    1.422   .     S
C495   C499    1.420   .     A
C495   N565    1.435   .     S
C496   N566    1.422   .     S
C496   C499    1.413   .     A
C497   C498    1.420   .     A
C497   N558    1.435   .     S
C501   C404    1.434   1_655 S
C502   H518    1.110   .     S
C502   H520    1.111   .     S
C502   N560    1.447   .     S
C502   H519    1.110   .     S
C503   N560    1.418   .     S
C503   C514    1.414   .     A
C503   N557    1.369   .     A
C504   H522    1.112   .     S
C504   N561    1.446   .     S
C504   H524    1.109   .     S
C504   H523    1.106   .     S
C505   H527    1.110   .     S
C505   N562    1.447   .     S
C505   H529    1.111   .     S
C505   H526    1.110   .     S
C506   N563    1.446   .     S
C506   H533    1.109   .     S
C506   H532    1.106   .     S
C506   H531    1.112   .     S
C507   N564    1.448   .     S
C507   H535    1.112   .     S
C507   H537    1.111   .     S
C507   H536    1.110   .     S
C508   H541    1.111   .     S
C508   H540    1.110   .     S
C508   N565    1.447   .     S
C508   H542    1.111   .     S
C509   H544    1.112   .     S
C509   N566    1.448   .     S
C509   H545    1.110   .     S
C509   H546    1.111   .     S
C510   H551    1.111   .     S
C510   H549    1.111   .     S
C510   N558    1.447   .     S
C510   H548    1.110   .     S
C511   C515    1.415   .     A
C511   N559    1.384   .     A
C511   N561    1.414   .     S
C512   C516    1.414   .     A
C512   N557    1.369   .     A
C512   N562    1.418   .     S
C513   N559    1.384   .     A
C513   N563    1.414   .     S
C514   H552    1.083   .     S
C515   H553    1.083   .     S
C516   H554    1.083   .     S
H521   N561    1.031   .     S
H525   N562    1.031   .     S
H530   N563    1.031   .     S
H534   N564    1.032   .     S
H538   N565    1.032   .     S
H543   N566    1.032   .     S
H547   N558    1.032   .     S
H556   N560    1.031   .     S
N557   Zn576   2.018   .     S
N559   Zn575   2.018   .     S
O567   Zn575   2.004   .     S
O568   Zn576   2.004   .     S
O569   Zn575   2.004   .     S
O570   Zn576   2.004   .     S
O571   Zn575   1.949   .     S
O572   Zn576   1.949   .     S
O573   Zn575   1.949   .     S
O574   Zn576   1.949   .     S
C577   O663    1.293   .     A
C577   O666    1.294   .     A
C577   C594    1.452   .     S
C578   C582    1.396   .     A
C578   C609    1.415   .     A
C578   H651    1.083   .     S
C579   C583    1.365   .     S
C579   O667    1.280   .     A
C579   O670    1.280   .     A
C580   C584    1.365   .     S
C580   O669    1.280   .     A
C580   O668    1.280   .     A
C581   C612    1.406   .     A
C581   C610    1.406   .     A
C582   C611    1.396   .     A
C582   C389    1.511   1_565 S
C584   C967    1.165   .     S
C585   C590    1.380   .     A
C585   C596    1.388   .     A
C585   H613    1.085   .     S
C586   C591    1.397   .     A
C586   C597    1.390   .     A
C586   H624    1.082   .     S
C587   H635    1.085   .     S
C587   C597    1.388   .     A
C587   C592    1.380   .     A
C588   O664    1.294   .     A
C588   O665    1.293   .     A
C588   C595    1.452   .     S
C589   H646    1.082   .     S
C589   C596    1.390   .     A
C589   C593    1.397   .     A
C590   C594    1.413   .     A
C590   N660    1.422   .     S
C591   C595    1.420   .     A
C591   N661    1.435   .     S
C592   N662    1.422   .     S
C592   C595    1.413   .     A
C593   C594    1.420   .     A
C593   N654    1.435   .     S
C596   C693    1.434   1_455 S
C597   C692    1.434   .     S
C598   H614    1.110   .     S
C598   H616    1.111   .     S
C598   N656    1.447   .     S
C598   H615    1.110   .     S
C599   N656    1.418   .     S
C599   C610    1.414   .     A
C599   N653    1.369   .     A
C600   H618    1.112   .     S
C600   N657    1.446   .     S
C600   H620    1.109   .     S
C600   H619    1.106   .     S
C601   H623    1.110   .     S
C601   N658    1.447   .     S
C601   H625    1.111   .     S
C601   H622    1.110   .     S
C602   N659    1.446   .     S
C602   H629    1.109   .     S
C602   H628    1.106   .     S
C602   H627    1.112   .     S
C603   N660    1.448   .     S
C603   H631    1.112   .     S
C603   H633    1.111   .     S
C603   H632    1.110   .     S
C604   H637    1.111   .     S
C604   H636    1.110   .     S
C604   N661    1.447   .     S
C604   H638    1.111   .     S
C605   H640    1.112   .     S
C605   N662    1.448   .     S
C605   H641    1.110   .     S
C605   H642    1.111   .     S
C606   H647    1.111   .     S
C606   H645    1.111   .     S
C606   N654    1.447   .     S
C606   H644    1.110   .     S
C607   C611    1.415   .     A
C607   N655    1.384   .     A
C607   N657    1.414   .     S
C608   C612    1.414   .     A
C608   N653    1.369   .     A
C608   N658    1.418   .     S
C609   N655    1.384   .     A
C609   N659    1.414   .     S
C610   H648    1.083   .     S
C611   H649    1.083   .     S
C612   H650    1.083   .     S
H617   N657    1.031   .     S
H621   N658    1.031   .     S
H626   N659    1.031   .     S
H630   N660    1.032   .     S
H634   N661    1.032   .     S
H639   N662    1.032   .     S
H643   N654    1.032   .     S
H652   N656    1.031   .     S
N653   Zn672   2.018   .     S
N655   Zn671   2.018   .     S
O663   Zn671   2.004   .     S
O664   Zn672   2.004   .     S
O665   Zn671   2.004   .     S
O666   Zn672   2.004   .     S
O667   Zn671   1.949   .     S
O668   Zn672   1.949   .     S
O669   Zn671   1.949   .     S
O670   Zn672   1.949   .     S
C673   O759    1.293   .     A
C673   O762    1.294   .     A
C673   C690    1.452   .     S
C674   C678    1.396   .     A
C674   C705    1.415   .     A
C674   H747    1.083   .     S
C675   C679    1.365   .     S
C675   O763    1.280   .     A
C675   O766    1.280   .     A
C676   C680    1.365   .     S
C676   O765    1.280   .     A
C676   O764    1.280   .     A
C677   C708    1.406   .     A
C677   C706    1.406   .     A
C678   C707    1.396   .     A
C678   C485    1.511   1_565 S
C680   C1063   1.165   .     S
C681   C686    1.380   .     A
C681   C692    1.388   .     A
C681   H709    1.085   .     S
C682   C687    1.397   .     A
C682   C693    1.390   .     A
C682   H720    1.082   .     S
C683   H731    1.085   .     S
C683   C693    1.388   .     A
C683   C688    1.380   .     A
C684   O760    1.294   .     A
C684   O761    1.293   .     A
C684   C691    1.452   .     S
C685   H742    1.082   .     S
C685   C692    1.390   .     A
C685   C689    1.397   .     A
C686   C690    1.413   .     A
C686   N756    1.422   .     S
C687   C691    1.420   .     A
C687   N757    1.435   .     S
C688   N758    1.422   .     S
C688   C691    1.413   .     A
C689   C690    1.420   .     A
C689   N750    1.435   .     S
C693   C596    1.434   1_655 S
C694   H710    1.110   .     S
C694   H712    1.111   .     S
C694   N752    1.447   .     S
C694   H711    1.110   .     S
C695   N752    1.418   .     S
C695   C706    1.414   .     A
C695   N749    1.369   .     A
C696   H714    1.112   .     S
C696   N753    1.446   .     S
C696   H716    1.109   .     S
C696   H715    1.106   .     S
C697   H719    1.110   .     S
C697   N754    1.447   .     S
C697   H721    1.111   .     S
C697   H718    1.110   .     S
C698   N755    1.446   .     S
C698   H725    1.109   .     S
C698   H724    1.106   .     S
C698   H723    1.112   .     S
C699   N756    1.448   .     S
C699   H727    1.112   .     S
C699   H729    1.111   .     S
C699   H728    1.110   .     S
C700   H733    1.111   .     S
C700   H732    1.110   .     S
C700   N757    1.447   .     S
C700   H734    1.111   .     S
C701   H736    1.112   .     S
C701   N758    1.448   .     S
C701   H737    1.110   .     S
C701   H738    1.111   .     S
C702   H743    1.111   .     S
C702   H741    1.111   .     S
C702   N750    1.447   .     S
C702   H740    1.110   .     S
C703   C707    1.415   .     A
C703   N751    1.384   .     A
C703   N753    1.414   .     S
C704   C708    1.414   .     A
C704   N749    1.369   .     A
C704   N754    1.418   .     S
C705   N751    1.384   .     A
C705   N755    1.414   .     S
C706   H744    1.083   .     S
C707   H745    1.083   .     S
C708   H746    1.083   .     S
H713   N753    1.031   .     S
H717   N754    1.031   .     S
H722   N755    1.031   .     S
H726   N756    1.032   .     S
H730   N757    1.032   .     S
H735   N758    1.032   .     S
H739   N750    1.032   .     S
H748   N752    1.031   .     S
N749   Zn768   2.018   .     S
N751   Zn767   2.018   .     S
O759   Zn767   2.004   .     S
O760   Zn768   2.004   .     S
O761   Zn767   2.004   .     S
O762   Zn768   2.004   .     S
O763   Zn767   1.949   .     S
O764   Zn768   1.949   .     S
O765   Zn767   1.949   .     S
O766   Zn768   1.949   .     S
C769   O855    1.293   .     A
C769   O858    1.294   .     A
C769   C786    1.452   .     S
C770   C774    1.396   .     A
C770   C801    1.415   .     A
C770   H843    1.083   .     S
C771   C775    1.365   .     S
C771   O859    1.280   .     A
C771   O862    1.280   .     A
C772   C776    1.365   .     S
C772   O861    1.280   .     A
C772   O860    1.280   .     A
C773   C804    1.406   .     A
C773   C802    1.406   .     A
C773   C966    1.511   1_545 S
C774   C803    1.396   .     A
C774   C965    1.511   .     S
C776   C7      1.165   1_556 S
C777   C782    1.380   .     A
C777   C788    1.388   .     A
C777   H805    1.085   .     S
C778   C783    1.397   .     A
C778   C789    1.390   .     A
C778   H816    1.082   .     S
C779   H827    1.085   .     S
C779   C789    1.388   .     A
C779   C784    1.380   .     A
C780   O856    1.294   .     A
C780   O857    1.293   .     A
C780   C787    1.452   .     S
C781   H838    1.082   .     S
C781   C788    1.390   .     A
C781   C785    1.397   .     A
C782   C786    1.413   .     A
C782   N852    1.422   .     S
C783   C787    1.420   .     A
C783   N853    1.435   .     S
C784   N854    1.422   .     S
C784   C787    1.413   .     A
C785   C786    1.420   .     A
C785   N846    1.435   .     S
C788   C885    1.434   1_455 S
C789   C884    1.434   .     S
C790   H806    1.110   .     S
C790   H808    1.111   .     S
C790   N848    1.447   .     S
C790   H807    1.110   .     S
C791   N848    1.418   .     S
C791   C802    1.414   .     A
C791   N845    1.369   .     A
C792   H810    1.112   .     S
C792   N849    1.446   .     S
C792   H812    1.109   .     S
C792   H811    1.106   .     S
C793   H815    1.110   .     S
C793   N850    1.447   .     S
C793   H817    1.111   .     S
C793   H814    1.110   .     S
C794   N851    1.446   .     S
C794   H821    1.109   .     S
C794   H820    1.106   .     S
C794   H819    1.112   .     S
C795   N852    1.448   .     S
C795   H823    1.112   .     S
C795   H825    1.111   .     S
C795   H824    1.110   .     S
C796   H829    1.111   .     S
C796   H828    1.110   .     S
C796   N853    1.447   .     S
C796   H830    1.111   .     S
C797   H832    1.112   .     S
C797   N854    1.448   .     S
C797   H833    1.110   .     S
C797   H834    1.111   .     S
C798   H839    1.111   .     S
C798   H837    1.111   .     S
C798   N846    1.447   .     S
C798   H836    1.110   .     S
C799   C803    1.415   .     A
C799   N847    1.384   .     A
C799   N849    1.414   .     S
C800   C804    1.414   .     A
C800   N845    1.369   .     A
C800   N850    1.418   .     S
C801   N847    1.384   .     A
C801   N851    1.414   .     S
C802   H840    1.083   .     S
C803   H841    1.083   .     S
C804   H842    1.083   .     S
H809   N849    1.031   .     S
H813   N850    1.031   .     S
H818   N851    1.031   .     S
H822   N852    1.032   .     S
H826   N853    1.032   .     S
H831   N854    1.032   .     S
H835   N846    1.032   .     S
H844   N848    1.031   .     S
N845   Zn864   2.018   .     S
N847   Zn863   2.018   .     S
O855   Zn863   2.004   .     S
O856   Zn864   2.004   .     S
O857   Zn863   2.004   .     S
O858   Zn864   2.004   .     S
O859   Zn863   1.949   .     S
O860   Zn864   1.949   .     S
O861   Zn863   1.949   .     S
O862   Zn864   1.949   .     S
C865   O951    1.293   .     A
C865   O954    1.294   .     A
C865   C882    1.452   .     S
C866   C870    1.396   .     A
C866   C897    1.415   .     A
C866   H939    1.083   .     S
C867   C871    1.365   .     S
C867   O955    1.280   .     A
C867   O958    1.280   .     A
C868   C872    1.365   .     S
C868   O957    1.280   .     A
C868   O956    1.280   .     A
C869   C900    1.406   .     A
C869   C898    1.406   .     A
C869   C1062   1.511   1_545 S
C870   C899    1.396   .     A
C870   C1061   1.511   .     S
C872   C103    1.165   1_556 S
C873   C878    1.380   .     A
C873   C884    1.388   .     A
C873   H901    1.085   .     S
C874   C879    1.397   .     A
C874   C885    1.390   .     A
C874   H912    1.082   .     S
C875   H923    1.085   .     S
C875   C885    1.388   .     A
C875   C880    1.380   .     A
C876   O952    1.294   .     A
C876   O953    1.293   .     A
C876   C883    1.452   .     S
C877   H934    1.082   .     S
C877   C884    1.390   .     A
C877   C881    1.397   .     A
C878   C882    1.413   .     A
C878   N948    1.422   .     S
C879   C883    1.420   .     A
C879   N949    1.435   .     S
C880   N950    1.422   .     S
C880   C883    1.413   .     A
C881   C882    1.420   .     A
C881   N942    1.435   .     S
C885   C788    1.434   1_655 S
C886   H902    1.110   .     S
C886   H904    1.111   .     S
C886   N944    1.447   .     S
C886   H903    1.110   .     S
C887   N944    1.418   .     S
C887   C898    1.414   .     A
C887   N941    1.369   .     A
C888   H906    1.112   .     S
C888   N945    1.446   .     S
C888   H908    1.109   .     S
C888   H907    1.106   .     S
C889   H911    1.110   .     S
C889   N946    1.447   .     S
C889   H913    1.111   .     S
C889   H910    1.110   .     S
C890   N947    1.446   .     S
C890   H917    1.109   .     S
C890   H916    1.106   .     S
C890   H915    1.112   .     S
C891   N948    1.448   .     S
C891   H919    1.112   .     S
C891   H921    1.111   .     S
C891   H920    1.110   .     S
C892   H925    1.111   .     S
C892   H924    1.110   .     S
C892   N949    1.447   .     S
C892   H926    1.111   .     S
C893   H928    1.112   .     S
C893   N950    1.448   .     S
C893   H929    1.110   .     S
C893   H930    1.111   .     S
C894   H935    1.111   .     S
C894   H933    1.111   .     S
C894   N942    1.447   .     S
C894   H932    1.110   .     S
C895   C899    1.415   .     A
C895   N943    1.384   .     A
C895   N945    1.414   .     S
C896   C900    1.414   .     A
C896   N941    1.369   .     A
C896   N946    1.418   .     S
C897   N943    1.384   .     A
C897   N947    1.414   .     S
C898   H936    1.083   .     S
C899   H937    1.083   .     S
C900   H938    1.083   .     S
H905   N945    1.031   .     S
H909   N946    1.031   .     S
H914   N947    1.031   .     S
H918   N948    1.032   .     S
H922   N949    1.032   .     S
H927   N950    1.032   .     S
H931   N942    1.032   .     S
H940   N944    1.031   .     S
N941   Zn960   2.018   .     S
N943   Zn959   2.018   .     S
O951   Zn959   2.004   .     S
O952   Zn960   2.004   .     S
O953   Zn959   2.004   .     S
O954   Zn960   2.004   .     S
O955   Zn959   1.949   .     S
O956   Zn960   1.949   .     S
O957   Zn959   1.949   .     S
O958   Zn960   1.949   .     S
C961   O1047   1.293   .     A
C961   O1050   1.294   .     A
C961   C978    1.452   .     S
C962   C966    1.396   .     A
C962   C993    1.415   .     A
C962   H1035   1.083   .     S
C963   C967    1.365   .     S
C963   O1051   1.280   .     A
C963   O1054   1.280   .     A
C964   C968    1.365   .     S
C964   O1053   1.280   .     A
C964   O1052   1.280   .     A
C965   C996    1.406   .     A
C965   C994    1.406   .     A
C966   C995    1.396   .     A
C966   C773    1.511   1_565 S
C968   C199    1.165   1_556 S
C969   C974    1.380   .     A
C969   C980    1.388   .     A
C969   H997    1.085   .     S
C970   C975    1.397   .     A
C970   C981    1.390   .     A
C970   H1008   1.082   .     S
C971   H1019   1.085   .     S
C971   C981    1.388   .     A
C971   C976    1.380   .     A
C972   O1048   1.294   .     A
C972   O1049   1.293   .     A
C972   C979    1.452   .     S
C973   H1030   1.082   .     S
C973   C980    1.390   .     A
C973   C977    1.397   .     A
C974   C978    1.413   .     A
C974   N1044   1.422   .     S
C975   C979    1.420   .     A
C975   N1045   1.435   .     S
C976   N1046   1.422   .     S
C976   C979    1.413   .     A
C977   C978    1.420   .     A
C977   N1038   1.435   .     S
C980   C1077   1.434   1_455 S
C981   C1076   1.434   .     S
C982   H998    1.110   .     S
C982   H1000   1.111   .     S
C982   N1040   1.447   .     S
C982   H999    1.110   .     S
C983   N1040   1.418   .     S
C983   C994    1.414   .     A
C983   N1037   1.369   .     A
C984   H1002   1.112   .     S
C984   N1041   1.446   .     S
C984   H1004   1.109   .     S
C984   H1003   1.106   .     S
C985   H1007   1.110   .     S
C985   N1042   1.447   .     S
C985   H1009   1.111   .     S
C985   H1006   1.110   .     S
C986   N1043   1.446   .     S
C986   H1013   1.109   .     S
C986   H1012   1.106   .     S
C986   H1011   1.112   .     S
C987   N1044   1.448   .     S
C987   H1015   1.112   .     S
C987   H1017   1.111   .     S
C987   H1016   1.110   .     S
C988   H1021   1.111   .     S
C988   H1020   1.110   .     S
C988   N1045   1.447   .     S
C988   H1022   1.111   .     S
C989   H1024   1.112   .     S
C989   N1046   1.448   .     S
C989   H1025   1.110   .     S
C989   H1026   1.111   .     S
C990   H1031   1.111   .     S
C990   H1029   1.111   .     S
C990   N1038   1.447   .     S
C990   H1028   1.110   .     S
C991   C995    1.415   .     A
C991   N1039   1.384   .     A
C991   N1041   1.414   .     S
C992   C996    1.414   .     A
C992   N1037   1.369   .     A
C992   N1042   1.418   .     S
C993   N1039   1.384   .     A
C993   N1043   1.414   .     S
C994   H1032   1.083   .     S
C995   H1033   1.083   .     S
C996   H1034   1.083   .     S
H1001  N1041   1.031   .     S
H1005  N1042   1.031   .     S
H1010  N1043   1.031   .     S
H1014  N1044   1.032   .     S
H1018  N1045   1.032   .     S
H1023  N1046   1.032   .     S
H1027  N1038   1.032   .     S
H1036  N1040   1.031   .     S
N1037  Zn1056  2.018   .     S
N1039  Zn1055  2.018   .     S
O1047  Zn1055  2.004   .     S
O1048  Zn1056  2.004   .     S
O1049  Zn1055  2.004   .     S
O1050  Zn1056  2.004   .     S
O1051  Zn1055  1.949   .     S
O1052  Zn1056  1.949   .     S
O1053  Zn1055  1.949   .     S
O1054  Zn1056  1.949   .     S
C1057  O1143   1.293   .     A
C1057  O1146   1.294   .     A
C1057  C1074   1.452   .     S
C1058  C1062   1.396   .     A
C1058  C1089   1.415   .     A
C1058  H1131   1.083   .     S
C1059  C1063   1.365   .     S
C1059  O1147   1.280   .     A
C1059  O1150   1.280   .     A
C1060  C1064   1.365   .     S
C1060  O1149   1.280   .     A
C1060  O1148   1.280   .     A
C1061  C1092   1.406   .     A
C1061  C1090   1.406   .     A
C1062  C1091   1.396   .     A
C1062  C869    1.511   1_565 S
C1064  C295    1.165   1_556 S
C1065  C1070   1.380   .     A
C1065  C1076   1.388   .     A
C1065  H1093   1.085   .     S
C1066  C1071   1.397   .     A
C1066  C1077   1.390   .     A
C1066  H1104   1.082   .     S
C1067  H1115   1.085   .     S
C1067  C1077   1.388   .     A
C1067  C1072   1.380   .     A
C1068  O1144   1.294   .     A
C1068  O1145   1.293   .     A
C1068  C1075   1.452   .     S
C1069  H1126   1.082   .     S
C1069  C1076   1.390   .     A
C1069  C1073   1.397   .     A
C1070  C1074   1.413   .     A
C1070  N1140   1.422   .     S
C1071  C1075   1.420   .     A
C1071  N1141   1.435   .     S
C1072  N1142   1.422   .     S
C1072  C1075   1.413   .     A
C1073  C1074   1.420   .     A
C1073  N1134   1.435   .     S
C1077  C980    1.434   1_655 S
C1078  H1094   1.110   .     S
C1078  H1096   1.111   .     S
C1078  N1136   1.447   .     S
C1078  H1095   1.110   .     S
C1079  N1136   1.418   .     S
C1079  C1090   1.414   .     A
C1079  N1133   1.369   .     A
C1080  H1098   1.112   .     S
C1080  N1137   1.446   .     S
C1080  H1100   1.109   .     S
C1080  H1099   1.106   .     S
C1081  H1103   1.110   .     S
C1081  N1138   1.447   .     S
C1081  H1105   1.111   .     S
C1081  H1102   1.110   .     S
C1082  N1139   1.446   .     S
C1082  H1109   1.109   .     S
C1082  H1108   1.106   .     S
C1082  H1107   1.112   .     S
C1083  N1140   1.448   .     S
C1083  H1111   1.112   .     S
C1083  H1113   1.111   .     S
C1083  H1112   1.110   .     S
C1084  H1117   1.111   .     S
C1084  H1116   1.110   .     S
C1084  N1141   1.447   .     S
C1084  H1118   1.111   .     S
C1085  H1120   1.112   .     S
C1085  N1142   1.448   .     S
C1085  H1121   1.110   .     S
C1085  H1122   1.111   .     S
C1086  H1127   1.111   .     S
C1086  H1125   1.111   .     S
C1086  N1134   1.447   .     S
C1086  H1124   1.110   .     S
C1087  C1091   1.415   .     A
C1087  N1135   1.384   .     A
C1087  N1137   1.414   .     S
C1088  C1092   1.414   .     A
C1088  N1133   1.369   .     A
C1088  N1138   1.418   .     S
C1089  N1135   1.384   .     A
C1089  N1139   1.414   .     S
C1090  H1128   1.083   .     S
C1091  H1129   1.083   .     S
C1092  H1130   1.083   .     S
H1097  N1137   1.031   .     S
H1101  N1138   1.031   .     S
H1106  N1139   1.031   .     S
H1110  N1140   1.032   .     S
H1114  N1141   1.032   .     S
H1119  N1142   1.032   .     S
H1123  N1134   1.032   .     S
H1132  N1136   1.031   .     S
N1133  Zn1152  2.018   .     S
N1135  Zn1151  2.018   .     S
O1143  Zn1151  2.004   .     S
O1144  Zn1152  2.004   .     S
O1145  Zn1151  2.004   .     S
O1146  Zn1152  2.004   .     S
O1147  Zn1151  1.949   .     S
O1148  Zn1152  1.949   .     S
O1149  Zn1151  1.949   .     S
O1150  Zn1152  1.949   .     S
