data_str_m1_o1_o17_pcu_sym.101
_audit_creation_date              2020-01-03
_audit_creation_method            'Materials Studio'
_symmetry_space_group_name_H-M    'P1'
_symmetry_Int_Tables_number       1
_symmetry_cell_setting            triclinic
loop_
_symmetry_equiv_pos_as_xyz
  x,y,z
_cell_length_a                    36.7355
_cell_length_b                    36.6865
_cell_length_c                    34.3465
_cell_angle_alpha                 90.1562
_cell_angle_beta                  90.0819
_cell_angle_gamma                 90.3562
loop_
_atom_site_label
_atom_site_type_symbol
_atom_site_fract_x
_atom_site_fract_y
_atom_site_fract_z
_atom_site_U_iso_or_equiv
_atom_site_adp_type
_atom_site_occupancy
C1     C     0.01010   0.28269   0.41776   0.00000  Uiso   1.00
C2     C     0.48443   0.22051   0.58194   0.00000  Uiso   1.00
C3     C     0.21808   0.48905   0.41768   0.00000  Uiso   1.00
C4     C     0.28015   0.01327   0.58218   0.00000  Uiso   1.00
C5     C     0.48617   0.21994   0.41785   0.00000  Uiso   1.00
C6     C     0.01323   0.28116   0.58220   0.00000  Uiso   1.00
C7     C     0.28000   0.01484   0.41798   0.00000  Uiso   1.00
C8     C     0.21752   0.48911   0.58203   0.00000  Uiso   1.00
C9     C     0.26023   0.03244   0.91781   0.00000  Uiso   1.00
C10    C     0.23574   0.46994   0.08205   0.00000  Uiso   1.00
C11    C     0.46838   0.23731   0.91777   0.00000  Uiso   1.00
C12    C     0.03061   0.26214   0.08212   0.00000  Uiso   1.00
C13    C     0.23720   0.46934   0.91782   0.00000  Uiso   1.00
C14    C     0.26157   0.03191   0.08224   0.00000  Uiso   1.00
C15    C     0.02980   0.26425   0.91800   0.00000  Uiso   1.00
C16    C     0.46714   0.24042   0.08229   0.00000  Uiso   1.00
C17    C     0.49943   0.25071   0.39780   0.00000  Uiso   1.00
C18    C     0.49964   0.25043   0.60212   0.00000  Uiso   1.00
C19    C     0.24956   0.00074   0.39782   0.00000  Uiso   1.00
C20    C     0.24928   0.00018   0.60214   0.00000  Uiso   1.00
C21    C     0.24965   0.00046   0.89779   0.00000  Uiso   1.00
C22    C     0.24955   0.00055   0.10218   0.00000  Uiso   1.00
C23    C     0.49937   0.25025   0.89784   0.00000  Uiso   1.00
C24    C     0.49933   0.25032   0.10222   0.00000  Uiso   1.00
C25    C     0.46724   0.19200   0.47930   0.00000  Uiso   1.00
C26    C     0.02138   0.31403   0.52064   0.00000  Uiso   1.00
C27    C     0.31009   0.02917   0.48014   0.00000  Uiso   1.00
C28    C     0.18592   0.47858   0.51979   0.00000  Uiso   1.00
C29    C     0.02228   0.31396   0.47995   0.00000  Uiso   1.00
C30    C     0.46987   0.19044   0.51976   0.00000  Uiso   1.00
C31    C     0.18524   0.48161   0.47922   0.00000  Uiso   1.00
C32    C     0.30890   0.03125   0.52073   0.00000  Uiso   1.00
C33    C     0.22004   0.44040   0.97945   0.00000  Uiso   1.00
C34    C     0.26937   0.06453   0.02053   0.00000  Uiso   1.00
C35    C     0.06055   0.27698   0.98003   0.00000  Uiso   1.00
C36    C     0.43582   0.22828   0.02019   0.00000  Uiso   1.00
C37    C     0.27177   0.06386   0.97995   0.00000  Uiso   1.00
C38    C     0.22248   0.43928   0.01997   0.00000  Uiso   1.00
C39    C     0.43566   0.22920   0.97949   0.00000  Uiso   1.00
C40    C     0.05948   0.27928   0.02053   0.00000  Uiso   1.00
C41    C     0.24997   0.00012   0.35565   0.00000  Uiso   1.00
C42    C     0.24974   0.49998   0.64434   0.00000  Uiso   1.00
C43    C     0.49995   0.25010   0.35563   0.00000  Uiso   1.00
C44    C     0.49995   0.25013   0.64434   0.00000  Uiso   1.00
C45    C     0.49973   0.25005   0.85565   0.00000  Uiso   1.00
C46    C     0.49985   0.25001   0.14437   0.00000  Uiso   1.00
C47    C     0.24998   0.00004   0.85563   0.00000  Uiso   1.00
C48    C     0.24994   0.00020   0.14436   0.00000  Uiso   1.00
C49    C     0.17998   0.07006   0.25000   0.00000  Uiso   1.00
C50    C     0.31988   0.42969   0.75031   0.00000  Uiso   1.00
C51    C     0.42962   0.18022   0.24937   0.00000  Uiso   1.00
C52    C     0.06993   0.32000   0.75012   0.00000  Uiso   1.00
C53    C     0.32011   0.42989   0.24999   0.00000  Uiso   1.00
C54    C     0.18003   0.06999   0.74998   0.00000  Uiso   1.00
C55    C     0.06978   0.32038   0.25060   0.00000  Uiso   1.00
C56    C     0.43004   0.18005   0.74995   0.00000  Uiso   1.00
C57    C     0.17953   0.43032   0.74930   0.00000  Uiso   1.00
C58    C     0.31992   0.07001   0.25001   0.00000  Uiso   1.00
C59    C     0.43000   0.32009   0.75000   0.00000  Uiso   1.00
C60    C     0.07009   0.17990   0.24999   0.00000  Uiso   1.00
C61    C     0.31976   0.07039   0.75059   0.00000  Uiso   1.00
C62    C     0.18001   0.43008   0.25001   0.00000  Uiso   1.00
C63    C     0.07014   0.17992   0.75007   0.00000  Uiso   1.00
C64    C     0.43002   0.31997   0.24998   0.00000  Uiso   1.00
C65    C     0.11526   0.41215   0.24307   0.00000  Uiso   1.00
C66    C     0.38289   0.09109   0.76526   0.00000  Uiso   1.00
C67    C     0.09573   0.12208   0.22389   0.00000  Uiso   1.00
C68    C     0.40268   0.37589   0.77859   0.00000  Uiso   1.00
C69    C     0.38360   0.08941   0.24005   0.00000  Uiso   1.00
C70    C     0.11540   0.41111   0.76142   0.00000  Uiso   1.00
C71    C     0.41148   0.38431   0.24197   0.00000  Uiso   1.00
C72    C     0.08962   0.11576   0.76130   0.00000  Uiso   1.00
C73    C     0.11568   0.08842   0.75735   0.00000  Uiso   1.00
C74    C     0.38410   0.41035   0.23811   0.00000  Uiso   1.00
C75    C     0.08793   0.38481   0.75800   0.00000  Uiso   1.00
C76    C     0.40878   0.11717   0.23409   0.00000  Uiso   1.00
C77    C     0.37768   0.40424   0.77652   0.00000  Uiso   1.00
C78    C     0.12424   0.09733   0.22164   0.00000  Uiso   1.00
C79    C     0.41072   0.11613   0.75904   0.00000  Uiso   1.00
C80    C     0.08896   0.38471   0.23959   0.00000  Uiso   1.00
C81    C     0.36540   0.16206   0.74301   0.00000  Uiso   1.00
C82    C     0.13272   0.34123   0.26602   0.00000  Uiso   1.00
C83    C     0.34465   0.37082   0.72577   0.00000  Uiso   1.00
C84    C     0.15269   0.12591   0.27830   0.00000  Uiso   1.00
C85    C     0.13352   0.33963   0.74036   0.00000  Uiso   1.00
C86    C     0.36532   0.16117   0.26024   0.00000  Uiso   1.00
C87    C     0.16168   0.13452   0.74277   0.00000  Uiso   1.00
C88    C     0.33964   0.36580   0.26164   0.00000  Uiso   1.00
C89    C     0.36568   0.33842   0.25772   0.00000  Uiso   1.00
C90    C     0.13438   0.16074   0.73923   0.00000  Uiso   1.00
C91    C     0.33791   0.13482   0.25693   0.00000  Uiso   1.00
C92    C     0.15832   0.36756   0.73377   0.00000  Uiso   1.00
C93    C     0.12788   0.15439   0.27608   0.00000  Uiso   1.00
C94    C     0.37355   0.34671   0.72270   0.00000  Uiso   1.00
C95    C     0.16050   0.36638   0.26008   0.00000  Uiso   1.00
C96    C     0.33896   0.13472   0.73960   0.00000  Uiso   1.00
C97    C     0.48325   0.22121   0.45863   0.00000  Uiso   1.00
C98    C     0.01120   0.28222   0.54127   0.00000  Uiso   1.00
C99    C     0.27961   0.01601   0.45898   0.00000  Uiso   1.00
C100   C     0.21714   0.48989   0.54099   0.00000  Uiso   1.00
C101   C     0.01032   0.28289   0.45884   0.00000  Uiso   1.00
C102   C     0.48390   0.22062   0.54094   0.00000  Uiso   1.00
C103   C     0.21716   0.49106   0.45860   0.00000  Uiso   1.00
C104   C     0.27915   0.01617   0.54136   0.00000  Uiso   1.00
C105   C     0.23456   0.47036   0.95867   0.00000  Uiso   1.00
C106   C     0.25974   0.03269   0.04129   0.00000  Uiso   1.00
C107   C     0.02976   0.26452   0.95897   0.00000  Uiso   1.00
C108   C     0.46703   0.23986   0.04123   0.00000  Uiso   1.00
C109   C     0.26020   0.03266   0.95885   0.00000  Uiso   1.00
C110   C     0.23502   0.47008   0.04105   0.00000  Uiso   1.00
C111   C     0.46749   0.23904   0.95875   0.00000  Uiso   1.00
C112   C     0.02954   0.26481   0.04131   0.00000  Uiso   1.00
C113   C     0.09738   0.34914   0.25218   0.00000  Uiso   1.00
C114   C     0.40178   0.15233   0.75020   0.00000  Uiso   1.00
C115   C     0.15199   0.09809   0.24998   0.00000  Uiso   1.00
C116   C     0.34765   0.40125   0.75091   0.00000  Uiso   1.00
C117   C     0.40087   0.15262   0.24777   0.00000  Uiso   1.00
C118   C     0.09748   0.34845   0.74987   0.00000  Uiso   1.00
C119   C     0.34827   0.40169   0.24994   0.00000  Uiso   1.00
C120   C     0.15210   0.09797   0.74990   0.00000  Uiso   1.00
C121   C     0.09837   0.15178   0.75015   0.00000  Uiso   1.00
C122   C     0.40206   0.34790   0.24991   0.00000  Uiso   1.00
C123   C     0.15073   0.40277   0.74807   0.00000  Uiso   1.00
C124   C     0.34751   0.09840   0.24937   0.00000  Uiso   1.00
C125   C     0.40187   0.34800   0.75032   0.00000  Uiso   1.00
C126   C     0.09820   0.15181   0.24999   0.00000  Uiso   1.00
C127   C     0.34744   0.09909   0.75188   0.00000  Uiso   1.00
C128   C     0.15160   0.40251   0.25073   0.00000  Uiso   1.00
C129   C     0.49719   0.25182   0.47932   0.00000  Uiso   1.00
C130   C     0.49748   0.25153   0.52054   0.00000  Uiso   1.00
C131   C     0.24833   0.00342   0.47937   0.00000  Uiso   1.00
C132   C     0.24818   0.00320   0.52061   0.00000  Uiso   1.00
C133   C     0.24739   0.00149   0.97934   0.00000  Uiso   1.00
C134   C     0.24738   0.00142   0.02059   0.00000  Uiso   1.00
C135   C     0.49853   0.25189   0.97944   0.00000  Uiso   1.00
C136   C     0.49839   0.25207   0.02068   0.00000  Uiso   1.00
O137   O     0.25000  -0.00000   0.25000   0.00000  Uiso   1.00
O138   O     0.25000  -0.00000   0.75000   0.00000  Uiso   1.00
O139   O     0.00000   0.25000   0.25000   0.00000  Uiso   1.00
O140   O     0.00000   0.25000   0.75000   0.00000  Uiso   1.00
O141   O     0.25000   0.46964   0.33755   0.00000  Uiso   1.00
O142   O     0.25000   0.03036   0.66245   0.00000  Uiso   1.00
O143   O     0.03037   0.25000   0.33755   0.00000  Uiso   1.00
O144   O     0.46964   0.25000   0.66245   0.00000  Uiso   1.00
O145   O     0.25000   0.03036   0.33755   0.00000  Uiso   1.00
O146   O     0.25000   0.46964   0.66245   0.00000  Uiso   1.00
O147   O     0.46964   0.25000   0.33755   0.00000  Uiso   1.00
O148   O     0.03037   0.25000   0.66245   0.00000  Uiso   1.00
O149   O     0.00000   0.21964   0.83755   0.00000  Uiso   1.00
O150   O     0.00000   0.28037   0.16245   0.00000  Uiso   1.00
O151   O     0.28037  -0.00000   0.83755   0.00000  Uiso   1.00
O152   O     0.21964  -0.00000   0.16245   0.00000  Uiso   1.00
O153   O     0.00000   0.28037   0.83755   0.00000  Uiso   1.00
O154   O     0.00000   0.21964   0.16245   0.00000  Uiso   1.00
O155   O     0.21964  -0.00000   0.83755   0.00000  Uiso   1.00
O156   O     0.28037  -0.00000   0.16245   0.00000  Uiso   1.00
O157   O     0.20725   0.07308   0.27302   0.00000  Uiso   1.00
O158   O     0.29276   0.42693   0.72698   0.00000  Uiso   1.00
O159   O     0.42693   0.20725   0.27302   0.00000  Uiso   1.00
O160   O     0.07308   0.29276   0.72698   0.00000  Uiso   1.00
O161   O     0.29276   0.42693   0.27302   0.00000  Uiso   1.00
O162   O     0.20725   0.07308   0.72698   0.00000  Uiso   1.00
O163   O     0.07308   0.29276   0.27302   0.00000  Uiso   1.00
O164   O     0.42693   0.20725   0.72698   0.00000  Uiso   1.00
O165   O     0.20725   0.42693   0.72698   0.00000  Uiso   1.00
O166   O     0.29276   0.07308   0.27302   0.00000  Uiso   1.00
O167   O     0.42693   0.29276   0.72698   0.00000  Uiso   1.00
O168   O     0.07308   0.20725   0.27302   0.00000  Uiso   1.00
O169   O     0.29276   0.07308   0.72698   0.00000  Uiso   1.00
O170   O     0.20725   0.42693   0.27302   0.00000  Uiso   1.00
O171   O     0.07308   0.20725   0.72698   0.00000  Uiso   1.00
O172   O     0.42693   0.29276   0.27302   0.00000  Uiso   1.00
O173   O     0.45725   0.32308   0.77302   0.00000  Uiso   1.00
O174   O     0.04276   0.17693   0.22698   0.00000  Uiso   1.00
O175   O     0.17693   0.45725   0.77302   0.00000  Uiso   1.00
O176   O     0.32308   0.04275   0.22698   0.00000  Uiso   1.00
O177   O     0.04276   0.17693   0.77302   0.00000  Uiso   1.00
O178   O     0.45725   0.32308   0.22698   0.00000  Uiso   1.00
O179   O     0.32308   0.04275   0.77302   0.00000  Uiso   1.00
O180   O     0.17693   0.45725   0.22698   0.00000  Uiso   1.00
O181   O     0.45725   0.17693   0.22698   0.00000  Uiso   1.00
O182   O     0.04276   0.32308   0.77302   0.00000  Uiso   1.00
O183   O     0.17693   0.04276   0.22698   0.00000  Uiso   1.00
O184   O     0.32308   0.45725   0.77302   0.00000  Uiso   1.00
O185   O     0.04276   0.32308   0.22698   0.00000  Uiso   1.00
O186   O     0.45725   0.17693   0.77302   0.00000  Uiso   1.00
O187   O     0.32308   0.45725   0.22698   0.00000  Uiso   1.00
O188   O     0.17693   0.04276   0.77302   0.00000  Uiso   1.00
Zn189  Zn    0.20660   0.00000   0.21735   0.00000  Uiso   1.00
Zn190  Zn    0.29341  -0.00000   0.78265   0.00000  Uiso   1.00
Zn191  Zn    0.00000   0.20660   0.21735   0.00000  Uiso   1.00
Zn192  Zn    0.00000   0.29341   0.78265   0.00000  Uiso   1.00
Zn193  Zn    0.29341   0.00000   0.21735   0.00000  Uiso   1.00
Zn194  Zn    0.20660  -0.00000   0.78265   0.00000  Uiso   1.00
Zn195  Zn    0.00000   0.29341   0.21735   0.00000  Uiso   1.00
Zn196  Zn    0.00000   0.20660   0.78265   0.00000  Uiso   1.00
Zn197  Zn    0.45660   0.25000   0.71735   0.00000  Uiso   1.00
Zn198  Zn    0.04341   0.25000   0.28265   0.00000  Uiso   1.00
Zn199  Zn    0.25000   0.45660   0.71735   0.00000  Uiso   1.00
Zn200  Zn    0.25000   0.04341   0.28265   0.00000  Uiso   1.00
Zn201  Zn    0.04341   0.25000   0.71735   0.00000  Uiso   1.00
Zn202  Zn    0.45660   0.25000   0.28265   0.00000  Uiso   1.00
Zn203  Zn    0.25000   0.04341   0.71735   0.00000  Uiso   1.00
Zn204  Zn    0.25000   0.45660   0.28265   0.00000  Uiso   1.00
O205   O     0.44984   0.16350   0.46028   0.00000  Uiso   1.00
C206   C     0.41232   0.17133   0.45744   0.00000  Uiso   1.00
H207   H     0.40795   0.19264   0.43496   0.00000  Uiso   1.00
H208   H     0.40090   0.18098   0.48572   0.00000  Uiso   1.00
C209   C     0.39193   0.13658   0.44562   0.00000  Uiso   1.00
H210   H     0.40400   0.12530   0.41851   0.00000  Uiso   1.00
H211   H     0.39480   0.11606   0.46914   0.00000  Uiso   1.00
C212   C     0.35155   0.14372   0.43879   0.00000  Uiso   1.00
H213   H     0.33886   0.15507   0.46549   0.00000  Uiso   1.00
H214   H     0.33755   0.11773   0.43120   0.00000  Uiso   1.00
H215   H     0.34793   0.16314   0.41437   0.00000  Uiso   1.00
O216   O     0.03081   0.34593   0.53997   0.00000  Uiso   1.00
C217   C     0.49928   0.36745   0.54442   0.00000  Uiso   1.00
H218   H     0.47633   0.35128   0.55686   0.00000  Uiso   1.00
H219   H     0.49073   0.37870   0.51579   0.00000  Uiso   1.00
C220   C     0.00773   0.39908   0.57208   0.00000  Uiso   1.00
H221   H     0.01795   0.38825   0.60023   0.00000  Uiso   1.00
H222   H     0.02924   0.41663   0.55912   0.00000  Uiso   1.00
C223   C     0.47401   0.42208   0.57977   0.00000  Uiso   1.00
H224   H     0.46315   0.43312   0.55204   0.00000  Uiso   1.00
H225   H     0.48129   0.44527   0.59918   0.00000  Uiso   1.00
H226   H     0.45262   0.40540   0.59422   0.00000  Uiso   1.00
O227   O     0.34070   0.04269   0.46147   0.00000  Uiso   1.00
C228   C     0.36759   0.01530   0.46046   0.00000  Uiso   1.00
H229   H     0.35741   0.49090   0.44427   0.00000  Uiso   1.00
H230   H     0.37561   0.00698   0.49043   0.00000  Uiso   1.00
C231   C     0.40126   0.03030   0.43974   0.00000  Uiso   1.00
H232   H     0.39337   0.04051   0.41050   0.00000  Uiso   1.00
H233   H     0.41271   0.05344   0.45682   0.00000  Uiso   1.00
C234   C     0.43049   0.00125   0.43511   0.00000  Uiso   1.00
H235   H     0.43901   0.49088   0.46407   0.00000  Uiso   1.00
H236   H     0.45463   0.01323   0.42039   0.00000  Uiso   1.00
H237   H     0.42005   0.47822   0.41713   0.00000  Uiso   1.00
O238   O     0.15433   0.46756   0.53851   0.00000  Uiso   1.00
C239   C     0.15105   0.42920   0.53586   0.00000  Uiso   1.00
H240   H     0.17369   0.41581   0.55167   0.00000  Uiso   1.00
H241   H     0.15165   0.41971   0.50509   0.00000  Uiso   1.00
C242   C     0.11468   0.41684   0.55314   0.00000  Uiso   1.00
H243   H     0.09212   0.43059   0.53750   0.00000  Uiso   1.00
H244   H     0.11152   0.38696   0.54876   0.00000  Uiso   1.00
C245   C     0.11206   0.42529   0.59662   0.00000  Uiso   1.00
H246   H     0.13480   0.41228   0.61259   0.00000  Uiso   1.00
H247   H     0.08599   0.41445   0.60823   0.00000  Uiso   1.00
H248   H     0.11290   0.45519   0.60171   0.00000  Uiso   1.00
O249   O     0.03018   0.34651   0.46136   0.00000  Uiso   1.00
C250   C     0.06827   0.35061   0.45754   0.00000  Uiso   1.00
H251   H     0.07897   0.32975   0.43700   0.00000  Uiso   1.00
H252   H     0.08250   0.34773   0.48604   0.00000  Uiso   1.00
C253   C     0.07626   0.38878   0.44165   0.00000  Uiso   1.00
H254   H     0.05709   0.39501   0.41751   0.00000  Uiso   1.00
H255   H     0.07201   0.40915   0.46520   0.00000  Uiso   1.00
C256   C     0.11504   0.39221   0.42626   0.00000  Uiso   1.00
H257   H     0.13500   0.38278   0.44829   0.00000  Uiso   1.00
H258   H     0.12099   0.42106   0.41899   0.00000  Uiso   1.00
H259   H     0.11791   0.37595   0.39921   0.00000  Uiso   1.00
O260   O     0.45586   0.15983   0.53816   0.00000  Uiso   1.00
C261   C     0.48375   0.13387   0.54428   0.00000  Uiso   1.00
H262   H     0.47932   0.12191   0.57360   0.00000  Uiso   1.00
H263   H     0.01182   0.14579   0.54459   0.00000  Uiso   1.00
C264   C     0.48130   0.10317   0.51401   0.00000  Uiso   1.00
H265   H     0.45262   0.09365   0.51130   0.00000  Uiso   1.00
H266   H     0.49048   0.11346   0.48528   0.00000  Uiso   1.00
C267   C     0.00515   0.07093   0.52521   0.00000  Uiso   1.00
H268   H     0.03407   0.07969   0.52763   0.00000  Uiso   1.00
H269   H     0.00299   0.04943   0.50248   0.00000  Uiso   1.00
H270   H     0.49610   0.05925   0.55342   0.00000  Uiso   1.00
O271   O     0.15296   0.47407   0.45986   0.00000  Uiso   1.00
C272   C     0.13128   0.00576   0.45966   0.00000  Uiso   1.00
H273   H     0.14733   0.03023   0.45081   0.00000  Uiso   1.00
H274   H     0.11965   0.01057   0.48913   0.00000  Uiso   1.00
C275   C     0.10006   0.00048   0.43068   0.00000  Uiso   1.00
H276   H     0.11134   0.49406   0.40145   0.00000  Uiso   1.00
H277   H     0.08270   0.47722   0.44012   0.00000  Uiso   1.00
C278   C     0.07668   0.03460   0.42770   0.00000  Uiso   1.00
H279   H     0.06493   0.04152   0.45655   0.00000  Uiso   1.00
H280   H     0.05406   0.02965   0.40683   0.00000  Uiso   1.00
H281   H     0.09327   0.05796   0.41707   0.00000  Uiso   1.00
O282   O     0.33860   0.04630   0.53992   0.00000  Uiso   1.00
C283   C     0.33368   0.08436   0.54298   0.00000  Uiso   1.00
H284   H     0.30885   0.09056   0.56036   0.00000  Uiso   1.00
H285   H     0.33114   0.09698   0.51362   0.00000  Uiso   1.00
C286   C     0.36679   0.10105   0.56349   0.00000  Uiso   1.00
H287   H     0.36994   0.08846   0.59270   0.00000  Uiso   1.00
H288   H     0.39166   0.09524   0.54622   0.00000  Uiso   1.00
C289   C     0.36300   0.14221   0.56830   0.00000  Uiso   1.00
H290   H     0.36007   0.15544   0.53944   0.00000  Uiso   1.00
H291   H     0.38766   0.15342   0.58286   0.00000  Uiso   1.00
H292   H     0.33888   0.14862   0.58649   0.00000  Uiso   1.00
O293   O     0.20484   0.41060   0.96056   0.00000  Uiso   1.00
C294   C     0.16689   0.41596   0.95732   0.00000  Uiso   1.00
H295   H     0.16122   0.43907   0.93727   0.00000  Uiso   1.00
H296   H     0.15442   0.42176   0.98626   0.00000  Uiso   1.00
C297   C     0.14935   0.38130   0.94093   0.00000  Uiso   1.00
H298   H     0.16246   0.37405   0.91282   0.00000  Uiso   1.00
H299   H     0.15365   0.35863   0.96177   0.00000  Uiso   1.00
C300   C     0.10857   0.38607   0.93432   0.00000  Uiso   1.00
H301   H     0.09484   0.39329   0.96205   0.00000  Uiso   1.00
H302   H     0.09666   0.36016   0.92319   0.00000  Uiso   1.00
H303   H     0.10363   0.40782   0.91255   0.00000  Uiso   1.00
O304   O     0.27752   0.09683   0.03970   0.00000  Uiso   1.00
C305   C     0.24587   0.11853   0.04104   0.00000  Uiso   1.00
H306   H     0.22164   0.10239   0.05040   0.00000  Uiso   1.00
H307   H     0.24037   0.13037   0.01184   0.00000  Uiso   1.00
C308   C     0.25174   0.14958   0.07020   0.00000  Uiso   1.00
H309   H     0.25916   0.13812   0.09905   0.00000  Uiso   1.00
H310   H     0.27445   0.16729   0.06009   0.00000  Uiso   1.00
C311   C     0.21753   0.17259   0.07474   0.00000  Uiso   1.00
H312   H     0.20951   0.18443   0.04628   0.00000  Uiso   1.00
H313   H     0.22294   0.19519   0.09557   0.00000  Uiso   1.00
H314   H     0.19477   0.15567   0.08619   0.00000  Uiso   1.00
O315   O     0.09180   0.28891   0.96138   0.00000  Uiso   1.00
C316   C     0.11662   0.25967   0.95935   0.00000  Uiso   1.00
H317   H     0.10416   0.23586   0.94395   0.00000  Uiso   1.00
H318   H     0.12522   0.25115   0.98907   0.00000  Uiso   1.00
C319   C     0.15030   0.27203   0.93681   0.00000  Uiso   1.00
H320   H     0.14184   0.28275   0.90798   0.00000  Uiso   1.00
H321   H     0.16425   0.29425   0.95315   0.00000  Uiso   1.00
C322   C     0.17693   0.24076   0.93076   0.00000  Uiso   1.00
H323   H     0.18578   0.22962   0.95926   0.00000  Uiso   1.00
H324   H     0.20130   0.25086   0.91491   0.00000  Uiso   1.00
H325   H     0.16400   0.21869   0.91326   0.00000  Uiso   1.00
O326   O     0.40339   0.22027   0.03890   0.00000  Uiso   1.00
C327   C     0.39951   0.18211   0.04272   0.00000  Uiso   1.00
H328   H     0.42059   0.17145   0.06295   0.00000  Uiso   1.00
H329   H     0.40207   0.16792   0.01411   0.00000  Uiso   1.00
C330   C     0.36164   0.17398   0.05917   0.00000  Uiso   1.00
H331   H     0.35623   0.19224   0.08437   0.00000  Uiso   1.00
H332   H     0.34089   0.17946   0.03637   0.00000  Uiso   1.00
C333   C     0.35800   0.13457   0.07268   0.00000  Uiso   1.00
H334   H     0.36586   0.11542   0.04910   0.00000  Uiso   1.00
H335   H     0.32946   0.12893   0.08128   0.00000  Uiso   1.00
H336   H     0.37536   0.13010   0.09860   0.00000  Uiso   1.00
O337   O     0.28274   0.09547   0.96127   0.00000  Uiso   1.00
C338   C     0.32120   0.09671   0.96026   0.00000  Uiso   1.00
H339   H     0.33192   0.07443   0.94151   0.00000  Uiso   1.00
H340   H     0.33309   0.09375   0.98992   0.00000  Uiso   1.00
C341   C     0.33390   0.13353   0.94426   0.00000  Uiso   1.00
H342   H     0.32351   0.15569   0.96328   0.00000  Uiso   1.00
H343   H     0.36413   0.13473   0.94491   0.00000  Uiso   1.00
C344   C     0.32087   0.13976   0.90252   0.00000  Uiso   1.00
H345   H     0.32997   0.11731   0.88319   0.00000  Uiso   1.00
H346   H     0.33235   0.16578   0.89141   0.00000  Uiso   1.00
H347   H     0.29070   0.14144   0.90153   0.00000  Uiso   1.00
O348   O     0.21046   0.40805   0.03865   0.00000  Uiso   1.00
C349   C     0.23947   0.38297   0.04038   0.00000  Uiso   1.00
H350   H     0.26368   0.39540   0.05505   0.00000  Uiso   1.00
H351   H     0.24732   0.37388   0.01059   0.00000  Uiso   1.00
C352   C     0.22728   0.34966   0.06370   0.00000  Uiso   1.00
H353   H     0.21727   0.35859   0.09270   0.00000  Uiso   1.00
H354   H     0.20461   0.33571   0.04813   0.00000  Uiso   1.00
C355   C     0.25835   0.32275   0.06931   0.00000  Uiso   1.00
H356   H     0.26873   0.31336   0.04065   0.00000  Uiso   1.00
H357   H     0.24838   0.29869   0.08580   0.00000  Uiso   1.00
H358   H     0.28091   0.33572   0.08601   0.00000  Uiso   1.00
O359   O     0.40380   0.21963   0.96028   0.00000  Uiso   1.00
C360   C     0.38189   0.25097   0.95646   0.00000  Uiso   1.00
H361   H     0.39758   0.27411   0.94377   0.00000  Uiso   1.00
H362   H     0.37104   0.25937   0.98535   0.00000  Uiso   1.00
C363   C     0.34989   0.24219   0.92947   0.00000  Uiso   1.00
H364   H     0.36033   0.23216   0.90105   0.00000  Uiso   1.00
H365   H     0.33288   0.22039   0.94272   0.00000  Uiso   1.00
C366   C     0.32636   0.27567   0.92246   0.00000  Uiso   1.00
H367   H     0.31561   0.28626   0.95048   0.00000  Uiso   1.00
H368   H     0.30302   0.26816   0.90342   0.00000  Uiso   1.00
H369   H     0.34252   0.29738   0.90787   0.00000  Uiso   1.00
O370   O     0.08925   0.29453   0.03939   0.00000  Uiso   1.00
C371   C     0.08375   0.33250   0.04292   0.00000  Uiso   1.00
H372   H     0.06110   0.33796   0.06362   0.00000  Uiso   1.00
H373   H     0.07722   0.34506   0.01422   0.00000  Uiso   1.00
C374   C     0.11862   0.35024   0.05842   0.00000  Uiso   1.00
H375   H     0.12669   0.33697   0.08616   0.00000  Uiso   1.00
H376   H     0.14074   0.34627   0.03683   0.00000  Uiso   1.00
C377   C     0.11369   0.39098   0.06557   0.00000  Uiso   1.00
H378   H     0.10563   0.40486   0.03822   0.00000  Uiso   1.00
H379   H     0.13974   0.40305   0.07601   0.00000  Uiso   1.00
H380   H     0.09251   0.39558   0.08808   0.00000  Uiso   1.00
O381   O     0.10518   0.44814   0.23796   0.00000  Uiso   1.00
C382   C     0.10111   0.46441   0.27508   0.00000  Uiso   1.00
H383   H     0.12738   0.46444   0.29131   0.00000  Uiso   1.00
H384   H     0.08028   0.44954   0.29254   0.00000  Uiso   1.00
C385   C     0.08882   0.00382   0.27015   0.00000  Uiso   1.00
H386   H     0.10727   0.01801   0.24948   0.00000  Uiso   1.00
H387   H     0.06082   0.00403   0.25800   0.00000  Uiso   1.00
C388   C     0.08911   0.02434   0.30888   0.00000  Uiso   1.00
H389   H     0.07031   0.01108   0.32989   0.00000  Uiso   1.00
H390   H     0.08016   0.05286   0.30418   0.00000  Uiso   1.00
H391   H     0.11701   0.02491   0.32138   0.00000  Uiso   1.00
O392   O     0.39137   0.05809   0.78231   0.00000  Uiso   1.00
C393   C     0.38362   0.06002   0.82275   0.00000  Uiso   1.00
H394   H     0.37912   0.03174   0.83309   0.00000  Uiso   1.00
H395   H     0.35796   0.07497   0.82933   0.00000  Uiso   1.00
C396   C     0.41527   0.07720   0.84561   0.00000  Uiso   1.00
H397   H     0.44127   0.06529   0.83569   0.00000  Uiso   1.00
H398   H     0.41618   0.10704   0.84020   0.00000  Uiso   1.00
C399   C     0.41119   0.07085   0.88926   0.00000  Uiso   1.00
H400   H     0.38474   0.08149   0.89955   0.00000  Uiso   1.00
H401   H     0.43331   0.08532   0.90516   0.00000  Uiso   1.00
H402   H     0.41281   0.04128   0.89587   0.00000  Uiso   1.00
O403   O     0.06677   0.11838   0.19825   0.00000  Uiso   1.00
C404   C     0.04418   0.08875   0.20960   0.00000  Uiso   1.00
H405   H     0.01877   0.09997   0.22225   0.00000  Uiso   1.00
H406   H     0.05637   0.07049   0.23203   0.00000  Uiso   1.00
C407   C     0.03465   0.06581   0.17371   0.00000  Uiso   1.00
H408   H     0.02052   0.08310   0.15206   0.00000  Uiso   1.00
H409   H     0.05993   0.05557   0.15998   0.00000  Uiso   1.00
C410   C     0.01048   0.03329   0.18413   0.00000  Uiso   1.00
H411   H     0.02616   0.01301   0.20105   0.00000  Uiso   1.00
H412   H     0.00046   0.01995   0.15708   0.00000  Uiso   1.00
H413   H     0.48681   0.04222   0.20164   0.00000  Uiso   1.00
O414   O     0.42940   0.37733   0.80697   0.00000  Uiso   1.00
C415   C     0.41675   0.35856   0.84019   0.00000  Uiso   1.00
H416   H     0.40819   0.33018   0.83257   0.00000  Uiso   1.00
H417   H     0.39327   0.37312   0.85343   0.00000  Uiso   1.00
C418   C     0.44756   0.35678   0.87006   0.00000  Uiso   1.00
H419   H     0.47249   0.34609   0.85589   0.00000  Uiso   1.00
H420   H     0.45367   0.38462   0.88120   0.00000  Uiso   1.00
C421   C     0.43754   0.33209   0.90408   0.00000  Uiso   1.00
H422   H     0.41307   0.34260   0.91929   0.00000  Uiso   1.00
H423   H     0.46052   0.33104   0.92508   0.00000  Uiso   1.00
H424   H     0.43193   0.30406   0.89332   0.00000  Uiso   1.00
O425   O     0.39436   0.05358   0.23484   0.00000  Uiso   1.00
C426   C     0.39938   0.03689   0.27163   0.00000  Uiso   1.00
H427   H     0.39304   0.00741   0.26833   0.00000  Uiso   1.00
H428   H     0.38054   0.04727   0.29456   0.00000  Uiso   1.00
C429   C     0.43898   0.04085   0.28519   0.00000  Uiso   1.00
H430   H     0.45713   0.02665   0.26430   0.00000  Uiso   1.00
H431   H     0.44689   0.07010   0.28613   0.00000  Uiso   1.00
C432   C     0.44421   0.02484   0.32576   0.00000  Uiso   1.00
H433   H     0.42810   0.04046   0.34737   0.00000  Uiso   1.00
H434   H     0.47339   0.02654   0.33408   0.00000  Uiso   1.00
H435   H     0.43539   0.49585   0.32637   0.00000  Uiso   1.00
O436   O     0.10677   0.44605   0.77344   0.00000  Uiso   1.00
C437   C     0.10317   0.44623   0.81444   0.00000  Uiso   1.00
H438   H     0.12705   0.43309   0.82871   0.00000  Uiso   1.00
H439   H     0.07787   0.43160   0.82324   0.00000  Uiso   1.00
C440   C     0.10100   0.48564   0.82877   0.00000  Uiso   1.00
H441   H     0.12536   0.00100   0.81863   0.00000  Uiso   1.00
H442   H     0.07631   0.49873   0.81656   0.00000  Uiso   1.00
C443   C     0.09938   0.48757   0.87311   0.00000  Uiso   1.00
H444   H     0.07485   0.47298   0.88398   0.00000  Uiso   1.00
H445   H     0.09801   0.01650   0.88251   0.00000  Uiso   1.00
H446   H     0.12413   0.47522   0.88602   0.00000  Uiso   1.00
O447   O     0.44738   0.39484   0.23662   0.00000  Uiso   1.00
C448   C     0.46477   0.39952   0.27318   0.00000  Uiso   1.00
H449   H     0.48675   0.37896   0.27558   0.00000  Uiso   1.00
H450   H     0.44646   0.39583   0.29891   0.00000  Uiso   1.00
C451   C     0.48174   0.43763   0.27521   0.00000  Uiso   1.00
H452   H     0.00168   0.44116   0.25125   0.00000  Uiso   1.00
H453   H     0.46004   0.45827   0.27153   0.00000  Uiso   1.00
C454   C     0.00108   0.44398   0.31400   0.00000  Uiso   1.00
H455   H     0.48135   0.44230   0.33842   0.00000  Uiso   1.00
H456   H     0.01380   0.47149   0.31416   0.00000  Uiso   1.00
H457   H     0.02267   0.42332   0.31835   0.00000  Uiso   1.00
O458   O     0.05481   0.10650   0.77321   0.00000  Uiso   1.00
C459   C     0.05541   0.10073   0.81394   0.00000  Uiso   1.00
H460   H     0.06108   0.12688   0.82944   0.00000  Uiso   1.00
H461   H     0.07650   0.08052   0.82243   0.00000  Uiso   1.00
C462   C     0.01850   0.08606   0.82709   0.00000  Uiso   1.00
H463   H     0.49736   0.10707   0.82208   0.00000  Uiso   1.00
H464   H     0.01140   0.06139   0.80974   0.00000  Uiso   1.00
C465   C     0.01924   0.07610   0.87023   0.00000  Uiso   1.00
H466   H     0.04031   0.05518   0.87585   0.00000  Uiso   1.00
H467   H     0.49253   0.06467   0.87908   0.00000  Uiso   1.00
H468   H     0.02511   0.10067   0.88820   0.00000  Uiso   1.00
O469   O     0.10519   0.05242   0.76238   0.00000  Uiso   1.00
C470   C     0.10086   0.03517   0.72568   0.00000  Uiso   1.00
H471   H     0.12192   0.01368   0.72296   0.00000  Uiso   1.00
H472   H     0.10397   0.05380   0.70014   0.00000  Uiso   1.00
C473   C     0.06321   0.01729   0.72366   0.00000  Uiso   1.00
H474   H     0.06021   0.49714   0.74751   0.00000  Uiso   1.00
H475   H     0.04209   0.03850   0.72760   0.00000  Uiso   1.00
C476   C     0.05724   0.49800   0.68473   0.00000  Uiso   1.00
H477   H     0.05881   0.01786   0.66043   0.00000  Uiso   1.00
H478   H     0.02989   0.48500   0.68439   0.00000  Uiso   1.00
H479   H     0.07812   0.47661   0.68033   0.00000  Uiso   1.00
O480   O     0.39324   0.44518   0.22605   0.00000  Uiso   1.00
C481   C     0.39898   0.44446   0.18533   0.00000  Uiso   1.00
H482   H     0.37277   0.43921   0.16989   0.00000  Uiso   1.00
H483   H     0.41882   0.42304   0.17671   0.00000  Uiso   1.00
C484   C     0.41420   0.48121   0.17227   0.00000  Uiso   1.00
H485   H     0.39347   0.00264   0.17722   0.00000  Uiso   1.00
H486   H     0.43884   0.48799   0.18975   0.00000  Uiso   1.00
C487   C     0.42437   0.48036   0.12920   0.00000  Uiso   1.00
H488   H     0.44497   0.45895   0.12362   0.00000  Uiso   1.00
H489   H     0.43624   0.00694   0.12054   0.00000  Uiso   1.00
H490   H     0.39985   0.47489   0.11108   0.00000  Uiso   1.00
O491   O     0.05205   0.39491   0.76350   0.00000  Uiso   1.00
C492   C     0.03561   0.39935   0.72655   0.00000  Uiso   1.00
H493   H     0.03560   0.37324   0.70992   0.00000  Uiso   1.00
H494   H     0.05029   0.42046   0.70930   0.00000  Uiso   1.00
C495   C     0.49623   0.41142   0.73197   0.00000  Uiso   1.00
H496   H     0.48235   0.39284   0.75273   0.00000  Uiso   1.00
H497   H     0.49599   0.43944   0.74421   0.00000  Uiso   1.00
C498   C     0.47539   0.41108   0.69349   0.00000  Uiso   1.00
H499   H     0.48843   0.42994   0.67240   0.00000  Uiso   1.00
H500   H     0.44694   0.41999   0.69852   0.00000  Uiso   1.00
H501   H     0.47476   0.38314   0.68095   0.00000  Uiso   1.00
O502   O     0.44232   0.10829   0.21852   0.00000  Uiso   1.00
C503   C     0.44243   0.11610   0.17806   0.00000  Uiso   1.00
H504   H     0.47120   0.12058   0.16944   0.00000  Uiso   1.00
H505   H     0.42791   0.14182   0.17065   0.00000  Uiso   1.00
C506   C     0.42632   0.08458   0.15410   0.00000  Uiso   1.00
H507   H     0.43461   0.05820   0.16681   0.00000  Uiso   1.00
H508   H     0.39612   0.08602   0.15500   0.00000  Uiso   1.00
C509   C     0.43898   0.08608   0.11176   0.00000  Uiso   1.00
H510   H     0.43683   0.11414   0.10005   0.00000  Uiso   1.00
H511   H     0.42193   0.06756   0.09365   0.00000  Uiso   1.00
H512   H     0.46776   0.07728   0.10960   0.00000  Uiso   1.00
O513   O     0.38111   0.43320   0.80232   0.00000  Uiso   1.00
C514   C     0.41053   0.45612   0.79118   0.00000  Uiso   1.00
H515   H     0.39918   0.48124   0.77799   0.00000  Uiso   1.00
H516   H     0.42930   0.44386   0.76927   0.00000  Uiso   1.00
C517   C     0.43270   0.46650   0.82734   0.00000  Uiso   1.00
H518   H     0.41509   0.48125   0.84827   0.00000  Uiso   1.00
H519   H     0.44258   0.44146   0.84190   0.00000  Uiso   1.00
C520   C     0.46544   0.49037   0.81700   0.00000  Uiso   1.00
H521   H     0.48595   0.47425   0.80086   0.00000  Uiso   1.00
H522   H     0.47831   0.00093   0.84407   0.00000  Uiso   1.00
H523   H     0.45692   0.01373   0.79877   0.00000  Uiso   1.00
O524   O     0.12306   0.07073   0.19304   0.00000  Uiso   1.00
C525   C     0.14151   0.08385   0.15982   0.00000  Uiso   1.00
H526   H     0.16977   0.09266   0.16737   0.00000  Uiso   1.00
H527   H     0.12664   0.10727   0.14689   0.00000  Uiso   1.00
C528   C     0.14354   0.05322   0.12966   0.00000  Uiso   1.00
H529   H     0.15491   0.02841   0.14345   0.00000  Uiso   1.00
H530   H     0.11573   0.04660   0.11890   0.00000  Uiso   1.00
C531   C     0.16753   0.06399   0.09534   0.00000  Uiso   1.00
H532   H     0.15615   0.08817   0.08035   0.00000  Uiso   1.00
H533   H     0.16900   0.04103   0.07426   0.00000  Uiso   1.00
H534   H     0.19549   0.07042   0.10570   0.00000  Uiso   1.00
O535   O     0.44646   0.10536   0.76445   0.00000  Uiso   1.00
C536   C     0.46337   0.10045   0.72774   0.00000  Uiso   1.00
H537   H     0.49280   0.10663   0.73130   0.00000  Uiso   1.00
H538   H     0.45326   0.11950   0.70490   0.00000  Uiso   1.00
C539   C     0.45929   0.06089   0.71390   0.00000  Uiso   1.00
H540   H     0.47299   0.04253   0.73492   0.00000  Uiso   1.00
H541   H     0.43002   0.05323   0.71247   0.00000  Uiso   1.00
C542   C     0.47591   0.05567   0.67358   0.00000  Uiso   1.00
H543   H     0.46099   0.07216   0.65175   0.00000  Uiso   1.00
H544   H     0.47399   0.02651   0.66503   0.00000  Uiso   1.00
H545   H     0.00500   0.06408   0.67363   0.00000  Uiso   1.00
O546   O     0.05412   0.39341   0.22748   0.00000  Uiso   1.00
C547   C     0.05417   0.39709   0.18647   0.00000  Uiso   1.00
H548   H     0.06763   0.37335   0.17218   0.00000  Uiso   1.00
H549   H     0.06860   0.42258   0.17786   0.00000  Uiso   1.00
C550   C     0.01490   0.39891   0.17183   0.00000  Uiso   1.00
H551   H     0.49965   0.37448   0.18199   0.00000  Uiso   1.00
H552   H     0.00156   0.42362   0.18377   0.00000  Uiso   1.00
C553   C     0.01330   0.40026   0.12747   0.00000  Uiso   1.00
H554   H     0.02787   0.42480   0.11656   0.00000  Uiso   1.00
H555   H     0.48447   0.40148   0.11786   0.00000  Uiso   1.00
H556   H     0.02580   0.37543   0.11479   0.00000  Uiso   1.00
O557   O     0.35549   0.19819   0.73901   0.00000  Uiso   1.00
C558   C     0.34998   0.21297   0.77661   0.00000  Uiso   1.00
H559   H     0.37382   0.20808   0.79603   0.00000  Uiso   1.00
H560   H     0.32527   0.20062   0.79003   0.00000  Uiso   1.00
C561   C     0.34465   0.25407   0.77331   0.00000  Uiso   1.00
H562   H     0.36800   0.26622   0.75746   0.00000  Uiso   1.00
H563   H     0.31956   0.25945   0.75645   0.00000  Uiso   1.00
C564   C     0.34167   0.27216   0.81323   0.00000  Uiso   1.00
H565   H     0.31803   0.26087   0.82939   0.00000  Uiso   1.00
H566   H     0.33784   0.30196   0.80957   0.00000  Uiso   1.00
H567   H     0.36692   0.26769   0.83037   0.00000  Uiso   1.00
O568   O     0.14146   0.30774   0.28180   0.00000  Uiso   1.00
C569   C     0.13357   0.30792   0.32225   0.00000  Uiso   1.00
H570   H     0.12910   0.27918   0.33108   0.00000  Uiso   1.00
H571   H     0.10785   0.32249   0.32950   0.00000  Uiso   1.00
C572   C     0.16498   0.32428   0.34614   0.00000  Uiso   1.00
H573   H     0.19137   0.31593   0.33351   0.00000  Uiso   1.00
H574   H     0.16351   0.35451   0.34502   0.00000  Uiso   1.00
C575   C     0.16341   0.31191   0.38855   0.00000  Uiso   1.00
H576   H     0.13541   0.31437   0.40028   0.00000  Uiso   1.00
H577   H     0.18201   0.32899   0.40652   0.00000  Uiso   1.00
H578   H     0.17199   0.28305   0.39088   0.00000  Uiso   1.00
O579   O     0.31425   0.36517   0.70257   0.00000  Uiso   1.00
C580   C     0.29162   0.33778   0.71920   0.00000  Uiso   1.00
H581   H     0.26444   0.34998   0.72422   0.00000  Uiso   1.00
H582   H     0.30095   0.32745   0.74812   0.00000  Uiso   1.00
C583   C     0.28774   0.30548   0.69096   0.00000  Uiso   1.00
H584   H     0.28305   0.31565   0.66098   0.00000  Uiso   1.00
H585   H     0.31317   0.28941   0.69059   0.00000  Uiso   1.00
C586   C     0.25658   0.28001   0.70252   0.00000  Uiso   1.00
H587   H     0.26178   0.26793   0.73154   0.00000  Uiso   1.00
H588   H     0.25408   0.25758   0.68089   0.00000  Uiso   1.00
H589   H     0.23048   0.29501   0.70350   0.00000  Uiso   1.00
O590   O     0.17928   0.12719   0.30684   0.00000  Uiso   1.00
C591   C     0.16619   0.10888   0.34016   0.00000  Uiso   1.00
H592   H     0.15727   0.08058   0.33272   0.00000  Uiso   1.00
H593   H     0.14289   0.12390   0.35315   0.00000  Uiso   1.00
C594   C     0.19684   0.10682   0.37019   0.00000  Uiso   1.00
H595   H     0.22150   0.09517   0.35636   0.00000  Uiso   1.00
H596   H     0.20369   0.13469   0.38075   0.00000  Uiso   1.00
C597   C     0.18601   0.08311   0.40471   0.00000  Uiso   1.00
H598   H     0.16201   0.09482   0.41976   0.00000  Uiso   1.00
H599   H     0.20899   0.08158   0.42567   0.00000  Uiso   1.00
H600   H     0.17931   0.05510   0.39457   0.00000  Uiso   1.00
O601   O     0.14458   0.30390   0.73571   0.00000  Uiso   1.00
C602   C     0.14895   0.28763   0.77287   0.00000  Uiso   1.00
H603   H     0.14191   0.25828   0.77012   0.00000  Uiso   1.00
H604   H     0.13031   0.29877   0.79558   0.00000  Uiso   1.00
C605   C     0.18854   0.29091   0.78651   0.00000  Uiso   1.00
H606   H     0.20604   0.27474   0.76681   0.00000  Uiso   1.00
H607   H     0.19762   0.31983   0.78546   0.00000  Uiso   1.00
C608   C     0.19311   0.27695   0.82802   0.00000  Uiso   1.00
H609   H     0.17759   0.29434   0.84854   0.00000  Uiso   1.00
H610   H     0.22231   0.27801   0.83632   0.00000  Uiso   1.00
H611   H     0.18327   0.24835   0.83035   0.00000  Uiso   1.00
O612   O     0.35660   0.19621   0.27187   0.00000  Uiso   1.00
C613   C     0.35242   0.19668   0.31283   0.00000  Uiso   1.00
H614   H     0.37592   0.18334   0.32759   0.00000  Uiso   1.00
H615   H     0.32682   0.18240   0.32131   0.00000  Uiso   1.00
C616   C     0.35050   0.23619   0.32689   0.00000  Uiso   1.00
H617   H     0.37515   0.25121   0.31699   0.00000  Uiso   1.00
H618   H     0.32609   0.24948   0.31431   0.00000  Uiso   1.00
C619   C     0.34838   0.23845   0.37117   0.00000  Uiso   1.00
H620   H     0.32349   0.22433   0.38181   0.00000  Uiso   1.00
H621   H     0.34736   0.26747   0.38032   0.00000  Uiso   1.00
H622   H     0.37279   0.22584   0.38448   0.00000  Uiso   1.00
O623   O     0.19775   0.14511   0.73898   0.00000  Uiso   1.00
C624   C     0.21405   0.14887   0.77624   0.00000  Uiso   1.00
H625   H     0.23606   0.12834   0.77872   0.00000  Uiso   1.00
H626   H     0.19502   0.14437   0.80121   0.00000  Uiso   1.00
C627   C     0.23077   0.18698   0.78003   0.00000  Uiso   1.00
H628   H     0.25146   0.19118   0.75692   0.00000  Uiso   1.00
H629   H     0.20909   0.20762   0.77620   0.00000  Uiso   1.00
C630   C     0.24880   0.19245   0.81970   0.00000  Uiso   1.00
H631   H     0.22831   0.18999   0.84331   0.00000  Uiso   1.00
H632   H     0.26127   0.22005   0.82115   0.00000  Uiso   1.00
H633   H     0.27046   0.17188   0.82422   0.00000  Uiso   1.00
O634   O     0.30484   0.35660   0.27364   0.00000  Uiso   1.00
C635   C     0.30549   0.35081   0.31434   0.00000  Uiso   1.00
H636   H     0.31135   0.37692   0.32985   0.00000  Uiso   1.00
H637   H     0.32644   0.33044   0.32278   0.00000  Uiso   1.00
C638   C     0.26849   0.33640   0.32751   0.00000  Uiso   1.00
H639   H     0.24749   0.35755   0.32247   0.00000  Uiso   1.00
H640   H     0.26124   0.31176   0.31019   0.00000  Uiso   1.00
C641   C     0.26913   0.32650   0.37065   0.00000  Uiso   1.00
H642   H     0.29008   0.30547   0.37633   0.00000  Uiso   1.00
H643   H     0.24236   0.31521   0.37942   0.00000  Uiso   1.00
H644   H     0.27509   0.35105   0.38861   0.00000  Uiso   1.00
O645   O     0.35515   0.30243   0.26272   0.00000  Uiso   1.00
C646   C     0.35096   0.28514   0.22601   0.00000  Uiso   1.00
H647   H     0.37140   0.26302   0.22385   0.00000  Uiso   1.00
H648   H     0.35517   0.30352   0.20043   0.00000  Uiso   1.00
C649   C     0.31285   0.26837   0.22325   0.00000  Uiso   1.00
H650   H     0.30888   0.24824   0.24695   0.00000  Uiso   1.00
H651   H     0.29230   0.29019   0.22684   0.00000  Uiso   1.00
C652   C     0.30694   0.24933   0.18418   0.00000  Uiso   1.00
H653   H     0.30893   0.26928   0.16000   0.00000  Uiso   1.00
H654   H     0.27945   0.23663   0.18355   0.00000  Uiso   1.00
H655   H     0.32757   0.22769   0.17987   0.00000  Uiso   1.00
O656   O     0.14368   0.19624   0.72972   0.00000  Uiso   1.00
C657   C     0.15177   0.19800   0.68951   0.00000  Uiso   1.00
H658   H     0.12849   0.18754   0.67175   0.00000  Uiso   1.00
H659   H     0.17652   0.18192   0.68254   0.00000  Uiso   1.00
C660   C     0.15893   0.23766   0.67846   0.00000  Uiso   1.00
H661   H     0.13348   0.25349   0.68222   0.00000  Uiso   1.00
H662   H     0.18018   0.24920   0.69802   0.00000  Uiso   1.00
C663   C     0.17176   0.24118   0.63641   0.00000  Uiso   1.00
H664   H     0.19774   0.22633   0.63222   0.00000  Uiso   1.00
H665   H     0.17639   0.27040   0.62948   0.00000  Uiso   1.00
H666   H     0.15086   0.23001   0.61617   0.00000  Uiso   1.00
O667   O     0.30197   0.14492   0.26206   0.00000  Uiso   1.00
C668   C     0.28585   0.14928   0.22495   0.00000  Uiso   1.00
H669   H     0.28615   0.12317   0.20831   0.00000  Uiso   1.00
H670   H     0.30057   0.17051   0.20788   0.00000  Uiso   1.00
C671   C     0.24634   0.16111   0.22993   0.00000  Uiso   1.00
H672   H     0.23227   0.14225   0.25027   0.00000  Uiso   1.00
H673   H     0.24580   0.18899   0.24252   0.00000  Uiso   1.00
C674   C     0.22600   0.16110   0.19114   0.00000  Uiso   1.00
H675   H     0.23916   0.18030   0.17048   0.00000  Uiso   1.00
H676   H     0.19742   0.16974   0.19589   0.00000  Uiso   1.00
H677   H     0.22574   0.13331   0.17822   0.00000  Uiso   1.00
O678   O     0.18982   0.35997   0.71339   0.00000  Uiso   1.00
C679   C     0.18257   0.36661   0.67350   0.00000  Uiso   1.00
H680   H     0.17322   0.39518   0.66907   0.00000  Uiso   1.00
H681   H     0.16115   0.34755   0.66240   0.00000  Uiso   1.00
C682   C     0.21709   0.36088   0.64963   0.00000  Uiso   1.00
H683   H     0.24037   0.37515   0.66379   0.00000  Uiso   1.00
H684   H     0.22279   0.33130   0.64791   0.00000  Uiso   1.00
C685   C     0.21298   0.37540   0.60836   0.00000  Uiso   1.00
H686   H     0.18928   0.36231   0.59372   0.00000  Uiso   1.00
H687   H     0.23793   0.36931   0.59139   0.00000  Uiso   1.00
H688   H     0.20929   0.40540   0.60913   0.00000  Uiso   1.00
O689   O     0.13148   0.18340   0.30175   0.00000  Uiso   1.00
C690   C     0.16104   0.20608   0.29045   0.00000  Uiso   1.00
H691   H     0.14980   0.23148   0.27780   0.00000  Uiso   1.00
H692   H     0.17936   0.19390   0.26804   0.00000  Uiso   1.00
C693   C     0.18384   0.21572   0.32638   0.00000  Uiso   1.00
H694   H     0.16649   0.22983   0.34803   0.00000  Uiso   1.00
H695   H     0.19413   0.19044   0.34009   0.00000  Uiso   1.00
C696   C     0.21626   0.24002   0.31602   0.00000  Uiso   1.00
H697   H     0.23657   0.22441   0.29904   0.00000  Uiso   1.00
H698   H     0.22952   0.25008   0.34308   0.00000  Uiso   1.00
H699   H     0.20728   0.26371   0.29857   0.00000  Uiso   1.00
O700   O     0.37227   0.32015   0.69413   0.00000  Uiso   1.00
C701   C     0.39034   0.33329   0.66070   0.00000  Uiso   1.00
H702   H     0.41870   0.34209   0.66789   0.00000  Uiso   1.00
H703   H     0.37534   0.35675   0.64800   0.00000  Uiso   1.00
C704   C     0.39194   0.30265   0.63053   0.00000  Uiso   1.00
H705   H     0.40271   0.27758   0.64437   0.00000  Uiso   1.00
H706   H     0.36402   0.29664   0.61964   0.00000  Uiso   1.00
C707   C     0.41643   0.31287   0.59639   0.00000  Uiso   1.00
H708   H     0.40612   0.33771   0.58172   0.00000  Uiso   1.00
H709   H     0.41700   0.29013   0.57499   0.00000  Uiso   1.00
H710   H     0.44460   0.31795   0.60691   0.00000  Uiso   1.00
O711   O     0.19625   0.35556   0.26528   0.00000  Uiso   1.00
C712   C     0.21289   0.35029   0.22847   0.00000  Uiso   1.00
H713   H     0.24227   0.35694   0.23157   0.00000  Uiso   1.00
H714   H     0.20230   0.36881   0.20537   0.00000  Uiso   1.00
C715   C     0.20926   0.31046   0.21539   0.00000  Uiso   1.00
H716   H     0.22404   0.29271   0.23616   0.00000  Uiso   1.00
H717   H     0.18016   0.30212   0.21512   0.00000  Uiso   1.00
C718   C     0.22464   0.30501   0.17455   0.00000  Uiso   1.00
H719   H     0.20838   0.32060   0.15308   0.00000  Uiso   1.00
H720   H     0.22330   0.27567   0.16662   0.00000  Uiso   1.00
H721   H     0.25343   0.31432   0.17321   0.00000  Uiso   1.00
O722   O     0.30389   0.14365   0.72847   0.00000  Uiso   1.00
C723   C     0.30325   0.14878   0.68766   0.00000  Uiso   1.00
H724   H     0.31545   0.12501   0.67219   0.00000  Uiso   1.00
H725   H     0.31847   0.17399   0.67961   0.00000  Uiso   1.00
C726   C     0.26382   0.15267   0.67414   0.00000  Uiso   1.00
H727   H     0.24804   0.12809   0.68290   0.00000  Uiso   1.00
H728   H     0.25152   0.17697   0.68816   0.00000  Uiso   1.00
C729   C     0.26140   0.15691   0.63004   0.00000  Uiso   1.00
H730   H     0.27672   0.18153   0.62056   0.00000  Uiso   1.00
H731   H     0.23246   0.15993   0.62131   0.00000  Uiso   1.00
H732   H     0.27266   0.13248   0.61526   0.00000  Uiso   1.00
O733   O     0.02049   0.31393   0.39793   0.00000  Uiso   1.00
H734   H     0.01168   0.31341   0.37073   0.00000  Uiso   1.00
O735   O     0.46940   0.19120   0.60170   0.00000  Uiso   1.00
H736   H     0.48138   0.18821   0.62729   0.00000  Uiso   1.00
O737   O     0.18818   0.47493   0.39794   0.00000  Uiso   1.00
H738   H     0.18762   0.48367   0.37075   0.00000  Uiso   1.00
O739   O     0.31179   0.02292   0.60184   0.00000  Uiso   1.00
H740   H     0.31293   0.01077   0.62748   0.00000  Uiso   1.00
O741   O     0.47657   0.18808   0.39846   0.00000  Uiso   1.00
H742   H     0.48808   0.18706   0.37248   0.00000  Uiso   1.00
O743   O     0.02892   0.31028   0.60196   0.00000  Uiso   1.00
H744   H     0.01925   0.31192   0.62875   0.00000  Uiso   1.00
O745   O     0.31027   0.02786   0.39825   0.00000  Uiso   1.00
H746   H     0.31233   0.01607   0.37242   0.00000  Uiso   1.00
O747   O     0.18651   0.47767   0.60159   0.00000  Uiso   1.00
H748   H     0.18744   0.48439   0.62944   0.00000  Uiso   1.00
O749   O     0.27052   0.06379   0.89810   0.00000  Uiso   1.00
H750   H     0.26218   0.06317   0.87074   0.00000  Uiso   1.00
O751   O     0.22238   0.43982   0.10181   0.00000  Uiso   1.00
H752   H     0.23415   0.43768   0.12761   0.00000  Uiso   1.00
O753   O     0.43879   0.22259   0.89800   0.00000  Uiso   1.00
H754   H     0.43779   0.23178   0.87099   0.00000  Uiso   1.00
O755   O     0.06269   0.27073   0.10153   0.00000  Uiso   1.00
H756   H     0.06312   0.25963   0.12772   0.00000  Uiso   1.00
O757   O     0.22801   0.43743   0.89830   0.00000  Uiso   1.00
H758   H     0.23919   0.43681   0.87214   0.00000  Uiso   1.00
O759   O     0.27569   0.06188   0.10193   0.00000  Uiso   1.00
H760   H     0.26712   0.06242   0.12918   0.00000  Uiso   1.00
O761   O     0.05964   0.27826   0.89828   0.00000  Uiso   1.00
H762   H     0.06200   0.26659   0.87242   0.00000  Uiso   1.00
O763   O     0.43558   0.23114   0.10215   0.00000  Uiso   1.00
H764   H     0.43644   0.23976   0.12942   0.00000  Uiso   1.00
C765   C     0.51010   0.28269   0.41776   0.00000  Uiso   1.00
C766   C     0.98443   0.22051   0.58194   0.00000  Uiso   1.00
C767   C     0.71808   0.48905   0.41768   0.00000  Uiso   1.00
C768   C     0.78015   0.01327   0.58218   0.00000  Uiso   1.00
C769   C     0.98617   0.21994   0.41785   0.00000  Uiso   1.00
C770   C     0.51323   0.28116   0.58220   0.00000  Uiso   1.00
C771   C     0.78000   0.01484   0.41798   0.00000  Uiso   1.00
C772   C     0.71752   0.48911   0.58203   0.00000  Uiso   1.00
C773   C     0.76023   0.03244   0.91781   0.00000  Uiso   1.00
C774   C     0.73574   0.46994   0.08205   0.00000  Uiso   1.00
C775   C     0.96838   0.23731   0.91777   0.00000  Uiso   1.00
C776   C     0.53061   0.26214   0.08212   0.00000  Uiso   1.00
C777   C     0.73720   0.46934   0.91782   0.00000  Uiso   1.00
C778   C     0.76157   0.03191   0.08224   0.00000  Uiso   1.00
C779   C     0.52980   0.26425   0.91800   0.00000  Uiso   1.00
C780   C     0.96714   0.24042   0.08229   0.00000  Uiso   1.00
C781   C     0.99943   0.25071   0.39780   0.00000  Uiso   1.00
C782   C     0.99964   0.25043   0.60212   0.00000  Uiso   1.00
C783   C     0.74956   0.00074   0.39782   0.00000  Uiso   1.00
C784   C     0.74928   0.00018   0.60214   0.00000  Uiso   1.00
C785   C     0.74965   0.00046   0.89779   0.00000  Uiso   1.00
C786   C     0.74955   0.00055   0.10218   0.00000  Uiso   1.00
C787   C     0.99937   0.25025   0.89784   0.00000  Uiso   1.00
C788   C     0.99933   0.25032   0.10222   0.00000  Uiso   1.00
C789   C     0.96724   0.19200   0.47930   0.00000  Uiso   1.00
C790   C     0.52138   0.31403   0.52064   0.00000  Uiso   1.00
C791   C     0.81009   0.02917   0.48014   0.00000  Uiso   1.00
C792   C     0.68592   0.47858   0.51979   0.00000  Uiso   1.00
C793   C     0.52228   0.31396   0.47995   0.00000  Uiso   1.00
C794   C     0.96987   0.19044   0.51976   0.00000  Uiso   1.00
C795   C     0.68524   0.48161   0.47922   0.00000  Uiso   1.00
C796   C     0.80890   0.03125   0.52073   0.00000  Uiso   1.00
C797   C     0.72004   0.44040   0.97945   0.00000  Uiso   1.00
C798   C     0.76937   0.06453   0.02053   0.00000  Uiso   1.00
C799   C     0.56055   0.27698   0.98003   0.00000  Uiso   1.00
C800   C     0.93582   0.22828   0.02019   0.00000  Uiso   1.00
C801   C     0.77177   0.06386   0.97995   0.00000  Uiso   1.00
C802   C     0.72248   0.43928   0.01997   0.00000  Uiso   1.00
C803   C     0.93566   0.22920   0.97949   0.00000  Uiso   1.00
C804   C     0.55948   0.27928   0.02053   0.00000  Uiso   1.00
C805   C     0.74997   0.00012   0.35565   0.00000  Uiso   1.00
C806   C     0.74974   0.49998   0.64434   0.00000  Uiso   1.00
C807   C     0.99995   0.25010   0.35563   0.00000  Uiso   1.00
C808   C     0.99995   0.25013   0.64434   0.00000  Uiso   1.00
C809   C     0.99973   0.25005   0.85565   0.00000  Uiso   1.00
C810   C     0.99985   0.25001   0.14437   0.00000  Uiso   1.00
C811   C     0.74998   0.00004   0.85563   0.00000  Uiso   1.00
C812   C     0.74994   0.00020   0.14436   0.00000  Uiso   1.00
C813   C     0.67998   0.07006   0.25000   0.00000  Uiso   1.00
C814   C     0.81988   0.42969   0.75031   0.00000  Uiso   1.00
C815   C     0.92962   0.18022   0.24937   0.00000  Uiso   1.00
C816   C     0.56993   0.32000   0.75012   0.00000  Uiso   1.00
C817   C     0.82011   0.42989   0.24999   0.00000  Uiso   1.00
C818   C     0.68003   0.06999   0.74998   0.00000  Uiso   1.00
C819   C     0.56978   0.32038   0.25060   0.00000  Uiso   1.00
C820   C     0.93004   0.18005   0.74995   0.00000  Uiso   1.00
C821   C     0.67953   0.43032   0.74930   0.00000  Uiso   1.00
C822   C     0.81992   0.07001   0.25001   0.00000  Uiso   1.00
C823   C     0.93000   0.32009   0.75000   0.00000  Uiso   1.00
C824   C     0.57009   0.17990   0.24999   0.00000  Uiso   1.00
C825   C     0.81976   0.07039   0.75059   0.00000  Uiso   1.00
C826   C     0.68001   0.43008   0.25001   0.00000  Uiso   1.00
C827   C     0.57014   0.17992   0.75007   0.00000  Uiso   1.00
C828   C     0.93002   0.31997   0.24998   0.00000  Uiso   1.00
C829   C     0.61526   0.41215   0.24307   0.00000  Uiso   1.00
C830   C     0.88289   0.09109   0.76526   0.00000  Uiso   1.00
C831   C     0.59573   0.12208   0.22389   0.00000  Uiso   1.00
C832   C     0.90268   0.37589   0.77859   0.00000  Uiso   1.00
C833   C     0.88360   0.08941   0.24005   0.00000  Uiso   1.00
C834   C     0.61540   0.41111   0.76142   0.00000  Uiso   1.00
C835   C     0.91148   0.38431   0.24197   0.00000  Uiso   1.00
C836   C     0.58962   0.11576   0.76130   0.00000  Uiso   1.00
C837   C     0.61568   0.08842   0.75735   0.00000  Uiso   1.00
C838   C     0.88410   0.41035   0.23811   0.00000  Uiso   1.00
C839   C     0.58793   0.38481   0.75800   0.00000  Uiso   1.00
C840   C     0.90878   0.11717   0.23409   0.00000  Uiso   1.00
C841   C     0.87768   0.40424   0.77652   0.00000  Uiso   1.00
C842   C     0.62424   0.09733   0.22164   0.00000  Uiso   1.00
C843   C     0.91072   0.11613   0.75904   0.00000  Uiso   1.00
C844   C     0.58896   0.38471   0.23959   0.00000  Uiso   1.00
C845   C     0.86540   0.16206   0.74301   0.00000  Uiso   1.00
C846   C     0.63272   0.34123   0.26602   0.00000  Uiso   1.00
C847   C     0.84465   0.37082   0.72577   0.00000  Uiso   1.00
C848   C     0.65269   0.12591   0.27830   0.00000  Uiso   1.00
C849   C     0.63352   0.33963   0.74036   0.00000  Uiso   1.00
C850   C     0.86532   0.16117   0.26024   0.00000  Uiso   1.00
C851   C     0.66168   0.13452   0.74277   0.00000  Uiso   1.00
C852   C     0.83964   0.36580   0.26164   0.00000  Uiso   1.00
C853   C     0.86568   0.33842   0.25772   0.00000  Uiso   1.00
C854   C     0.63438   0.16074   0.73923   0.00000  Uiso   1.00
C855   C     0.83791   0.13482   0.25693   0.00000  Uiso   1.00
C856   C     0.65832   0.36756   0.73377   0.00000  Uiso   1.00
C857   C     0.62788   0.15439   0.27608   0.00000  Uiso   1.00
C858   C     0.87355   0.34671   0.72270   0.00000  Uiso   1.00
C859   C     0.66050   0.36638   0.26008   0.00000  Uiso   1.00
C860   C     0.83896   0.13472   0.73960   0.00000  Uiso   1.00
C861   C     0.98325   0.22121   0.45863   0.00000  Uiso   1.00
C862   C     0.51120   0.28222   0.54127   0.00000  Uiso   1.00
C863   C     0.77961   0.01601   0.45898   0.00000  Uiso   1.00
C864   C     0.71714   0.48989   0.54099   0.00000  Uiso   1.00
C865   C     0.51032   0.28289   0.45884   0.00000  Uiso   1.00
C866   C     0.98390   0.22062   0.54094   0.00000  Uiso   1.00
C867   C     0.71716   0.49106   0.45860   0.00000  Uiso   1.00
C868   C     0.77915   0.01617   0.54136   0.00000  Uiso   1.00
C869   C     0.73456   0.47036   0.95867   0.00000  Uiso   1.00
C870   C     0.75974   0.03269   0.04129   0.00000  Uiso   1.00
C871   C     0.52976   0.26452   0.95897   0.00000  Uiso   1.00
C872   C     0.96703   0.23986   0.04123   0.00000  Uiso   1.00
C873   C     0.76020   0.03266   0.95885   0.00000  Uiso   1.00
C874   C     0.73502   0.47008   0.04105   0.00000  Uiso   1.00
C875   C     0.96749   0.23904   0.95875   0.00000  Uiso   1.00
C876   C     0.52954   0.26481   0.04131   0.00000  Uiso   1.00
C877   C     0.59738   0.34914   0.25218   0.00000  Uiso   1.00
C878   C     0.90178   0.15233   0.75020   0.00000  Uiso   1.00
C879   C     0.65199   0.09809   0.24998   0.00000  Uiso   1.00
C880   C     0.84765   0.40125   0.75091   0.00000  Uiso   1.00
C881   C     0.90087   0.15262   0.24777   0.00000  Uiso   1.00
C882   C     0.59748   0.34845   0.74987   0.00000  Uiso   1.00
C883   C     0.84827   0.40169   0.24994   0.00000  Uiso   1.00
C884   C     0.65210   0.09797   0.74990   0.00000  Uiso   1.00
C885   C     0.59837   0.15178   0.75015   0.00000  Uiso   1.00
C886   C     0.90206   0.34790   0.24991   0.00000  Uiso   1.00
C887   C     0.65073   0.40277   0.74807   0.00000  Uiso   1.00
C888   C     0.84751   0.09840   0.24937   0.00000  Uiso   1.00
C889   C     0.90187   0.34800   0.75032   0.00000  Uiso   1.00
C890   C     0.59820   0.15181   0.24999   0.00000  Uiso   1.00
C891   C     0.84744   0.09909   0.75188   0.00000  Uiso   1.00
C892   C     0.65160   0.40251   0.25073   0.00000  Uiso   1.00
C893   C     0.99719   0.25182   0.47932   0.00000  Uiso   1.00
C894   C     0.99748   0.25153   0.52054   0.00000  Uiso   1.00
C895   C     0.74833   0.00342   0.47937   0.00000  Uiso   1.00
C896   C     0.74818   0.00320   0.52061   0.00000  Uiso   1.00
C897   C     0.74739   0.00149   0.97934   0.00000  Uiso   1.00
C898   C     0.74738   0.00142   0.02059   0.00000  Uiso   1.00
C899   C     0.99853   0.25189   0.97944   0.00000  Uiso   1.00
C900   C     0.99839   0.25207   0.02068   0.00000  Uiso   1.00
O901   O     0.75000  -0.00000   0.25000   0.00000  Uiso   1.00
O902   O     0.75000  -0.00000   0.75000   0.00000  Uiso   1.00
O903   O     0.50000   0.25000   0.25000   0.00000  Uiso   1.00
O904   O     0.50000   0.25000   0.75000   0.00000  Uiso   1.00
O905   O     0.75000   0.46964   0.33755   0.00000  Uiso   1.00
O906   O     0.75000   0.03036   0.66245   0.00000  Uiso   1.00
O907   O     0.53037   0.25000   0.33755   0.00000  Uiso   1.00
O908   O     0.96964   0.25000   0.66245   0.00000  Uiso   1.00
O909   O     0.75000   0.03036   0.33755   0.00000  Uiso   1.00
O910   O     0.75000   0.46964   0.66245   0.00000  Uiso   1.00
O911   O     0.96964   0.25000   0.33755   0.00000  Uiso   1.00
O912   O     0.53037   0.25000   0.66245   0.00000  Uiso   1.00
O913   O     0.50000   0.21964   0.83755   0.00000  Uiso   1.00
O914   O     0.50000   0.28037   0.16245   0.00000  Uiso   1.00
O915   O     0.78037  -0.00000   0.83755   0.00000  Uiso   1.00
O916   O     0.71964  -0.00000   0.16245   0.00000  Uiso   1.00
O917   O     0.50000   0.28037   0.83755   0.00000  Uiso   1.00
O918   O     0.50000   0.21964   0.16245   0.00000  Uiso   1.00
O919   O     0.71964  -0.00000   0.83755   0.00000  Uiso   1.00
O920   O     0.78037  -0.00000   0.16245   0.00000  Uiso   1.00
O921   O     0.70725   0.07308   0.27302   0.00000  Uiso   1.00
O922   O     0.79276   0.42693   0.72698   0.00000  Uiso   1.00
O923   O     0.92693   0.20725   0.27302   0.00000  Uiso   1.00
O924   O     0.57308   0.29276   0.72698   0.00000  Uiso   1.00
O925   O     0.79276   0.42693   0.27302   0.00000  Uiso   1.00
O926   O     0.70725   0.07308   0.72698   0.00000  Uiso   1.00
O927   O     0.57308   0.29276   0.27302   0.00000  Uiso   1.00
O928   O     0.92693   0.20725   0.72698   0.00000  Uiso   1.00
O929   O     0.70725   0.42693   0.72698   0.00000  Uiso   1.00
O930   O     0.79276   0.07308   0.27302   0.00000  Uiso   1.00
O931   O     0.92693   0.29276   0.72698   0.00000  Uiso   1.00
O932   O     0.57308   0.20725   0.27302   0.00000  Uiso   1.00
O933   O     0.79276   0.07308   0.72698   0.00000  Uiso   1.00
O934   O     0.70725   0.42693   0.27302   0.00000  Uiso   1.00
O935   O     0.57308   0.20725   0.72698   0.00000  Uiso   1.00
O936   O     0.92693   0.29276   0.27302   0.00000  Uiso   1.00
O937   O     0.95725   0.32308   0.77302   0.00000  Uiso   1.00
O938   O     0.54276   0.17693   0.22698   0.00000  Uiso   1.00
O939   O     0.67693   0.45725   0.77302   0.00000  Uiso   1.00
O940   O     0.82308   0.04275   0.22698   0.00000  Uiso   1.00
O941   O     0.54276   0.17693   0.77302   0.00000  Uiso   1.00
O942   O     0.95725   0.32308   0.22698   0.00000  Uiso   1.00
O943   O     0.82308   0.04275   0.77302   0.00000  Uiso   1.00
O944   O     0.67693   0.45725   0.22698   0.00000  Uiso   1.00
O945   O     0.95725   0.17693   0.22698   0.00000  Uiso   1.00
O946   O     0.54276   0.32308   0.77302   0.00000  Uiso   1.00
O947   O     0.67693   0.04276   0.22698   0.00000  Uiso   1.00
O948   O     0.82308   0.45725   0.77302   0.00000  Uiso   1.00
O949   O     0.54276   0.32308   0.22698   0.00000  Uiso   1.00
O950   O     0.95725   0.17693   0.77302   0.00000  Uiso   1.00
O951   O     0.82308   0.45725   0.22698   0.00000  Uiso   1.00
O952   O     0.67693   0.04276   0.77302   0.00000  Uiso   1.00
Zn953  Zn    0.70660   0.00000   0.21735   0.00000  Uiso   1.00
Zn954  Zn    0.79341  -0.00000   0.78265   0.00000  Uiso   1.00
Zn955  Zn    0.50000   0.20660   0.21735   0.00000  Uiso   1.00
Zn956  Zn    0.50000   0.29341   0.78265   0.00000  Uiso   1.00
Zn957  Zn    0.79341   0.00000   0.21735   0.00000  Uiso   1.00
Zn958  Zn    0.70660  -0.00000   0.78265   0.00000  Uiso   1.00
Zn959  Zn    0.50000   0.29341   0.21735   0.00000  Uiso   1.00
Zn960  Zn    0.50000   0.20660   0.78265   0.00000  Uiso   1.00
Zn961  Zn    0.95660   0.25000   0.71735   0.00000  Uiso   1.00
Zn962  Zn    0.54341   0.25000   0.28265   0.00000  Uiso   1.00
Zn963  Zn    0.75000   0.45660   0.71735   0.00000  Uiso   1.00
Zn964  Zn    0.75000   0.04341   0.28265   0.00000  Uiso   1.00
Zn965  Zn    0.54341   0.25000   0.71735   0.00000  Uiso   1.00
Zn966  Zn    0.95660   0.25000   0.28265   0.00000  Uiso   1.00
Zn967  Zn    0.75000   0.04341   0.71735   0.00000  Uiso   1.00
Zn968  Zn    0.75000   0.45660   0.28265   0.00000  Uiso   1.00
O969   O     0.94984   0.16350   0.46028   0.00000  Uiso   1.00
C970   C     0.91232   0.17133   0.45744   0.00000  Uiso   1.00
H971   H     0.90795   0.19264   0.43496   0.00000  Uiso   1.00
H972   H     0.90090   0.18098   0.48572   0.00000  Uiso   1.00
C973   C     0.89193   0.13658   0.44562   0.00000  Uiso   1.00
H974   H     0.90400   0.12530   0.41851   0.00000  Uiso   1.00
H975   H     0.89480   0.11606   0.46914   0.00000  Uiso   1.00
C976   C     0.85155   0.14372   0.43879   0.00000  Uiso   1.00
H977   H     0.83886   0.15507   0.46549   0.00000  Uiso   1.00
H978   H     0.83755   0.11773   0.43120   0.00000  Uiso   1.00
H979   H     0.84793   0.16314   0.41437   0.00000  Uiso   1.00
O980   O     0.53081   0.34593   0.53997   0.00000  Uiso   1.00
C981   C     0.99928   0.36745   0.54442   0.00000  Uiso   1.00
H982   H     0.97633   0.35128   0.55686   0.00000  Uiso   1.00
H983   H     0.99073   0.37870   0.51579   0.00000  Uiso   1.00
C984   C     0.50773   0.39908   0.57208   0.00000  Uiso   1.00
H985   H     0.51795   0.38825   0.60023   0.00000  Uiso   1.00
H986   H     0.52924   0.41663   0.55912   0.00000  Uiso   1.00
C987   C     0.97401   0.42208   0.57977   0.00000  Uiso   1.00
H988   H     0.96315   0.43312   0.55204   0.00000  Uiso   1.00
H989   H     0.98129   0.44527   0.59918   0.00000  Uiso   1.00
H990   H     0.95262   0.40540   0.59422   0.00000  Uiso   1.00
O991   O     0.84070   0.04269   0.46147   0.00000  Uiso   1.00
C992   C     0.86759   0.01530   0.46046   0.00000  Uiso   1.00
H993   H     0.85741   0.49090   0.44427   0.00000  Uiso   1.00
H994   H     0.87561   0.00698   0.49043   0.00000  Uiso   1.00
C995   C     0.90126   0.03030   0.43974   0.00000  Uiso   1.00
H996   H     0.89337   0.04051   0.41050   0.00000  Uiso   1.00
H997   H     0.91271   0.05344   0.45682   0.00000  Uiso   1.00
C998   C     0.93049   0.00125   0.43511   0.00000  Uiso   1.00
H999   H     0.93901   0.49088   0.46407   0.00000  Uiso   1.00
H1000  H     0.95463   0.01323   0.42039   0.00000  Uiso   1.00
H1001  H     0.92005   0.47822   0.41713   0.00000  Uiso   1.00
O1002  O     0.65433   0.46756   0.53851   0.00000  Uiso   1.00
C1003  C     0.65105   0.42920   0.53586   0.00000  Uiso   1.00
H1004  H     0.67369   0.41581   0.55167   0.00000  Uiso   1.00
H1005  H     0.65165   0.41971   0.50509   0.00000  Uiso   1.00
C1006  C     0.61468   0.41684   0.55314   0.00000  Uiso   1.00
H1007  H     0.59212   0.43059   0.53750   0.00000  Uiso   1.00
H1008  H     0.61152   0.38696   0.54876   0.00000  Uiso   1.00
C1009  C     0.61206   0.42529   0.59662   0.00000  Uiso   1.00
H1010  H     0.63480   0.41228   0.61259   0.00000  Uiso   1.00
H1011  H     0.58599   0.41445   0.60823   0.00000  Uiso   1.00
H1012  H     0.61290   0.45519   0.60171   0.00000  Uiso   1.00
O1013  O     0.53018   0.34651   0.46136   0.00000  Uiso   1.00
C1014  C     0.56827   0.35061   0.45754   0.00000  Uiso   1.00
H1015  H     0.57897   0.32975   0.43700   0.00000  Uiso   1.00
H1016  H     0.58250   0.34773   0.48604   0.00000  Uiso   1.00
C1017  C     0.57626   0.38878   0.44165   0.00000  Uiso   1.00
H1018  H     0.55709   0.39501   0.41751   0.00000  Uiso   1.00
H1019  H     0.57201   0.40915   0.46520   0.00000  Uiso   1.00
C1020  C     0.61504   0.39221   0.42626   0.00000  Uiso   1.00
H1021  H     0.63500   0.38278   0.44829   0.00000  Uiso   1.00
H1022  H     0.62099   0.42106   0.41899   0.00000  Uiso   1.00
H1023  H     0.61791   0.37595   0.39921   0.00000  Uiso   1.00
O1024  O     0.95586   0.15983   0.53816   0.00000  Uiso   1.00
C1025  C     0.98375   0.13387   0.54428   0.00000  Uiso   1.00
H1026  H     0.97932   0.12191   0.57360   0.00000  Uiso   1.00
H1027  H     0.51182   0.14579   0.54459   0.00000  Uiso   1.00
C1028  C     0.98130   0.10317   0.51401   0.00000  Uiso   1.00
H1029  H     0.95262   0.09365   0.51130   0.00000  Uiso   1.00
H1030  H     0.99048   0.11346   0.48528   0.00000  Uiso   1.00
C1031  C     0.50515   0.07093   0.52521   0.00000  Uiso   1.00
H1032  H     0.53407   0.07969   0.52763   0.00000  Uiso   1.00
H1033  H     0.50299   0.04943   0.50248   0.00000  Uiso   1.00
H1034  H     0.99610   0.05925   0.55342   0.00000  Uiso   1.00
O1035  O     0.65296   0.47407   0.45986   0.00000  Uiso   1.00
C1036  C     0.63128   0.00576   0.45966   0.00000  Uiso   1.00
H1037  H     0.64733   0.03023   0.45081   0.00000  Uiso   1.00
H1038  H     0.61965   0.01057   0.48913   0.00000  Uiso   1.00
C1039  C     0.60006   0.00048   0.43068   0.00000  Uiso   1.00
H1040  H     0.61134   0.49406   0.40145   0.00000  Uiso   1.00
H1041  H     0.58270   0.47722   0.44012   0.00000  Uiso   1.00
C1042  C     0.57668   0.03460   0.42770   0.00000  Uiso   1.00
H1043  H     0.56493   0.04152   0.45655   0.00000  Uiso   1.00
H1044  H     0.55406   0.02965   0.40683   0.00000  Uiso   1.00
H1045  H     0.59327   0.05796   0.41707   0.00000  Uiso   1.00
O1046  O     0.83860   0.04630   0.53992   0.00000  Uiso   1.00
C1047  C     0.83368   0.08436   0.54298   0.00000  Uiso   1.00
H1048  H     0.80885   0.09056   0.56036   0.00000  Uiso   1.00
H1049  H     0.83114   0.09698   0.51362   0.00000  Uiso   1.00
C1050  C     0.86679   0.10105   0.56349   0.00000  Uiso   1.00
H1051  H     0.86994   0.08846   0.59270   0.00000  Uiso   1.00
H1052  H     0.89166   0.09524   0.54622   0.00000  Uiso   1.00
C1053  C     0.86300   0.14221   0.56830   0.00000  Uiso   1.00
H1054  H     0.86007   0.15544   0.53944   0.00000  Uiso   1.00
H1055  H     0.88766   0.15342   0.58286   0.00000  Uiso   1.00
H1056  H     0.83888   0.14862   0.58649   0.00000  Uiso   1.00
O1057  O     0.70484   0.41060   0.96056   0.00000  Uiso   1.00
C1058  C     0.66689   0.41596   0.95732   0.00000  Uiso   1.00
H1059  H     0.66122   0.43907   0.93727   0.00000  Uiso   1.00
H1060  H     0.65442   0.42176   0.98626   0.00000  Uiso   1.00
C1061  C     0.64935   0.38130   0.94093   0.00000  Uiso   1.00
H1062  H     0.66246   0.37405   0.91282   0.00000  Uiso   1.00
H1063  H     0.65365   0.35863   0.96177   0.00000  Uiso   1.00
C1064  C     0.60857   0.38607   0.93432   0.00000  Uiso   1.00
H1065  H     0.59484   0.39329   0.96205   0.00000  Uiso   1.00
H1066  H     0.59666   0.36016   0.92319   0.00000  Uiso   1.00
H1067  H     0.60363   0.40782   0.91255   0.00000  Uiso   1.00
O1068  O     0.77752   0.09683   0.03970   0.00000  Uiso   1.00
C1069  C     0.74587   0.11853   0.04104   0.00000  Uiso   1.00
H1070  H     0.72164   0.10239   0.05040   0.00000  Uiso   1.00
H1071  H     0.74037   0.13037   0.01184   0.00000  Uiso   1.00
C1072  C     0.75174   0.14958   0.07020   0.00000  Uiso   1.00
H1073  H     0.75916   0.13812   0.09905   0.00000  Uiso   1.00
H1074  H     0.77445   0.16729   0.06009   0.00000  Uiso   1.00
C1075  C     0.71753   0.17259   0.07474   0.00000  Uiso   1.00
H1076  H     0.70951   0.18443   0.04628   0.00000  Uiso   1.00
H1077  H     0.72294   0.19519   0.09557   0.00000  Uiso   1.00
H1078  H     0.69477   0.15567   0.08619   0.00000  Uiso   1.00
O1079  O     0.59180   0.28891   0.96138   0.00000  Uiso   1.00
C1080  C     0.61662   0.25967   0.95935   0.00000  Uiso   1.00
H1081  H     0.60416   0.23586   0.94395   0.00000  Uiso   1.00
H1082  H     0.62522   0.25115   0.98907   0.00000  Uiso   1.00
C1083  C     0.65030   0.27203   0.93681   0.00000  Uiso   1.00
H1084  H     0.64184   0.28275   0.90798   0.00000  Uiso   1.00
H1085  H     0.66425   0.29425   0.95315   0.00000  Uiso   1.00
C1086  C     0.67693   0.24076   0.93076   0.00000  Uiso   1.00
H1087  H     0.68578   0.22962   0.95926   0.00000  Uiso   1.00
H1088  H     0.70130   0.25086   0.91491   0.00000  Uiso   1.00
H1089  H     0.66400   0.21869   0.91326   0.00000  Uiso   1.00
O1090  O     0.90339   0.22027   0.03890   0.00000  Uiso   1.00
C1091  C     0.89951   0.18211   0.04272   0.00000  Uiso   1.00
H1092  H     0.92059   0.17145   0.06295   0.00000  Uiso   1.00
H1093  H     0.90207   0.16792   0.01411   0.00000  Uiso   1.00
C1094  C     0.86164   0.17398   0.05917   0.00000  Uiso   1.00
H1095  H     0.85623   0.19224   0.08437   0.00000  Uiso   1.00
H1096  H     0.84089   0.17946   0.03637   0.00000  Uiso   1.00
C1097  C     0.85800   0.13457   0.07268   0.00000  Uiso   1.00
H1098  H     0.86586   0.11542   0.04910   0.00000  Uiso   1.00
H1099  H     0.82946   0.12893   0.08128   0.00000  Uiso   1.00
H1100  H     0.87536   0.13010   0.09860   0.00000  Uiso   1.00
O1101  O     0.78274   0.09547   0.96127   0.00000  Uiso   1.00
C1102  C     0.82120   0.09671   0.96026   0.00000  Uiso   1.00
H1103  H     0.83192   0.07443   0.94151   0.00000  Uiso   1.00
H1104  H     0.83309   0.09375   0.98992   0.00000  Uiso   1.00
C1105  C     0.83390   0.13353   0.94426   0.00000  Uiso   1.00
H1106  H     0.82351   0.15569   0.96328   0.00000  Uiso   1.00
H1107  H     0.86413   0.13473   0.94491   0.00000  Uiso   1.00
C1108  C     0.82087   0.13976   0.90252   0.00000  Uiso   1.00
H1109  H     0.82997   0.11731   0.88319   0.00000  Uiso   1.00
H1110  H     0.83235   0.16578   0.89141   0.00000  Uiso   1.00
H1111  H     0.79070   0.14144   0.90153   0.00000  Uiso   1.00
O1112  O     0.71046   0.40805   0.03865   0.00000  Uiso   1.00
C1113  C     0.73947   0.38297   0.04038   0.00000  Uiso   1.00
H1114  H     0.76368   0.39540   0.05505   0.00000  Uiso   1.00
H1115  H     0.74732   0.37388   0.01059   0.00000  Uiso   1.00
C1116  C     0.72728   0.34966   0.06370   0.00000  Uiso   1.00
H1117  H     0.71727   0.35859   0.09270   0.00000  Uiso   1.00
H1118  H     0.70461   0.33571   0.04813   0.00000  Uiso   1.00
C1119  C     0.75835   0.32275   0.06931   0.00000  Uiso   1.00
H1120  H     0.76873   0.31336   0.04065   0.00000  Uiso   1.00
H1121  H     0.74838   0.29869   0.08580   0.00000  Uiso   1.00
H1122  H     0.78091   0.33572   0.08601   0.00000  Uiso   1.00
O1123  O     0.90380   0.21963   0.96028   0.00000  Uiso   1.00
C1124  C     0.88189   0.25097   0.95646   0.00000  Uiso   1.00
H1125  H     0.89758   0.27411   0.94377   0.00000  Uiso   1.00
H1126  H     0.87104   0.25937   0.98535   0.00000  Uiso   1.00
C1127  C     0.84989   0.24219   0.92947   0.00000  Uiso   1.00
H1128  H     0.86033   0.23216   0.90105   0.00000  Uiso   1.00
H1129  H     0.83288   0.22039   0.94272   0.00000  Uiso   1.00
C1130  C     0.82636   0.27567   0.92246   0.00000  Uiso   1.00
H1131  H     0.81561   0.28626   0.95048   0.00000  Uiso   1.00
H1132  H     0.80302   0.26816   0.90342   0.00000  Uiso   1.00
H1133  H     0.84252   0.29738   0.90787   0.00000  Uiso   1.00
O1134  O     0.58925   0.29453   0.03939   0.00000  Uiso   1.00
C1135  C     0.58375   0.33250   0.04292   0.00000  Uiso   1.00
H1136  H     0.56110   0.33796   0.06362   0.00000  Uiso   1.00
H1137  H     0.57722   0.34506   0.01422   0.00000  Uiso   1.00
C1138  C     0.61862   0.35024   0.05842   0.00000  Uiso   1.00
H1139  H     0.62669   0.33697   0.08616   0.00000  Uiso   1.00
H1140  H     0.64074   0.34627   0.03683   0.00000  Uiso   1.00
C1141  C     0.61369   0.39098   0.06557   0.00000  Uiso   1.00
H1142  H     0.60563   0.40486   0.03822   0.00000  Uiso   1.00
H1143  H     0.63974   0.40305   0.07601   0.00000  Uiso   1.00
H1144  H     0.59251   0.39558   0.08808   0.00000  Uiso   1.00
O1145  O     0.60518   0.44814   0.23796   0.00000  Uiso   1.00
C1146  C     0.60111   0.46441   0.27508   0.00000  Uiso   1.00
H1147  H     0.62738   0.46444   0.29131   0.00000  Uiso   1.00
H1148  H     0.58028   0.44954   0.29254   0.00000  Uiso   1.00
C1149  C     0.58882   0.00382   0.27015   0.00000  Uiso   1.00
H1150  H     0.60727   0.01801   0.24948   0.00000  Uiso   1.00
H1151  H     0.56082   0.00403   0.25800   0.00000  Uiso   1.00
C1152  C     0.58911   0.02434   0.30888   0.00000  Uiso   1.00
H1153  H     0.57031   0.01108   0.32989   0.00000  Uiso   1.00
H1154  H     0.58016   0.05286   0.30418   0.00000  Uiso   1.00
H1155  H     0.61701   0.02491   0.32138   0.00000  Uiso   1.00
O1156  O     0.89137   0.05809   0.78231   0.00000  Uiso   1.00
C1157  C     0.88362   0.06002   0.82275   0.00000  Uiso   1.00
H1158  H     0.87912   0.03174   0.83309   0.00000  Uiso   1.00
H1159  H     0.85796   0.07497   0.82933   0.00000  Uiso   1.00
C1160  C     0.91527   0.07720   0.84561   0.00000  Uiso   1.00
H1161  H     0.94127   0.06529   0.83569   0.00000  Uiso   1.00
H1162  H     0.91618   0.10704   0.84020   0.00000  Uiso   1.00
C1163  C     0.91119   0.07085   0.88926   0.00000  Uiso   1.00
H1164  H     0.88474   0.08149   0.89955   0.00000  Uiso   1.00
H1165  H     0.93331   0.08532   0.90516   0.00000  Uiso   1.00
H1166  H     0.91281   0.04128   0.89587   0.00000  Uiso   1.00
O1167  O     0.56677   0.11838   0.19825   0.00000  Uiso   1.00
C1168  C     0.54418   0.08875   0.20960   0.00000  Uiso   1.00
H1169  H     0.51877   0.09997   0.22225   0.00000  Uiso   1.00
H1170  H     0.55637   0.07049   0.23203   0.00000  Uiso   1.00
C1171  C     0.53465   0.06581   0.17371   0.00000  Uiso   1.00
H1172  H     0.52052   0.08310   0.15206   0.00000  Uiso   1.00
H1173  H     0.55993   0.05557   0.15998   0.00000  Uiso   1.00
C1174  C     0.51048   0.03329   0.18413   0.00000  Uiso   1.00
H1175  H     0.52616   0.01301   0.20105   0.00000  Uiso   1.00
H1176  H     0.50046   0.01995   0.15708   0.00000  Uiso   1.00
H1177  H     0.98681   0.04222   0.20164   0.00000  Uiso   1.00
O1178  O     0.92940   0.37733   0.80697   0.00000  Uiso   1.00
C1179  C     0.91675   0.35856   0.84019   0.00000  Uiso   1.00
H1180  H     0.90819   0.33018   0.83257   0.00000  Uiso   1.00
H1181  H     0.89327   0.37312   0.85343   0.00000  Uiso   1.00
C1182  C     0.94756   0.35678   0.87006   0.00000  Uiso   1.00
H1183  H     0.97249   0.34609   0.85589   0.00000  Uiso   1.00
H1184  H     0.95367   0.38462   0.88120   0.00000  Uiso   1.00
C1185  C     0.93754   0.33209   0.90408   0.00000  Uiso   1.00
H1186  H     0.91307   0.34260   0.91929   0.00000  Uiso   1.00
H1187  H     0.96052   0.33104   0.92508   0.00000  Uiso   1.00
H1188  H     0.93193   0.30406   0.89332   0.00000  Uiso   1.00
O1189  O     0.89436   0.05358   0.23484   0.00000  Uiso   1.00
C1190  C     0.89938   0.03689   0.27163   0.00000  Uiso   1.00
H1191  H     0.89304   0.00741   0.26833   0.00000  Uiso   1.00
H1192  H     0.88054   0.04727   0.29456   0.00000  Uiso   1.00
C1193  C     0.93898   0.04085   0.28519   0.00000  Uiso   1.00
H1194  H     0.95713   0.02665   0.26430   0.00000  Uiso   1.00
H1195  H     0.94689   0.07010   0.28613   0.00000  Uiso   1.00
C1196  C     0.94421   0.02484   0.32576   0.00000  Uiso   1.00
H1197  H     0.92810   0.04046   0.34737   0.00000  Uiso   1.00
H1198  H     0.97339   0.02654   0.33408   0.00000  Uiso   1.00
H1199  H     0.93539   0.49585   0.32637   0.00000  Uiso   1.00
O1200  O     0.60677   0.44605   0.77344   0.00000  Uiso   1.00
C1201  C     0.60317   0.44623   0.81444   0.00000  Uiso   1.00
H1202  H     0.62705   0.43309   0.82871   0.00000  Uiso   1.00
H1203  H     0.57787   0.43160   0.82324   0.00000  Uiso   1.00
C1204  C     0.60100   0.48564   0.82877   0.00000  Uiso   1.00
H1205  H     0.62536   0.00100   0.81863   0.00000  Uiso   1.00
H1206  H     0.57631   0.49873   0.81656   0.00000  Uiso   1.00
C1207  C     0.59938   0.48757   0.87311   0.00000  Uiso   1.00
H1208  H     0.57485   0.47298   0.88398   0.00000  Uiso   1.00
H1209  H     0.59801   0.01650   0.88251   0.00000  Uiso   1.00
H1210  H     0.62413   0.47522   0.88602   0.00000  Uiso   1.00
O1211  O     0.94738   0.39484   0.23662   0.00000  Uiso   1.00
C1212  C     0.96477   0.39952   0.27318   0.00000  Uiso   1.00
H1213  H     0.98675   0.37896   0.27558   0.00000  Uiso   1.00
H1214  H     0.94646   0.39583   0.29891   0.00000  Uiso   1.00
C1215  C     0.98174   0.43763   0.27521   0.00000  Uiso   1.00
H1216  H     0.50168   0.44116   0.25125   0.00000  Uiso   1.00
H1217  H     0.96004   0.45827   0.27153   0.00000  Uiso   1.00
C1218  C     0.50108   0.44398   0.31400   0.00000  Uiso   1.00
H1219  H     0.98135   0.44230   0.33842   0.00000  Uiso   1.00
H1220  H     0.51380   0.47149   0.31416   0.00000  Uiso   1.00
H1221  H     0.52267   0.42332   0.31835   0.00000  Uiso   1.00
O1222  O     0.55481   0.10650   0.77321   0.00000  Uiso   1.00
C1223  C     0.55541   0.10073   0.81394   0.00000  Uiso   1.00
H1224  H     0.56108   0.12688   0.82944   0.00000  Uiso   1.00
H1225  H     0.57650   0.08052   0.82243   0.00000  Uiso   1.00
C1226  C     0.51850   0.08606   0.82709   0.00000  Uiso   1.00
H1227  H     0.99736   0.10707   0.82208   0.00000  Uiso   1.00
H1228  H     0.51140   0.06139   0.80974   0.00000  Uiso   1.00
C1229  C     0.51924   0.07610   0.87023   0.00000  Uiso   1.00
H1230  H     0.54031   0.05518   0.87585   0.00000  Uiso   1.00
H1231  H     0.99253   0.06467   0.87908   0.00000  Uiso   1.00
H1232  H     0.52511   0.10067   0.88820   0.00000  Uiso   1.00
O1233  O     0.60519   0.05242   0.76238   0.00000  Uiso   1.00
C1234  C     0.60086   0.03517   0.72568   0.00000  Uiso   1.00
H1235  H     0.62192   0.01368   0.72296   0.00000  Uiso   1.00
H1236  H     0.60397   0.05380   0.70014   0.00000  Uiso   1.00
C1237  C     0.56321   0.01729   0.72366   0.00000  Uiso   1.00
H1238  H     0.56021   0.49714   0.74751   0.00000  Uiso   1.00
H1239  H     0.54209   0.03850   0.72760   0.00000  Uiso   1.00
C1240  C     0.55724   0.49800   0.68473   0.00000  Uiso   1.00
H1241  H     0.55881   0.01786   0.66043   0.00000  Uiso   1.00
H1242  H     0.52989   0.48500   0.68439   0.00000  Uiso   1.00
H1243  H     0.57812   0.47661   0.68033   0.00000  Uiso   1.00
O1244  O     0.89324   0.44518   0.22605   0.00000  Uiso   1.00
C1245  C     0.89898   0.44446   0.18533   0.00000  Uiso   1.00
H1246  H     0.87277   0.43921   0.16989   0.00000  Uiso   1.00
H1247  H     0.91882   0.42304   0.17671   0.00000  Uiso   1.00
C1248  C     0.91420   0.48121   0.17227   0.00000  Uiso   1.00
H1249  H     0.89347   0.00264   0.17722   0.00000  Uiso   1.00
H1250  H     0.93884   0.48799   0.18975   0.00000  Uiso   1.00
C1251  C     0.92437   0.48036   0.12920   0.00000  Uiso   1.00
H1252  H     0.94497   0.45895   0.12362   0.00000  Uiso   1.00
H1253  H     0.93624   0.00694   0.12054   0.00000  Uiso   1.00
H1254  H     0.89985   0.47489   0.11108   0.00000  Uiso   1.00
O1255  O     0.55205   0.39491   0.76350   0.00000  Uiso   1.00
C1256  C     0.53561   0.39935   0.72655   0.00000  Uiso   1.00
H1257  H     0.53560   0.37324   0.70992   0.00000  Uiso   1.00
H1258  H     0.55029   0.42046   0.70930   0.00000  Uiso   1.00
C1259  C     0.99623   0.41142   0.73197   0.00000  Uiso   1.00
H1260  H     0.98235   0.39284   0.75273   0.00000  Uiso   1.00
H1261  H     0.99599   0.43944   0.74421   0.00000  Uiso   1.00
C1262  C     0.97539   0.41108   0.69349   0.00000  Uiso   1.00
H1263  H     0.98843   0.42994   0.67240   0.00000  Uiso   1.00
H1264  H     0.94694   0.41999   0.69852   0.00000  Uiso   1.00
H1265  H     0.97476   0.38314   0.68095   0.00000  Uiso   1.00
O1266  O     0.94232   0.10829   0.21852   0.00000  Uiso   1.00
C1267  C     0.94243   0.11610   0.17806   0.00000  Uiso   1.00
H1268  H     0.97120   0.12058   0.16944   0.00000  Uiso   1.00
H1269  H     0.92791   0.14182   0.17065   0.00000  Uiso   1.00
C1270  C     0.92632   0.08458   0.15410   0.00000  Uiso   1.00
H1271  H     0.93461   0.05820   0.16681   0.00000  Uiso   1.00
H1272  H     0.89612   0.08602   0.15500   0.00000  Uiso   1.00
C1273  C     0.93898   0.08608   0.11176   0.00000  Uiso   1.00
H1274  H     0.93683   0.11414   0.10005   0.00000  Uiso   1.00
H1275  H     0.92193   0.06756   0.09365   0.00000  Uiso   1.00
H1276  H     0.96776   0.07728   0.10960   0.00000  Uiso   1.00
O1277  O     0.88111   0.43320   0.80232   0.00000  Uiso   1.00
C1278  C     0.91053   0.45612   0.79118   0.00000  Uiso   1.00
H1279  H     0.89918   0.48124   0.77799   0.00000  Uiso   1.00
H1280  H     0.92930   0.44386   0.76927   0.00000  Uiso   1.00
C1281  C     0.93270   0.46650   0.82734   0.00000  Uiso   1.00
H1282  H     0.91509   0.48125   0.84827   0.00000  Uiso   1.00
H1283  H     0.94258   0.44146   0.84190   0.00000  Uiso   1.00
C1284  C     0.96544   0.49037   0.81700   0.00000  Uiso   1.00
H1285  H     0.98595   0.47425   0.80086   0.00000  Uiso   1.00
H1286  H     0.97831   0.00093   0.84407   0.00000  Uiso   1.00
H1287  H     0.95692   0.01373   0.79877   0.00000  Uiso   1.00
O1288  O     0.62306   0.07073   0.19304   0.00000  Uiso   1.00
C1289  C     0.64151   0.08385   0.15982   0.00000  Uiso   1.00
H1290  H     0.66977   0.09266   0.16737   0.00000  Uiso   1.00
H1291  H     0.62664   0.10727   0.14689   0.00000  Uiso   1.00
C1292  C     0.64354   0.05322   0.12966   0.00000  Uiso   1.00
H1293  H     0.65491   0.02841   0.14345   0.00000  Uiso   1.00
H1294  H     0.61573   0.04660   0.11890   0.00000  Uiso   1.00
C1295  C     0.66753   0.06399   0.09534   0.00000  Uiso   1.00
H1296  H     0.65615   0.08817   0.08035   0.00000  Uiso   1.00
H1297  H     0.66900   0.04103   0.07426   0.00000  Uiso   1.00
H1298  H     0.69549   0.07042   0.10570   0.00000  Uiso   1.00
O1299  O     0.94646   0.10536   0.76445   0.00000  Uiso   1.00
C1300  C     0.96337   0.10045   0.72774   0.00000  Uiso   1.00
H1301  H     0.99280   0.10663   0.73130   0.00000  Uiso   1.00
H1302  H     0.95326   0.11950   0.70490   0.00000  Uiso   1.00
C1303  C     0.95929   0.06089   0.71390   0.00000  Uiso   1.00
H1304  H     0.97299   0.04253   0.73492   0.00000  Uiso   1.00
H1305  H     0.93002   0.05323   0.71247   0.00000  Uiso   1.00
C1306  C     0.97591   0.05567   0.67358   0.00000  Uiso   1.00
H1307  H     0.96099   0.07216   0.65175   0.00000  Uiso   1.00
H1308  H     0.97399   0.02651   0.66503   0.00000  Uiso   1.00
H1309  H     0.50500   0.06408   0.67363   0.00000  Uiso   1.00
O1310  O     0.55412   0.39341   0.22748   0.00000  Uiso   1.00
C1311  C     0.55417   0.39709   0.18647   0.00000  Uiso   1.00
H1312  H     0.56763   0.37335   0.17218   0.00000  Uiso   1.00
H1313  H     0.56860   0.42258   0.17786   0.00000  Uiso   1.00
C1314  C     0.51490   0.39891   0.17183   0.00000  Uiso   1.00
H1315  H     0.99965   0.37448   0.18199   0.00000  Uiso   1.00
H1316  H     0.50156   0.42362   0.18377   0.00000  Uiso   1.00
C1317  C     0.51330   0.40026   0.12747   0.00000  Uiso   1.00
H1318  H     0.52787   0.42480   0.11656   0.00000  Uiso   1.00
H1319  H     0.98447   0.40148   0.11786   0.00000  Uiso   1.00
H1320  H     0.52580   0.37543   0.11479   0.00000  Uiso   1.00
O1321  O     0.85549   0.19819   0.73901   0.00000  Uiso   1.00
C1322  C     0.84998   0.21297   0.77661   0.00000  Uiso   1.00
H1323  H     0.87382   0.20808   0.79603   0.00000  Uiso   1.00
H1324  H     0.82527   0.20062   0.79003   0.00000  Uiso   1.00
C1325  C     0.84465   0.25407   0.77331   0.00000  Uiso   1.00
H1326  H     0.86800   0.26622   0.75746   0.00000  Uiso   1.00
H1327  H     0.81956   0.25945   0.75645   0.00000  Uiso   1.00
C1328  C     0.84167   0.27216   0.81323   0.00000  Uiso   1.00
H1329  H     0.81803   0.26087   0.82939   0.00000  Uiso   1.00
H1330  H     0.83784   0.30196   0.80957   0.00000  Uiso   1.00
H1331  H     0.86692   0.26769   0.83037   0.00000  Uiso   1.00
O1332  O     0.64146   0.30774   0.28180   0.00000  Uiso   1.00
C1333  C     0.63357   0.30792   0.32225   0.00000  Uiso   1.00
H1334  H     0.62910   0.27918   0.33108   0.00000  Uiso   1.00
H1335  H     0.60785   0.32249   0.32950   0.00000  Uiso   1.00
C1336  C     0.66498   0.32428   0.34614   0.00000  Uiso   1.00
H1337  H     0.69137   0.31593   0.33351   0.00000  Uiso   1.00
H1338  H     0.66351   0.35451   0.34502   0.00000  Uiso   1.00
C1339  C     0.66341   0.31191   0.38855   0.00000  Uiso   1.00
H1340  H     0.63541   0.31437   0.40028   0.00000  Uiso   1.00
H1341  H     0.68201   0.32899   0.40652   0.00000  Uiso   1.00
H1342  H     0.67199   0.28305   0.39088   0.00000  Uiso   1.00
O1343  O     0.81425   0.36517   0.70257   0.00000  Uiso   1.00
C1344  C     0.79162   0.33778   0.71920   0.00000  Uiso   1.00
H1345  H     0.76444   0.34998   0.72422   0.00000  Uiso   1.00
H1346  H     0.80095   0.32745   0.74812   0.00000  Uiso   1.00
C1347  C     0.78774   0.30548   0.69096   0.00000  Uiso   1.00
H1348  H     0.78305   0.31565   0.66098   0.00000  Uiso   1.00
H1349  H     0.81317   0.28941   0.69059   0.00000  Uiso   1.00
C1350  C     0.75658   0.28001   0.70252   0.00000  Uiso   1.00
H1351  H     0.76178   0.26793   0.73154   0.00000  Uiso   1.00
H1352  H     0.75408   0.25758   0.68089   0.00000  Uiso   1.00
H1353  H     0.73048   0.29501   0.70350   0.00000  Uiso   1.00
O1354  O     0.67928   0.12719   0.30684   0.00000  Uiso   1.00
C1355  C     0.66619   0.10888   0.34016   0.00000  Uiso   1.00
H1356  H     0.65727   0.08058   0.33272   0.00000  Uiso   1.00
H1357  H     0.64289   0.12390   0.35315   0.00000  Uiso   1.00
C1358  C     0.69684   0.10682   0.37019   0.00000  Uiso   1.00
H1359  H     0.72150   0.09517   0.35636   0.00000  Uiso   1.00
H1360  H     0.70369   0.13469   0.38075   0.00000  Uiso   1.00
C1361  C     0.68601   0.08311   0.40471   0.00000  Uiso   1.00
H1362  H     0.66201   0.09482   0.41976   0.00000  Uiso   1.00
H1363  H     0.70899   0.08158   0.42567   0.00000  Uiso   1.00
H1364  H     0.67931   0.05510   0.39457   0.00000  Uiso   1.00
O1365  O     0.64458   0.30390   0.73571   0.00000  Uiso   1.00
C1366  C     0.64895   0.28763   0.77287   0.00000  Uiso   1.00
H1367  H     0.64191   0.25828   0.77012   0.00000  Uiso   1.00
H1368  H     0.63031   0.29877   0.79558   0.00000  Uiso   1.00
C1369  C     0.68854   0.29091   0.78651   0.00000  Uiso   1.00
H1370  H     0.70604   0.27474   0.76681   0.00000  Uiso   1.00
H1371  H     0.69762   0.31983   0.78546   0.00000  Uiso   1.00
C1372  C     0.69311   0.27695   0.82802   0.00000  Uiso   1.00
H1373  H     0.67759   0.29434   0.84854   0.00000  Uiso   1.00
H1374  H     0.72231   0.27801   0.83632   0.00000  Uiso   1.00
H1375  H     0.68327   0.24835   0.83035   0.00000  Uiso   1.00
O1376  O     0.85660   0.19621   0.27187   0.00000  Uiso   1.00
C1377  C     0.85242   0.19668   0.31283   0.00000  Uiso   1.00
H1378  H     0.87592   0.18334   0.32759   0.00000  Uiso   1.00
H1379  H     0.82682   0.18240   0.32131   0.00000  Uiso   1.00
C1380  C     0.85050   0.23619   0.32689   0.00000  Uiso   1.00
H1381  H     0.87515   0.25121   0.31699   0.00000  Uiso   1.00
H1382  H     0.82609   0.24948   0.31431   0.00000  Uiso   1.00
C1383  C     0.84838   0.23845   0.37117   0.00000  Uiso   1.00
H1384  H     0.82349   0.22433   0.38181   0.00000  Uiso   1.00
H1385  H     0.84736   0.26747   0.38032   0.00000  Uiso   1.00
H1386  H     0.87279   0.22584   0.38448   0.00000  Uiso   1.00
O1387  O     0.69775   0.14511   0.73898   0.00000  Uiso   1.00
C1388  C     0.71405   0.14887   0.77624   0.00000  Uiso   1.00
H1389  H     0.73606   0.12834   0.77872   0.00000  Uiso   1.00
H1390  H     0.69502   0.14437   0.80121   0.00000  Uiso   1.00
C1391  C     0.73077   0.18698   0.78003   0.00000  Uiso   1.00
H1392  H     0.75146   0.19118   0.75692   0.00000  Uiso   1.00
H1393  H     0.70909   0.20762   0.77620   0.00000  Uiso   1.00
C1394  C     0.74880   0.19245   0.81970   0.00000  Uiso   1.00
H1395  H     0.72831   0.18999   0.84331   0.00000  Uiso   1.00
H1396  H     0.76127   0.22005   0.82115   0.00000  Uiso   1.00
H1397  H     0.77046   0.17188   0.82422   0.00000  Uiso   1.00
O1398  O     0.80484   0.35660   0.27364   0.00000  Uiso   1.00
C1399  C     0.80549   0.35081   0.31434   0.00000  Uiso   1.00
H1400  H     0.81135   0.37692   0.32985   0.00000  Uiso   1.00
H1401  H     0.82644   0.33044   0.32278   0.00000  Uiso   1.00
C1402  C     0.76849   0.33640   0.32751   0.00000  Uiso   1.00
H1403  H     0.74749   0.35755   0.32247   0.00000  Uiso   1.00
H1404  H     0.76124   0.31176   0.31019   0.00000  Uiso   1.00
C1405  C     0.76913   0.32650   0.37065   0.00000  Uiso   1.00
H1406  H     0.79008   0.30547   0.37633   0.00000  Uiso   1.00
H1407  H     0.74236   0.31521   0.37942   0.00000  Uiso   1.00
H1408  H     0.77509   0.35105   0.38861   0.00000  Uiso   1.00
O1409  O     0.85515   0.30243   0.26272   0.00000  Uiso   1.00
C1410  C     0.85096   0.28514   0.22601   0.00000  Uiso   1.00
H1411  H     0.87140   0.26302   0.22385   0.00000  Uiso   1.00
H1412  H     0.85517   0.30352   0.20043   0.00000  Uiso   1.00
C1413  C     0.81285   0.26837   0.22325   0.00000  Uiso   1.00
H1414  H     0.80888   0.24824   0.24695   0.00000  Uiso   1.00
H1415  H     0.79230   0.29019   0.22684   0.00000  Uiso   1.00
C1416  C     0.80694   0.24933   0.18418   0.00000  Uiso   1.00
H1417  H     0.80893   0.26928   0.16000   0.00000  Uiso   1.00
H1418  H     0.77945   0.23663   0.18355   0.00000  Uiso   1.00
H1419  H     0.82757   0.22769   0.17987   0.00000  Uiso   1.00
O1420  O     0.64368   0.19624   0.72972   0.00000  Uiso   1.00
C1421  C     0.65177   0.19800   0.68951   0.00000  Uiso   1.00
H1422  H     0.62849   0.18754   0.67175   0.00000  Uiso   1.00
H1423  H     0.67652   0.18192   0.68254   0.00000  Uiso   1.00
C1424  C     0.65893   0.23766   0.67846   0.00000  Uiso   1.00
H1425  H     0.63348   0.25349   0.68222   0.00000  Uiso   1.00
H1426  H     0.68018   0.24920   0.69802   0.00000  Uiso   1.00
C1427  C     0.67176   0.24118   0.63641   0.00000  Uiso   1.00
H1428  H     0.69774   0.22633   0.63222   0.00000  Uiso   1.00
H1429  H     0.67639   0.27040   0.62948   0.00000  Uiso   1.00
H1430  H     0.65086   0.23001   0.61617   0.00000  Uiso   1.00
O1431  O     0.80197   0.14492   0.26206   0.00000  Uiso   1.00
C1432  C     0.78585   0.14928   0.22495   0.00000  Uiso   1.00
H1433  H     0.78615   0.12317   0.20831   0.00000  Uiso   1.00
H1434  H     0.80057   0.17051   0.20788   0.00000  Uiso   1.00
C1435  C     0.74634   0.16111   0.22993   0.00000  Uiso   1.00
H1436  H     0.73227   0.14225   0.25027   0.00000  Uiso   1.00
H1437  H     0.74580   0.18899   0.24252   0.00000  Uiso   1.00
C1438  C     0.72600   0.16110   0.19114   0.00000  Uiso   1.00
H1439  H     0.73916   0.18030   0.17048   0.00000  Uiso   1.00
H1440  H     0.69742   0.16974   0.19589   0.00000  Uiso   1.00
H1441  H     0.72574   0.13331   0.17822   0.00000  Uiso   1.00
O1442  O     0.68982   0.35997   0.71339   0.00000  Uiso   1.00
C1443  C     0.68257   0.36661   0.67350   0.00000  Uiso   1.00
H1444  H     0.67322   0.39518   0.66907   0.00000  Uiso   1.00
H1445  H     0.66115   0.34755   0.66240   0.00000  Uiso   1.00
C1446  C     0.71709   0.36088   0.64963   0.00000  Uiso   1.00
H1447  H     0.74037   0.37515   0.66379   0.00000  Uiso   1.00
H1448  H     0.72279   0.33130   0.64791   0.00000  Uiso   1.00
C1449  C     0.71298   0.37540   0.60836   0.00000  Uiso   1.00
H1450  H     0.68928   0.36231   0.59372   0.00000  Uiso   1.00
H1451  H     0.73793   0.36931   0.59139   0.00000  Uiso   1.00
H1452  H     0.70929   0.40540   0.60913   0.00000  Uiso   1.00
O1453  O     0.63148   0.18340   0.30175   0.00000  Uiso   1.00
C1454  C     0.66104   0.20608   0.29045   0.00000  Uiso   1.00
H1455  H     0.64980   0.23148   0.27780   0.00000  Uiso   1.00
H1456  H     0.67936   0.19390   0.26804   0.00000  Uiso   1.00
C1457  C     0.68384   0.21572   0.32638   0.00000  Uiso   1.00
H1458  H     0.66649   0.22983   0.34803   0.00000  Uiso   1.00
H1459  H     0.69413   0.19044   0.34009   0.00000  Uiso   1.00
C1460  C     0.71626   0.24002   0.31602   0.00000  Uiso   1.00
H1461  H     0.73657   0.22441   0.29904   0.00000  Uiso   1.00
H1462  H     0.72952   0.25008   0.34308   0.00000  Uiso   1.00
H1463  H     0.70728   0.26371   0.29857   0.00000  Uiso   1.00
O1464  O     0.87227   0.32015   0.69413   0.00000  Uiso   1.00
C1465  C     0.89034   0.33329   0.66070   0.00000  Uiso   1.00
H1466  H     0.91870   0.34209   0.66789   0.00000  Uiso   1.00
H1467  H     0.87534   0.35675   0.64800   0.00000  Uiso   1.00
C1468  C     0.89194   0.30265   0.63053   0.00000  Uiso   1.00
H1469  H     0.90271   0.27758   0.64437   0.00000  Uiso   1.00
H1470  H     0.86402   0.29664   0.61964   0.00000  Uiso   1.00
C1471  C     0.91643   0.31287   0.59639   0.00000  Uiso   1.00
H1472  H     0.90612   0.33771   0.58172   0.00000  Uiso   1.00
H1473  H     0.91700   0.29013   0.57499   0.00000  Uiso   1.00
H1474  H     0.94460   0.31795   0.60691   0.00000  Uiso   1.00
O1475  O     0.69625   0.35556   0.26528   0.00000  Uiso   1.00
C1476  C     0.71289   0.35029   0.22847   0.00000  Uiso   1.00
H1477  H     0.74227   0.35694   0.23157   0.00000  Uiso   1.00
H1478  H     0.70230   0.36881   0.20537   0.00000  Uiso   1.00
C1479  C     0.70926   0.31046   0.21539   0.00000  Uiso   1.00
H1480  H     0.72404   0.29271   0.23616   0.00000  Uiso   1.00
H1481  H     0.68016   0.30212   0.21512   0.00000  Uiso   1.00
C1482  C     0.72464   0.30501   0.17455   0.00000  Uiso   1.00
H1483  H     0.70838   0.32060   0.15308   0.00000  Uiso   1.00
H1484  H     0.72330   0.27567   0.16662   0.00000  Uiso   1.00
H1485  H     0.75343   0.31432   0.17321   0.00000  Uiso   1.00
O1486  O     0.80389   0.14365   0.72847   0.00000  Uiso   1.00
C1487  C     0.80325   0.14878   0.68766   0.00000  Uiso   1.00
H1488  H     0.81545   0.12501   0.67219   0.00000  Uiso   1.00
H1489  H     0.81847   0.17399   0.67961   0.00000  Uiso   1.00
C1490  C     0.76382   0.15267   0.67414   0.00000  Uiso   1.00
H1491  H     0.74804   0.12809   0.68290   0.00000  Uiso   1.00
H1492  H     0.75152   0.17697   0.68816   0.00000  Uiso   1.00
C1493  C     0.76140   0.15691   0.63004   0.00000  Uiso   1.00
H1494  H     0.77672   0.18153   0.62056   0.00000  Uiso   1.00
H1495  H     0.73246   0.15993   0.62131   0.00000  Uiso   1.00
H1496  H     0.77266   0.13248   0.61526   0.00000  Uiso   1.00
O1497  O     0.52049   0.31393   0.39793   0.00000  Uiso   1.00
H1498  H     0.51168   0.31341   0.37073   0.00000  Uiso   1.00
O1499  O     0.96940   0.19120   0.60170   0.00000  Uiso   1.00
H1500  H     0.98138   0.18821   0.62729   0.00000  Uiso   1.00
O1501  O     0.68818   0.47493   0.39794   0.00000  Uiso   1.00
H1502  H     0.68762   0.48367   0.37075   0.00000  Uiso   1.00
O1503  O     0.81179   0.02292   0.60184   0.00000  Uiso   1.00
H1504  H     0.81293   0.01077   0.62748   0.00000  Uiso   1.00
O1505  O     0.97657   0.18808   0.39846   0.00000  Uiso   1.00
H1506  H     0.98808   0.18706   0.37248   0.00000  Uiso   1.00
O1507  O     0.52892   0.31028   0.60196   0.00000  Uiso   1.00
H1508  H     0.51925   0.31192   0.62875   0.00000  Uiso   1.00
O1509  O     0.81027   0.02786   0.39825   0.00000  Uiso   1.00
H1510  H     0.81233   0.01607   0.37242   0.00000  Uiso   1.00
O1511  O     0.68651   0.47767   0.60159   0.00000  Uiso   1.00
H1512  H     0.68744   0.48439   0.62944   0.00000  Uiso   1.00
O1513  O     0.77052   0.06379   0.89810   0.00000  Uiso   1.00
H1514  H     0.76218   0.06317   0.87074   0.00000  Uiso   1.00
O1515  O     0.72238   0.43982   0.10181   0.00000  Uiso   1.00
H1516  H     0.73415   0.43768   0.12761   0.00000  Uiso   1.00
O1517  O     0.93879   0.22259   0.89800   0.00000  Uiso   1.00
H1518  H     0.93779   0.23178   0.87099   0.00000  Uiso   1.00
O1519  O     0.56269   0.27073   0.10153   0.00000  Uiso   1.00
H1520  H     0.56312   0.25963   0.12772   0.00000  Uiso   1.00
O1521  O     0.72801   0.43743   0.89830   0.00000  Uiso   1.00
H1522  H     0.73919   0.43681   0.87214   0.00000  Uiso   1.00
O1523  O     0.77569   0.06188   0.10193   0.00000  Uiso   1.00
H1524  H     0.76712   0.06242   0.12918   0.00000  Uiso   1.00
O1525  O     0.55964   0.27826   0.89828   0.00000  Uiso   1.00
H1526  H     0.56200   0.26659   0.87242   0.00000  Uiso   1.00
O1527  O     0.93558   0.23114   0.10215   0.00000  Uiso   1.00
H1528  H     0.93644   0.23976   0.12942   0.00000  Uiso   1.00
C1529  C     0.01010   0.78269   0.41776   0.00000  Uiso   1.00
C1530  C     0.48443   0.72051   0.58194   0.00000  Uiso   1.00
C1531  C     0.21808   0.98905   0.41768   0.00000  Uiso   1.00
C1532  C     0.28015   0.51327   0.58218   0.00000  Uiso   1.00
C1533  C     0.48617   0.71994   0.41785   0.00000  Uiso   1.00
C1534  C     0.01323   0.78116   0.58220   0.00000  Uiso   1.00
C1535  C     0.28000   0.51484   0.41798   0.00000  Uiso   1.00
C1536  C     0.21752   0.98911   0.58203   0.00000  Uiso   1.00
C1537  C     0.26023   0.53244   0.91781   0.00000  Uiso   1.00
C1538  C     0.23574   0.96994   0.08205   0.00000  Uiso   1.00
C1539  C     0.46838   0.73731   0.91777   0.00000  Uiso   1.00
C1540  C     0.03061   0.76214   0.08212   0.00000  Uiso   1.00
C1541  C     0.23720   0.96934   0.91782   0.00000  Uiso   1.00
C1542  C     0.26157   0.53191   0.08224   0.00000  Uiso   1.00
C1543  C     0.02980   0.76425   0.91800   0.00000  Uiso   1.00
C1544  C     0.46714   0.74042   0.08229   0.00000  Uiso   1.00
C1545  C     0.49943   0.75071   0.39780   0.00000  Uiso   1.00
C1546  C     0.49964   0.75043   0.60212   0.00000  Uiso   1.00
C1547  C     0.24956   0.50074   0.39782   0.00000  Uiso   1.00
C1548  C     0.24928   0.50018   0.60214   0.00000  Uiso   1.00
C1549  C     0.24965   0.50046   0.89779   0.00000  Uiso   1.00
C1550  C     0.24955   0.50055   0.10218   0.00000  Uiso   1.00
C1551  C     0.49937   0.75025   0.89784   0.00000  Uiso   1.00
C1552  C     0.49933   0.75032   0.10222   0.00000  Uiso   1.00
C1553  C     0.46724   0.69200   0.47930   0.00000  Uiso   1.00
C1554  C     0.02138   0.81403   0.52064   0.00000  Uiso   1.00
C1555  C     0.31009   0.52917   0.48014   0.00000  Uiso   1.00
C1556  C     0.18592   0.97858   0.51979   0.00000  Uiso   1.00
C1557  C     0.02228   0.81396   0.47995   0.00000  Uiso   1.00
C1558  C     0.46987   0.69044   0.51976   0.00000  Uiso   1.00
C1559  C     0.18524   0.98161   0.47922   0.00000  Uiso   1.00
C1560  C     0.30890   0.53125   0.52073   0.00000  Uiso   1.00
C1561  C     0.22004   0.94040   0.97945   0.00000  Uiso   1.00
C1562  C     0.26937   0.56453   0.02053   0.00000  Uiso   1.00
C1563  C     0.06055   0.77698   0.98003   0.00000  Uiso   1.00
C1564  C     0.43582   0.72828   0.02019   0.00000  Uiso   1.00
C1565  C     0.27177   0.56386   0.97995   0.00000  Uiso   1.00
C1566  C     0.22248   0.93928   0.01997   0.00000  Uiso   1.00
C1567  C     0.43566   0.72920   0.97949   0.00000  Uiso   1.00
C1568  C     0.05948   0.77928   0.02053   0.00000  Uiso   1.00
C1569  C     0.24997   0.50012   0.35565   0.00000  Uiso   1.00
C1570  C     0.24974   0.99998   0.64434   0.00000  Uiso   1.00
C1571  C     0.49995   0.75010   0.35563   0.00000  Uiso   1.00
C1572  C     0.49995   0.75013   0.64434   0.00000  Uiso   1.00
C1573  C     0.49973   0.75005   0.85565   0.00000  Uiso   1.00
C1574  C     0.49985   0.75001   0.14437   0.00000  Uiso   1.00
C1575  C     0.24998   0.50004   0.85563   0.00000  Uiso   1.00
C1576  C     0.24994   0.50020   0.14436   0.00000  Uiso   1.00
C1577  C     0.17998   0.57006   0.25000   0.00000  Uiso   1.00
C1578  C     0.31988   0.92969   0.75031   0.00000  Uiso   1.00
C1579  C     0.42962   0.68022   0.24937   0.00000  Uiso   1.00
C1580  C     0.06993   0.82000   0.75012   0.00000  Uiso   1.00
C1581  C     0.32011   0.92989   0.24999   0.00000  Uiso   1.00
C1582  C     0.18003   0.56999   0.74998   0.00000  Uiso   1.00
C1583  C     0.06978   0.82038   0.25060   0.00000  Uiso   1.00
C1584  C     0.43004   0.68005   0.74995   0.00000  Uiso   1.00
C1585  C     0.17953   0.93032   0.74930   0.00000  Uiso   1.00
C1586  C     0.31992   0.57001   0.25001   0.00000  Uiso   1.00
C1587  C     0.43000   0.82009   0.75000   0.00000  Uiso   1.00
C1588  C     0.07009   0.67990   0.24999   0.00000  Uiso   1.00
C1589  C     0.31976   0.57039   0.75059   0.00000  Uiso   1.00
C1590  C     0.18001   0.93008   0.25001   0.00000  Uiso   1.00
C1591  C     0.07014   0.67992   0.75007   0.00000  Uiso   1.00
C1592  C     0.43002   0.81997   0.24998   0.00000  Uiso   1.00
C1593  C     0.11526   0.91215   0.24307   0.00000  Uiso   1.00
C1594  C     0.38289   0.59109   0.76526   0.00000  Uiso   1.00
C1595  C     0.09573   0.62208   0.22389   0.00000  Uiso   1.00
C1596  C     0.40268   0.87589   0.77859   0.00000  Uiso   1.00
C1597  C     0.38360   0.58941   0.24005   0.00000  Uiso   1.00
C1598  C     0.11540   0.91111   0.76142   0.00000  Uiso   1.00
C1599  C     0.41148   0.88431   0.24197   0.00000  Uiso   1.00
C1600  C     0.08962   0.61576   0.76130   0.00000  Uiso   1.00
C1601  C     0.11568   0.58842   0.75735   0.00000  Uiso   1.00
C1602  C     0.38410   0.91035   0.23811   0.00000  Uiso   1.00
C1603  C     0.08793   0.88481   0.75800   0.00000  Uiso   1.00
C1604  C     0.40878   0.61717   0.23409   0.00000  Uiso   1.00
C1605  C     0.37768   0.90424   0.77652   0.00000  Uiso   1.00
C1606  C     0.12424   0.59733   0.22164   0.00000  Uiso   1.00
C1607  C     0.41072   0.61613   0.75904   0.00000  Uiso   1.00
C1608  C     0.08896   0.88471   0.23959   0.00000  Uiso   1.00
C1609  C     0.36540   0.66206   0.74301   0.00000  Uiso   1.00
C1610  C     0.13272   0.84123   0.26602   0.00000  Uiso   1.00
C1611  C     0.34465   0.87082   0.72577   0.00000  Uiso   1.00
C1612  C     0.15269   0.62591   0.27830   0.00000  Uiso   1.00
C1613  C     0.13352   0.83963   0.74036   0.00000  Uiso   1.00
C1614  C     0.36532   0.66117   0.26024   0.00000  Uiso   1.00
C1615  C     0.16168   0.63452   0.74277   0.00000  Uiso   1.00
C1616  C     0.33964   0.86580   0.26164   0.00000  Uiso   1.00
C1617  C     0.36568   0.83842   0.25772   0.00000  Uiso   1.00
C1618  C     0.13438   0.66074   0.73923   0.00000  Uiso   1.00
C1619  C     0.33791   0.63482   0.25693   0.00000  Uiso   1.00
C1620  C     0.15832   0.86756   0.73377   0.00000  Uiso   1.00
C1621  C     0.12788   0.65439   0.27608   0.00000  Uiso   1.00
C1622  C     0.37355   0.84671   0.72270   0.00000  Uiso   1.00
C1623  C     0.16050   0.86638   0.26008   0.00000  Uiso   1.00
C1624  C     0.33896   0.63472   0.73960   0.00000  Uiso   1.00
C1625  C     0.48325   0.72121   0.45863   0.00000  Uiso   1.00
C1626  C     0.01120   0.78222   0.54127   0.00000  Uiso   1.00
C1627  C     0.27961   0.51601   0.45898   0.00000  Uiso   1.00
C1628  C     0.21714   0.98989   0.54099   0.00000  Uiso   1.00
C1629  C     0.01032   0.78289   0.45884   0.00000  Uiso   1.00
C1630  C     0.48390   0.72062   0.54094   0.00000  Uiso   1.00
C1631  C     0.21716   0.99106   0.45860   0.00000  Uiso   1.00
C1632  C     0.27915   0.51617   0.54136   0.00000  Uiso   1.00
C1633  C     0.23456   0.97036   0.95867   0.00000  Uiso   1.00
C1634  C     0.25974   0.53269   0.04129   0.00000  Uiso   1.00
C1635  C     0.02976   0.76452   0.95897   0.00000  Uiso   1.00
C1636  C     0.46703   0.73986   0.04123   0.00000  Uiso   1.00
C1637  C     0.26020   0.53266   0.95885   0.00000  Uiso   1.00
C1638  C     0.23502   0.97008   0.04105   0.00000  Uiso   1.00
C1639  C     0.46749   0.73904   0.95875   0.00000  Uiso   1.00
C1640  C     0.02954   0.76481   0.04131   0.00000  Uiso   1.00
C1641  C     0.09738   0.84914   0.25218   0.00000  Uiso   1.00
C1642  C     0.40178   0.65233   0.75020   0.00000  Uiso   1.00
C1643  C     0.15199   0.59809   0.24998   0.00000  Uiso   1.00
C1644  C     0.34765   0.90125   0.75091   0.00000  Uiso   1.00
C1645  C     0.40087   0.65262   0.24777   0.00000  Uiso   1.00
C1646  C     0.09748   0.84845   0.74987   0.00000  Uiso   1.00
C1647  C     0.34827   0.90169   0.24994   0.00000  Uiso   1.00
C1648  C     0.15210   0.59797   0.74990   0.00000  Uiso   1.00
C1649  C     0.09837   0.65178   0.75015   0.00000  Uiso   1.00
C1650  C     0.40206   0.84790   0.24991   0.00000  Uiso   1.00
C1651  C     0.15073   0.90277   0.74807   0.00000  Uiso   1.00
C1652  C     0.34751   0.59840   0.24937   0.00000  Uiso   1.00
C1653  C     0.40187   0.84800   0.75032   0.00000  Uiso   1.00
C1654  C     0.09820   0.65181   0.24999   0.00000  Uiso   1.00
C1655  C     0.34744   0.59909   0.75188   0.00000  Uiso   1.00
C1656  C     0.15160   0.90251   0.25073   0.00000  Uiso   1.00
C1657  C     0.49719   0.75182   0.47932   0.00000  Uiso   1.00
C1658  C     0.49748   0.75153   0.52054   0.00000  Uiso   1.00
C1659  C     0.24833   0.50342   0.47937   0.00000  Uiso   1.00
C1660  C     0.24818   0.50320   0.52061   0.00000  Uiso   1.00
C1661  C     0.24739   0.50149   0.97934   0.00000  Uiso   1.00
C1662  C     0.24738   0.50142   0.02059   0.00000  Uiso   1.00
C1663  C     0.49853   0.75189   0.97944   0.00000  Uiso   1.00
C1664  C     0.49839   0.75207   0.02068   0.00000  Uiso   1.00
O1665  O     0.25000   0.50000   0.25000   0.00000  Uiso   1.00
O1666  O     0.25000   0.50000   0.75000   0.00000  Uiso   1.00
O1667  O     0.00000   0.75000   0.25000   0.00000  Uiso   1.00
O1668  O     0.00000   0.75000   0.75000   0.00000  Uiso   1.00
O1669  O     0.25000   0.96964   0.33755   0.00000  Uiso   1.00
O1670  O     0.25000   0.53036   0.66245   0.00000  Uiso   1.00
O1671  O     0.03037   0.75000   0.33755   0.00000  Uiso   1.00
O1672  O     0.46964   0.75000   0.66245   0.00000  Uiso   1.00
O1673  O     0.25000   0.53036   0.33755   0.00000  Uiso   1.00
O1674  O     0.25000   0.96964   0.66245   0.00000  Uiso   1.00
O1675  O     0.46964   0.75000   0.33755   0.00000  Uiso   1.00
O1676  O     0.03037   0.75000   0.66245   0.00000  Uiso   1.00
O1677  O     0.00000   0.71964   0.83755   0.00000  Uiso   1.00
O1678  O     0.00000   0.78037   0.16245   0.00000  Uiso   1.00
O1679  O     0.28037   0.50000   0.83755   0.00000  Uiso   1.00
O1680  O     0.21964   0.50000   0.16245   0.00000  Uiso   1.00
O1681  O     0.00000   0.78037   0.83755   0.00000  Uiso   1.00
O1682  O     0.00000   0.71964   0.16245   0.00000  Uiso   1.00
O1683  O     0.21964   0.50000   0.83755   0.00000  Uiso   1.00
O1684  O     0.28037   0.50000   0.16245   0.00000  Uiso   1.00
O1685  O     0.20725   0.57308   0.27302   0.00000  Uiso   1.00
O1686  O     0.29276   0.92693   0.72698   0.00000  Uiso   1.00
O1687  O     0.42693   0.70725   0.27302   0.00000  Uiso   1.00
O1688  O     0.07308   0.79276   0.72698   0.00000  Uiso   1.00
O1689  O     0.29276   0.92693   0.27302   0.00000  Uiso   1.00
O1690  O     0.20725   0.57308   0.72698   0.00000  Uiso   1.00
O1691  O     0.07308   0.79276   0.27302   0.00000  Uiso   1.00
O1692  O     0.42693   0.70725   0.72698   0.00000  Uiso   1.00
O1693  O     0.20725   0.92693   0.72698   0.00000  Uiso   1.00
O1694  O     0.29276   0.57308   0.27302   0.00000  Uiso   1.00
O1695  O     0.42693   0.79276   0.72698   0.00000  Uiso   1.00
O1696  O     0.07308   0.70725   0.27302   0.00000  Uiso   1.00
O1697  O     0.29276   0.57308   0.72698   0.00000  Uiso   1.00
O1698  O     0.20725   0.92693   0.27302   0.00000  Uiso   1.00
O1699  O     0.07308   0.70725   0.72698   0.00000  Uiso   1.00
O1700  O     0.42693   0.79276   0.27302   0.00000  Uiso   1.00
O1701  O     0.45725   0.82308   0.77302   0.00000  Uiso   1.00
O1702  O     0.04276   0.67693   0.22698   0.00000  Uiso   1.00
O1703  O     0.17693   0.95725   0.77302   0.00000  Uiso   1.00
O1704  O     0.32308   0.54275   0.22698   0.00000  Uiso   1.00
O1705  O     0.04276   0.67693   0.77302   0.00000  Uiso   1.00
O1706  O     0.45725   0.82308   0.22698   0.00000  Uiso   1.00
O1707  O     0.32308   0.54275   0.77302   0.00000  Uiso   1.00
O1708  O     0.17693   0.95725   0.22698   0.00000  Uiso   1.00
O1709  O     0.45725   0.67693   0.22698   0.00000  Uiso   1.00
O1710  O     0.04276   0.82308   0.77302   0.00000  Uiso   1.00
O1711  O     0.17693   0.54276   0.22698   0.00000  Uiso   1.00
O1712  O     0.32308   0.95725   0.77302   0.00000  Uiso   1.00
O1713  O     0.04276   0.82308   0.22698   0.00000  Uiso   1.00
O1714  O     0.45725   0.67693   0.77302   0.00000  Uiso   1.00
O1715  O     0.32308   0.95725   0.22698   0.00000  Uiso   1.00
O1716  O     0.17693   0.54276   0.77302   0.00000  Uiso   1.00
Zn1717 Zn    0.20660   0.50000   0.21735   0.00000  Uiso   1.00
Zn1718 Zn    0.29341   0.50000   0.78265   0.00000  Uiso   1.00
Zn1719 Zn    0.00000   0.70660   0.21735   0.00000  Uiso   1.00
Zn1720 Zn    0.00000   0.79341   0.78265   0.00000  Uiso   1.00
Zn1721 Zn    0.29341   0.50000   0.21735   0.00000  Uiso   1.00
Zn1722 Zn    0.20660   0.50000   0.78265   0.00000  Uiso   1.00
Zn1723 Zn    0.00000   0.79341   0.21735   0.00000  Uiso   1.00
Zn1724 Zn    0.00000   0.70660   0.78265   0.00000  Uiso   1.00
Zn1725 Zn    0.45660   0.75000   0.71735   0.00000  Uiso   1.00
Zn1726 Zn    0.04341   0.75000   0.28265   0.00000  Uiso   1.00
Zn1727 Zn    0.25000   0.95660   0.71735   0.00000  Uiso   1.00
Zn1728 Zn    0.25000   0.54341   0.28265   0.00000  Uiso   1.00
Zn1729 Zn    0.04341   0.75000   0.71735   0.00000  Uiso   1.00
Zn1730 Zn    0.45660   0.75000   0.28265   0.00000  Uiso   1.00
Zn1731 Zn    0.25000   0.54341   0.71735   0.00000  Uiso   1.00
Zn1732 Zn    0.25000   0.95660   0.28265   0.00000  Uiso   1.00
O1733  O     0.44984   0.66350   0.46028   0.00000  Uiso   1.00
C1734  C     0.41232   0.67133   0.45744   0.00000  Uiso   1.00
H1735  H     0.40795   0.69264   0.43496   0.00000  Uiso   1.00
H1736  H     0.40090   0.68098   0.48572   0.00000  Uiso   1.00
C1737  C     0.39193   0.63658   0.44562   0.00000  Uiso   1.00
H1738  H     0.40400   0.62530   0.41851   0.00000  Uiso   1.00
H1739  H     0.39480   0.61606   0.46914   0.00000  Uiso   1.00
C1740  C     0.35155   0.64372   0.43879   0.00000  Uiso   1.00
H1741  H     0.33886   0.65507   0.46549   0.00000  Uiso   1.00
H1742  H     0.33755   0.61773   0.43120   0.00000  Uiso   1.00
H1743  H     0.34793   0.66314   0.41437   0.00000  Uiso   1.00
O1744  O     0.03081   0.84593   0.53997   0.00000  Uiso   1.00
C1745  C     0.49928   0.86745   0.54442   0.00000  Uiso   1.00
H1746  H     0.47633   0.85128   0.55686   0.00000  Uiso   1.00
H1747  H     0.49073   0.87870   0.51579   0.00000  Uiso   1.00
C1748  C     0.00773   0.89908   0.57208   0.00000  Uiso   1.00
H1749  H     0.01795   0.88825   0.60023   0.00000  Uiso   1.00
H1750  H     0.02924   0.91663   0.55912   0.00000  Uiso   1.00
C1751  C     0.47401   0.92208   0.57977   0.00000  Uiso   1.00
H1752  H     0.46315   0.93312   0.55204   0.00000  Uiso   1.00
H1753  H     0.48129   0.94527   0.59918   0.00000  Uiso   1.00
H1754  H     0.45262   0.90540   0.59422   0.00000  Uiso   1.00
O1755  O     0.34070   0.54269   0.46147   0.00000  Uiso   1.00
C1756  C     0.36759   0.51530   0.46046   0.00000  Uiso   1.00
H1757  H     0.35741   0.99090   0.44427   0.00000  Uiso   1.00
H1758  H     0.37561   0.50698   0.49043   0.00000  Uiso   1.00
C1759  C     0.40126   0.53030   0.43974   0.00000  Uiso   1.00
H1760  H     0.39337   0.54051   0.41050   0.00000  Uiso   1.00
H1761  H     0.41271   0.55344   0.45682   0.00000  Uiso   1.00
C1762  C     0.43049   0.50125   0.43511   0.00000  Uiso   1.00
H1763  H     0.43901   0.99088   0.46407   0.00000  Uiso   1.00
H1764  H     0.45463   0.51323   0.42039   0.00000  Uiso   1.00
H1765  H     0.42005   0.97822   0.41713   0.00000  Uiso   1.00
O1766  O     0.15433   0.96756   0.53851   0.00000  Uiso   1.00
C1767  C     0.15105   0.92920   0.53586   0.00000  Uiso   1.00
H1768  H     0.17369   0.91581   0.55167   0.00000  Uiso   1.00
H1769  H     0.15165   0.91971   0.50509   0.00000  Uiso   1.00
C1770  C     0.11468   0.91684   0.55314   0.00000  Uiso   1.00
H1771  H     0.09212   0.93059   0.53750   0.00000  Uiso   1.00
H1772  H     0.11152   0.88696   0.54876   0.00000  Uiso   1.00
C1773  C     0.11206   0.92529   0.59662   0.00000  Uiso   1.00
H1774  H     0.13480   0.91228   0.61259   0.00000  Uiso   1.00
H1775  H     0.08599   0.91445   0.60823   0.00000  Uiso   1.00
H1776  H     0.11290   0.95519   0.60171   0.00000  Uiso   1.00
O1777  O     0.03018   0.84651   0.46136   0.00000  Uiso   1.00
C1778  C     0.06827   0.85061   0.45754   0.00000  Uiso   1.00
H1779  H     0.07897   0.82975   0.43700   0.00000  Uiso   1.00
H1780  H     0.08250   0.84773   0.48604   0.00000  Uiso   1.00
C1781  C     0.07626   0.88878   0.44165   0.00000  Uiso   1.00
H1782  H     0.05709   0.89501   0.41751   0.00000  Uiso   1.00
H1783  H     0.07201   0.90915   0.46520   0.00000  Uiso   1.00
C1784  C     0.11504   0.89221   0.42626   0.00000  Uiso   1.00
H1785  H     0.13500   0.88278   0.44829   0.00000  Uiso   1.00
H1786  H     0.12099   0.92106   0.41899   0.00000  Uiso   1.00
H1787  H     0.11791   0.87595   0.39921   0.00000  Uiso   1.00
O1788  O     0.45586   0.65983   0.53816   0.00000  Uiso   1.00
C1789  C     0.48375   0.63387   0.54428   0.00000  Uiso   1.00
H1790  H     0.47932   0.62191   0.57360   0.00000  Uiso   1.00
H1791  H     0.01182   0.64579   0.54459   0.00000  Uiso   1.00
C1792  C     0.48130   0.60317   0.51401   0.00000  Uiso   1.00
H1793  H     0.45262   0.59365   0.51130   0.00000  Uiso   1.00
H1794  H     0.49048   0.61346   0.48528   0.00000  Uiso   1.00
C1795  C     0.00515   0.57093   0.52521   0.00000  Uiso   1.00
H1796  H     0.03407   0.57969   0.52763   0.00000  Uiso   1.00
H1797  H     0.00299   0.54943   0.50248   0.00000  Uiso   1.00
H1798  H     0.49610   0.55925   0.55342   0.00000  Uiso   1.00
O1799  O     0.15296   0.97407   0.45986   0.00000  Uiso   1.00
C1800  C     0.13128   0.50576   0.45966   0.00000  Uiso   1.00
H1801  H     0.14733   0.53023   0.45081   0.00000  Uiso   1.00
H1802  H     0.11965   0.51057   0.48913   0.00000  Uiso   1.00
C1803  C     0.10006   0.50048   0.43068   0.00000  Uiso   1.00
H1804  H     0.11134   0.99406   0.40145   0.00000  Uiso   1.00
H1805  H     0.08270   0.97722   0.44012   0.00000  Uiso   1.00
C1806  C     0.07668   0.53460   0.42770   0.00000  Uiso   1.00
H1807  H     0.06493   0.54152   0.45655   0.00000  Uiso   1.00
H1808  H     0.05406   0.52965   0.40683   0.00000  Uiso   1.00
H1809  H     0.09327   0.55796   0.41707   0.00000  Uiso   1.00
O1810  O     0.33860   0.54630   0.53992   0.00000  Uiso   1.00
C1811  C     0.33368   0.58436   0.54298   0.00000  Uiso   1.00
H1812  H     0.30885   0.59056   0.56036   0.00000  Uiso   1.00
H1813  H     0.33114   0.59698   0.51362   0.00000  Uiso   1.00
C1814  C     0.36679   0.60105   0.56349   0.00000  Uiso   1.00
H1815  H     0.36994   0.58846   0.59270   0.00000  Uiso   1.00
H1816  H     0.39166   0.59524   0.54622   0.00000  Uiso   1.00
C1817  C     0.36300   0.64221   0.56830   0.00000  Uiso   1.00
H1818  H     0.36007   0.65544   0.53944   0.00000  Uiso   1.00
H1819  H     0.38766   0.65342   0.58286   0.00000  Uiso   1.00
H1820  H     0.33888   0.64862   0.58649   0.00000  Uiso   1.00
O1821  O     0.20484   0.91060   0.96056   0.00000  Uiso   1.00
C1822  C     0.16689   0.91596   0.95732   0.00000  Uiso   1.00
H1823  H     0.16122   0.93907   0.93727   0.00000  Uiso   1.00
H1824  H     0.15442   0.92176   0.98626   0.00000  Uiso   1.00
C1825  C     0.14935   0.88130   0.94093   0.00000  Uiso   1.00
H1826  H     0.16246   0.87405   0.91282   0.00000  Uiso   1.00
H1827  H     0.15365   0.85863   0.96177   0.00000  Uiso   1.00
C1828  C     0.10857   0.88607   0.93432   0.00000  Uiso   1.00
H1829  H     0.09484   0.89329   0.96205   0.00000  Uiso   1.00
H1830  H     0.09666   0.86016   0.92319   0.00000  Uiso   1.00
H1831  H     0.10363   0.90782   0.91255   0.00000  Uiso   1.00
O1832  O     0.27752   0.59683   0.03970   0.00000  Uiso   1.00
C1833  C     0.24587   0.61853   0.04104   0.00000  Uiso   1.00
H1834  H     0.22164   0.60239   0.05040   0.00000  Uiso   1.00
H1835  H     0.24037   0.63037   0.01184   0.00000  Uiso   1.00
C1836  C     0.25174   0.64958   0.07020   0.00000  Uiso   1.00
H1837  H     0.25916   0.63812   0.09905   0.00000  Uiso   1.00
H1838  H     0.27445   0.66729   0.06009   0.00000  Uiso   1.00
C1839  C     0.21753   0.67259   0.07474   0.00000  Uiso   1.00
H1840  H     0.20951   0.68443   0.04628   0.00000  Uiso   1.00
H1841  H     0.22294   0.69519   0.09557   0.00000  Uiso   1.00
H1842  H     0.19477   0.65567   0.08619   0.00000  Uiso   1.00
O1843  O     0.09180   0.78891   0.96138   0.00000  Uiso   1.00
C1844  C     0.11662   0.75967   0.95935   0.00000  Uiso   1.00
H1845  H     0.10416   0.73586   0.94395   0.00000  Uiso   1.00
H1846  H     0.12522   0.75115   0.98907   0.00000  Uiso   1.00
C1847  C     0.15030   0.77203   0.93681   0.00000  Uiso   1.00
H1848  H     0.14184   0.78275   0.90798   0.00000  Uiso   1.00
H1849  H     0.16425   0.79425   0.95315   0.00000  Uiso   1.00
C1850  C     0.17693   0.74076   0.93076   0.00000  Uiso   1.00
H1851  H     0.18578   0.72962   0.95926   0.00000  Uiso   1.00
H1852  H     0.20130   0.75086   0.91491   0.00000  Uiso   1.00
H1853  H     0.16400   0.71869   0.91326   0.00000  Uiso   1.00
O1854  O     0.40339   0.72027   0.03890   0.00000  Uiso   1.00
C1855  C     0.39951   0.68211   0.04272   0.00000  Uiso   1.00
H1856  H     0.42059   0.67145   0.06295   0.00000  Uiso   1.00
H1857  H     0.40207   0.66792   0.01411   0.00000  Uiso   1.00
C1858  C     0.36164   0.67398   0.05917   0.00000  Uiso   1.00
H1859  H     0.35623   0.69224   0.08437   0.00000  Uiso   1.00
H1860  H     0.34089   0.67946   0.03637   0.00000  Uiso   1.00
C1861  C     0.35800   0.63457   0.07268   0.00000  Uiso   1.00
H1862  H     0.36586   0.61542   0.04910   0.00000  Uiso   1.00
H1863  H     0.32946   0.62893   0.08128   0.00000  Uiso   1.00
H1864  H     0.37536   0.63010   0.09860   0.00000  Uiso   1.00
O1865  O     0.28274   0.59547   0.96127   0.00000  Uiso   1.00
C1866  C     0.32120   0.59671   0.96026   0.00000  Uiso   1.00
H1867  H     0.33192   0.57443   0.94151   0.00000  Uiso   1.00
H1868  H     0.33309   0.59375   0.98992   0.00000  Uiso   1.00
C1869  C     0.33390   0.63353   0.94426   0.00000  Uiso   1.00
H1870  H     0.32351   0.65569   0.96328   0.00000  Uiso   1.00
H1871  H     0.36413   0.63473   0.94491   0.00000  Uiso   1.00
C1872  C     0.32087   0.63976   0.90252   0.00000  Uiso   1.00
H1873  H     0.32997   0.61731   0.88319   0.00000  Uiso   1.00
H1874  H     0.33235   0.66578   0.89141   0.00000  Uiso   1.00
H1875  H     0.29070   0.64144   0.90153   0.00000  Uiso   1.00
O1876  O     0.21046   0.90805   0.03865   0.00000  Uiso   1.00
C1877  C     0.23947   0.88297   0.04038   0.00000  Uiso   1.00
H1878  H     0.26368   0.89540   0.05505   0.00000  Uiso   1.00
H1879  H     0.24732   0.87388   0.01059   0.00000  Uiso   1.00
C1880  C     0.22728   0.84966   0.06370   0.00000  Uiso   1.00
H1881  H     0.21727   0.85859   0.09270   0.00000  Uiso   1.00
H1882  H     0.20461   0.83571   0.04813   0.00000  Uiso   1.00
C1883  C     0.25835   0.82275   0.06931   0.00000  Uiso   1.00
H1884  H     0.26873   0.81336   0.04065   0.00000  Uiso   1.00
H1885  H     0.24838   0.79869   0.08580   0.00000  Uiso   1.00
H1886  H     0.28091   0.83572   0.08601   0.00000  Uiso   1.00
O1887  O     0.40380   0.71963   0.96028   0.00000  Uiso   1.00
C1888  C     0.38189   0.75097   0.95646   0.00000  Uiso   1.00
H1889  H     0.39758   0.77411   0.94377   0.00000  Uiso   1.00
H1890  H     0.37104   0.75937   0.98535   0.00000  Uiso   1.00
C1891  C     0.34989   0.74219   0.92947   0.00000  Uiso   1.00
H1892  H     0.36033   0.73216   0.90105   0.00000  Uiso   1.00
H1893  H     0.33288   0.72039   0.94272   0.00000  Uiso   1.00
C1894  C     0.32636   0.77567   0.92246   0.00000  Uiso   1.00
H1895  H     0.31561   0.78626   0.95048   0.00000  Uiso   1.00
H1896  H     0.30302   0.76816   0.90342   0.00000  Uiso   1.00
H1897  H     0.34252   0.79738   0.90787   0.00000  Uiso   1.00
O1898  O     0.08925   0.79453   0.03939   0.00000  Uiso   1.00
C1899  C     0.08375   0.83250   0.04292   0.00000  Uiso   1.00
H1900  H     0.06110   0.83796   0.06362   0.00000  Uiso   1.00
H1901  H     0.07722   0.84506   0.01422   0.00000  Uiso   1.00
C1902  C     0.11862   0.85024   0.05842   0.00000  Uiso   1.00
H1903  H     0.12669   0.83697   0.08616   0.00000  Uiso   1.00
H1904  H     0.14074   0.84627   0.03683   0.00000  Uiso   1.00
C1905  C     0.11369   0.89098   0.06557   0.00000  Uiso   1.00
H1906  H     0.10563   0.90486   0.03822   0.00000  Uiso   1.00
H1907  H     0.13974   0.90305   0.07601   0.00000  Uiso   1.00
H1908  H     0.09251   0.89558   0.08808   0.00000  Uiso   1.00
O1909  O     0.10518   0.94814   0.23796   0.00000  Uiso   1.00
C1910  C     0.10111   0.96441   0.27508   0.00000  Uiso   1.00
H1911  H     0.12738   0.96444   0.29131   0.00000  Uiso   1.00
H1912  H     0.08028   0.94954   0.29254   0.00000  Uiso   1.00
C1913  C     0.08882   0.50382   0.27015   0.00000  Uiso   1.00
H1914  H     0.10727   0.51801   0.24948   0.00000  Uiso   1.00
H1915  H     0.06082   0.50403   0.25800   0.00000  Uiso   1.00
C1916  C     0.08911   0.52434   0.30888   0.00000  Uiso   1.00
H1917  H     0.07031   0.51108   0.32989   0.00000  Uiso   1.00
H1918  H     0.08016   0.55286   0.30418   0.00000  Uiso   1.00
H1919  H     0.11701   0.52491   0.32138   0.00000  Uiso   1.00
O1920  O     0.39137   0.55809   0.78231   0.00000  Uiso   1.00
C1921  C     0.38362   0.56002   0.82275   0.00000  Uiso   1.00
H1922  H     0.37912   0.53174   0.83309   0.00000  Uiso   1.00
H1923  H     0.35796   0.57497   0.82933   0.00000  Uiso   1.00
C1924  C     0.41527   0.57720   0.84561   0.00000  Uiso   1.00
H1925  H     0.44127   0.56529   0.83569   0.00000  Uiso   1.00
H1926  H     0.41618   0.60704   0.84020   0.00000  Uiso   1.00
C1927  C     0.41119   0.57085   0.88926   0.00000  Uiso   1.00
H1928  H     0.38474   0.58149   0.89955   0.00000  Uiso   1.00
H1929  H     0.43331   0.58532   0.90516   0.00000  Uiso   1.00
H1930  H     0.41281   0.54128   0.89587   0.00000  Uiso   1.00
O1931  O     0.06677   0.61838   0.19825   0.00000  Uiso   1.00
C1932  C     0.04418   0.58875   0.20960   0.00000  Uiso   1.00
H1933  H     0.01877   0.59997   0.22225   0.00000  Uiso   1.00
H1934  H     0.05637   0.57049   0.23203   0.00000  Uiso   1.00
C1935  C     0.03465   0.56581   0.17371   0.00000  Uiso   1.00
H1936  H     0.02052   0.58310   0.15206   0.00000  Uiso   1.00
H1937  H     0.05993   0.55557   0.15998   0.00000  Uiso   1.00
C1938  C     0.01048   0.53329   0.18413   0.00000  Uiso   1.00
H1939  H     0.02616   0.51301   0.20105   0.00000  Uiso   1.00
H1940  H     0.00046   0.51995   0.15708   0.00000  Uiso   1.00
H1941  H     0.48681   0.54222   0.20164   0.00000  Uiso   1.00
O1942  O     0.42940   0.87733   0.80697   0.00000  Uiso   1.00
C1943  C     0.41675   0.85856   0.84019   0.00000  Uiso   1.00
H1944  H     0.40819   0.83018   0.83257   0.00000  Uiso   1.00
H1945  H     0.39327   0.87312   0.85343   0.00000  Uiso   1.00
C1946  C     0.44756   0.85678   0.87006   0.00000  Uiso   1.00
H1947  H     0.47249   0.84609   0.85589   0.00000  Uiso   1.00
H1948  H     0.45367   0.88462   0.88120   0.00000  Uiso   1.00
C1949  C     0.43754   0.83209   0.90408   0.00000  Uiso   1.00
H1950  H     0.41307   0.84260   0.91929   0.00000  Uiso   1.00
H1951  H     0.46052   0.83104   0.92508   0.00000  Uiso   1.00
H1952  H     0.43193   0.80406   0.89332   0.00000  Uiso   1.00
O1953  O     0.39436   0.55358   0.23484   0.00000  Uiso   1.00
C1954  C     0.39938   0.53689   0.27163   0.00000  Uiso   1.00
H1955  H     0.39304   0.50741   0.26833   0.00000  Uiso   1.00
H1956  H     0.38054   0.54727   0.29456   0.00000  Uiso   1.00
C1957  C     0.43898   0.54085   0.28519   0.00000  Uiso   1.00
H1958  H     0.45713   0.52665   0.26430   0.00000  Uiso   1.00
H1959  H     0.44689   0.57010   0.28613   0.00000  Uiso   1.00
C1960  C     0.44421   0.52484   0.32576   0.00000  Uiso   1.00
H1961  H     0.42810   0.54046   0.34737   0.00000  Uiso   1.00
H1962  H     0.47339   0.52654   0.33408   0.00000  Uiso   1.00
H1963  H     0.43539   0.99585   0.32637   0.00000  Uiso   1.00
O1964  O     0.10677   0.94605   0.77344   0.00000  Uiso   1.00
C1965  C     0.10317   0.94623   0.81444   0.00000  Uiso   1.00
H1966  H     0.12705   0.93309   0.82871   0.00000  Uiso   1.00
H1967  H     0.07787   0.93160   0.82324   0.00000  Uiso   1.00
C1968  C     0.10100   0.98564   0.82877   0.00000  Uiso   1.00
H1969  H     0.12536   0.50100   0.81863   0.00000  Uiso   1.00
H1970  H     0.07631   0.99873   0.81656   0.00000  Uiso   1.00
C1971  C     0.09938   0.98757   0.87311   0.00000  Uiso   1.00
H1972  H     0.07485   0.97298   0.88398   0.00000  Uiso   1.00
H1973  H     0.09801   0.51650   0.88251   0.00000  Uiso   1.00
H1974  H     0.12413   0.97522   0.88602   0.00000  Uiso   1.00
O1975  O     0.44738   0.89484   0.23662   0.00000  Uiso   1.00
C1976  C     0.46477   0.89952   0.27318   0.00000  Uiso   1.00
H1977  H     0.48675   0.87896   0.27558   0.00000  Uiso   1.00
H1978  H     0.44646   0.89583   0.29891   0.00000  Uiso   1.00
C1979  C     0.48174   0.93763   0.27521   0.00000  Uiso   1.00
H1980  H     0.00168   0.94116   0.25125   0.00000  Uiso   1.00
H1981  H     0.46004   0.95827   0.27153   0.00000  Uiso   1.00
C1982  C     0.00108   0.94398   0.31400   0.00000  Uiso   1.00
H1983  H     0.48135   0.94230   0.33842   0.00000  Uiso   1.00
H1984  H     0.01380   0.97149   0.31416   0.00000  Uiso   1.00
H1985  H     0.02267   0.92332   0.31835   0.00000  Uiso   1.00
O1986  O     0.05481   0.60650   0.77321   0.00000  Uiso   1.00
C1987  C     0.05541   0.60073   0.81394   0.00000  Uiso   1.00
H1988  H     0.06108   0.62688   0.82944   0.00000  Uiso   1.00
H1989  H     0.07650   0.58052   0.82243   0.00000  Uiso   1.00
C1990  C     0.01850   0.58606   0.82709   0.00000  Uiso   1.00
H1991  H     0.49736   0.60707   0.82208   0.00000  Uiso   1.00
H1992  H     0.01140   0.56139   0.80974   0.00000  Uiso   1.00
C1993  C     0.01924   0.57610   0.87023   0.00000  Uiso   1.00
H1994  H     0.04031   0.55518   0.87585   0.00000  Uiso   1.00
H1995  H     0.49253   0.56467   0.87908   0.00000  Uiso   1.00
H1996  H     0.02511   0.60067   0.88820   0.00000  Uiso   1.00
O1997  O     0.10519   0.55242   0.76238   0.00000  Uiso   1.00
C1998  C     0.10086   0.53517   0.72568   0.00000  Uiso   1.00
H1999  H     0.12192   0.51368   0.72296   0.00000  Uiso   1.00
H2000  H     0.10397   0.55380   0.70014   0.00000  Uiso   1.00
C2001  C     0.06321   0.51729   0.72366   0.00000  Uiso   1.00
H2002  H     0.06021   0.99714   0.74751   0.00000  Uiso   1.00
H2003  H     0.04209   0.53850   0.72760   0.00000  Uiso   1.00
C2004  C     0.05724   0.99800   0.68473   0.00000  Uiso   1.00
H2005  H     0.05881   0.51786   0.66043   0.00000  Uiso   1.00
H2006  H     0.02989   0.98500   0.68439   0.00000  Uiso   1.00
H2007  H     0.07812   0.97661   0.68033   0.00000  Uiso   1.00
O2008  O     0.39324   0.94518   0.22605   0.00000  Uiso   1.00
C2009  C     0.39898   0.94446   0.18533   0.00000  Uiso   1.00
H2010  H     0.37277   0.93921   0.16989   0.00000  Uiso   1.00
H2011  H     0.41882   0.92304   0.17671   0.00000  Uiso   1.00
C2012  C     0.41420   0.98121   0.17227   0.00000  Uiso   1.00
H2013  H     0.39347   0.50264   0.17722   0.00000  Uiso   1.00
H2014  H     0.43884   0.98799   0.18975   0.00000  Uiso   1.00
C2015  C     0.42437   0.98036   0.12920   0.00000  Uiso   1.00
H2016  H     0.44497   0.95895   0.12362   0.00000  Uiso   1.00
H2017  H     0.43624   0.50694   0.12054   0.00000  Uiso   1.00
H2018  H     0.39985   0.97489   0.11108   0.00000  Uiso   1.00
O2019  O     0.05205   0.89491   0.76350   0.00000  Uiso   1.00
C2020  C     0.03561   0.89935   0.72655   0.00000  Uiso   1.00
H2021  H     0.03560   0.87324   0.70992   0.00000  Uiso   1.00
H2022  H     0.05029   0.92046   0.70930   0.00000  Uiso   1.00
C2023  C     0.49623   0.91142   0.73197   0.00000  Uiso   1.00
H2024  H     0.48235   0.89284   0.75273   0.00000  Uiso   1.00
H2025  H     0.49599   0.93944   0.74421   0.00000  Uiso   1.00
C2026  C     0.47539   0.91108   0.69349   0.00000  Uiso   1.00
H2027  H     0.48843   0.92994   0.67240   0.00000  Uiso   1.00
H2028  H     0.44694   0.91999   0.69852   0.00000  Uiso   1.00
H2029  H     0.47476   0.88314   0.68095   0.00000  Uiso   1.00
O2030  O     0.44232   0.60829   0.21852   0.00000  Uiso   1.00
C2031  C     0.44243   0.61610   0.17806   0.00000  Uiso   1.00
H2032  H     0.47120   0.62058   0.16944   0.00000  Uiso   1.00
H2033  H     0.42791   0.64182   0.17065   0.00000  Uiso   1.00
C2034  C     0.42632   0.58458   0.15410   0.00000  Uiso   1.00
H2035  H     0.43461   0.55820   0.16681   0.00000  Uiso   1.00
H2036  H     0.39612   0.58602   0.15500   0.00000  Uiso   1.00
C2037  C     0.43898   0.58608   0.11176   0.00000  Uiso   1.00
H2038  H     0.43683   0.61414   0.10005   0.00000  Uiso   1.00
H2039  H     0.42193   0.56756   0.09365   0.00000  Uiso   1.00
H2040  H     0.46776   0.57728   0.10960   0.00000  Uiso   1.00
O2041  O     0.38111   0.93320   0.80232   0.00000  Uiso   1.00
C2042  C     0.41053   0.95612   0.79118   0.00000  Uiso   1.00
H2043  H     0.39918   0.98124   0.77799   0.00000  Uiso   1.00
H2044  H     0.42930   0.94386   0.76927   0.00000  Uiso   1.00
C2045  C     0.43270   0.96650   0.82734   0.00000  Uiso   1.00
H2046  H     0.41509   0.98125   0.84827   0.00000  Uiso   1.00
H2047  H     0.44258   0.94146   0.84190   0.00000  Uiso   1.00
C2048  C     0.46544   0.99037   0.81700   0.00000  Uiso   1.00
H2049  H     0.48595   0.97425   0.80086   0.00000  Uiso   1.00
H2050  H     0.47831   0.50093   0.84407   0.00000  Uiso   1.00
H2051  H     0.45692   0.51373   0.79877   0.00000  Uiso   1.00
O2052  O     0.12306   0.57073   0.19304   0.00000  Uiso   1.00
C2053  C     0.14151   0.58385   0.15982   0.00000  Uiso   1.00
H2054  H     0.16977   0.59266   0.16737   0.00000  Uiso   1.00
H2055  H     0.12664   0.60727   0.14689   0.00000  Uiso   1.00
C2056  C     0.14354   0.55322   0.12966   0.00000  Uiso   1.00
H2057  H     0.15491   0.52841   0.14345   0.00000  Uiso   1.00
H2058  H     0.11573   0.54660   0.11890   0.00000  Uiso   1.00
C2059  C     0.16753   0.56399   0.09534   0.00000  Uiso   1.00
H2060  H     0.15615   0.58817   0.08035   0.00000  Uiso   1.00
H2061  H     0.16900   0.54103   0.07426   0.00000  Uiso   1.00
H2062  H     0.19549   0.57042   0.10570   0.00000  Uiso   1.00
O2063  O     0.44646   0.60536   0.76445   0.00000  Uiso   1.00
C2064  C     0.46337   0.60045   0.72774   0.00000  Uiso   1.00
H2065  H     0.49280   0.60663   0.73130   0.00000  Uiso   1.00
H2066  H     0.45326   0.61950   0.70490   0.00000  Uiso   1.00
C2067  C     0.45929   0.56089   0.71390   0.00000  Uiso   1.00
H2068  H     0.47299   0.54253   0.73492   0.00000  Uiso   1.00
H2069  H     0.43002   0.55323   0.71247   0.00000  Uiso   1.00
C2070  C     0.47591   0.55567   0.67358   0.00000  Uiso   1.00
H2071  H     0.46099   0.57216   0.65175   0.00000  Uiso   1.00
H2072  H     0.47399   0.52651   0.66503   0.00000  Uiso   1.00
H2073  H     0.00500   0.56408   0.67363   0.00000  Uiso   1.00
O2074  O     0.05412   0.89341   0.22748   0.00000  Uiso   1.00
C2075  C     0.05417   0.89709   0.18647   0.00000  Uiso   1.00
H2076  H     0.06763   0.87335   0.17218   0.00000  Uiso   1.00
H2077  H     0.06860   0.92258   0.17786   0.00000  Uiso   1.00
C2078  C     0.01490   0.89891   0.17183   0.00000  Uiso   1.00
H2079  H     0.49965   0.87448   0.18199   0.00000  Uiso   1.00
H2080  H     0.00156   0.92362   0.18377   0.00000  Uiso   1.00
C2081  C     0.01330   0.90026   0.12747   0.00000  Uiso   1.00
H2082  H     0.02787   0.92480   0.11656   0.00000  Uiso   1.00
H2083  H     0.48447   0.90148   0.11786   0.00000  Uiso   1.00
H2084  H     0.02580   0.87543   0.11479   0.00000  Uiso   1.00
O2085  O     0.35549   0.69819   0.73901   0.00000  Uiso   1.00
C2086  C     0.34998   0.71297   0.77661   0.00000  Uiso   1.00
H2087  H     0.37382   0.70808   0.79603   0.00000  Uiso   1.00
H2088  H     0.32527   0.70062   0.79003   0.00000  Uiso   1.00
C2089  C     0.34465   0.75407   0.77331   0.00000  Uiso   1.00
H2090  H     0.36800   0.76622   0.75746   0.00000  Uiso   1.00
H2091  H     0.31956   0.75945   0.75645   0.00000  Uiso   1.00
C2092  C     0.34167   0.77216   0.81323   0.00000  Uiso   1.00
H2093  H     0.31803   0.76087   0.82939   0.00000  Uiso   1.00
H2094  H     0.33784   0.80196   0.80957   0.00000  Uiso   1.00
H2095  H     0.36692   0.76769   0.83037   0.00000  Uiso   1.00
O2096  O     0.14146   0.80774   0.28180   0.00000  Uiso   1.00
C2097  C     0.13357   0.80792   0.32225   0.00000  Uiso   1.00
H2098  H     0.12910   0.77918   0.33108   0.00000  Uiso   1.00
H2099  H     0.10785   0.82249   0.32950   0.00000  Uiso   1.00
C2100  C     0.16498   0.82428   0.34614   0.00000  Uiso   1.00
H2101  H     0.19137   0.81593   0.33351   0.00000  Uiso   1.00
H2102  H     0.16351   0.85451   0.34502   0.00000  Uiso   1.00
C2103  C     0.16341   0.81191   0.38855   0.00000  Uiso   1.00
H2104  H     0.13541   0.81437   0.40028   0.00000  Uiso   1.00
H2105  H     0.18201   0.82899   0.40652   0.00000  Uiso   1.00
H2106  H     0.17199   0.78305   0.39088   0.00000  Uiso   1.00
O2107  O     0.31425   0.86517   0.70257   0.00000  Uiso   1.00
C2108  C     0.29162   0.83778   0.71920   0.00000  Uiso   1.00
H2109  H     0.26444   0.84998   0.72422   0.00000  Uiso   1.00
H2110  H     0.30095   0.82745   0.74812   0.00000  Uiso   1.00
C2111  C     0.28774   0.80548   0.69096   0.00000  Uiso   1.00
H2112  H     0.28305   0.81565   0.66098   0.00000  Uiso   1.00
H2113  H     0.31317   0.78941   0.69059   0.00000  Uiso   1.00
C2114  C     0.25658   0.78001   0.70252   0.00000  Uiso   1.00
H2115  H     0.26178   0.76793   0.73154   0.00000  Uiso   1.00
H2116  H     0.25408   0.75758   0.68089   0.00000  Uiso   1.00
H2117  H     0.23048   0.79501   0.70350   0.00000  Uiso   1.00
O2118  O     0.17928   0.62719   0.30684   0.00000  Uiso   1.00
C2119  C     0.16619   0.60888   0.34016   0.00000  Uiso   1.00
H2120  H     0.15727   0.58058   0.33272   0.00000  Uiso   1.00
H2121  H     0.14289   0.62390   0.35315   0.00000  Uiso   1.00
C2122  C     0.19684   0.60682   0.37019   0.00000  Uiso   1.00
H2123  H     0.22150   0.59517   0.35636   0.00000  Uiso   1.00
H2124  H     0.20369   0.63469   0.38075   0.00000  Uiso   1.00
C2125  C     0.18601   0.58311   0.40471   0.00000  Uiso   1.00
H2126  H     0.16201   0.59482   0.41976   0.00000  Uiso   1.00
H2127  H     0.20899   0.58158   0.42567   0.00000  Uiso   1.00
H2128  H     0.17931   0.55510   0.39457   0.00000  Uiso   1.00
O2129  O     0.14458   0.80390   0.73571   0.00000  Uiso   1.00
C2130  C     0.14895   0.78763   0.77287   0.00000  Uiso   1.00
H2131  H     0.14191   0.75828   0.77012   0.00000  Uiso   1.00
H2132  H     0.13031   0.79877   0.79558   0.00000  Uiso   1.00
C2133  C     0.18854   0.79091   0.78651   0.00000  Uiso   1.00
H2134  H     0.20604   0.77474   0.76681   0.00000  Uiso   1.00
H2135  H     0.19762   0.81983   0.78546   0.00000  Uiso   1.00
C2136  C     0.19311   0.77695   0.82802   0.00000  Uiso   1.00
H2137  H     0.17759   0.79434   0.84854   0.00000  Uiso   1.00
H2138  H     0.22231   0.77801   0.83632   0.00000  Uiso   1.00
H2139  H     0.18327   0.74835   0.83035   0.00000  Uiso   1.00
O2140  O     0.35660   0.69621   0.27187   0.00000  Uiso   1.00
C2141  C     0.35242   0.69668   0.31283   0.00000  Uiso   1.00
H2142  H     0.37592   0.68334   0.32759   0.00000  Uiso   1.00
H2143  H     0.32682   0.68240   0.32131   0.00000  Uiso   1.00
C2144  C     0.35050   0.73619   0.32689   0.00000  Uiso   1.00
H2145  H     0.37515   0.75121   0.31699   0.00000  Uiso   1.00
H2146  H     0.32609   0.74948   0.31431   0.00000  Uiso   1.00
C2147  C     0.34838   0.73845   0.37117   0.00000  Uiso   1.00
H2148  H     0.32349   0.72433   0.38181   0.00000  Uiso   1.00
H2149  H     0.34736   0.76747   0.38032   0.00000  Uiso   1.00
H2150  H     0.37279   0.72584   0.38448   0.00000  Uiso   1.00
O2151  O     0.19775   0.64511   0.73898   0.00000  Uiso   1.00
C2152  C     0.21405   0.64887   0.77624   0.00000  Uiso   1.00
H2153  H     0.23606   0.62834   0.77872   0.00000  Uiso   1.00
H2154  H     0.19502   0.64437   0.80121   0.00000  Uiso   1.00
C2155  C     0.23077   0.68698   0.78003   0.00000  Uiso   1.00
H2156  H     0.25146   0.69118   0.75692   0.00000  Uiso   1.00
H2157  H     0.20909   0.70762   0.77620   0.00000  Uiso   1.00
C2158  C     0.24880   0.69245   0.81970   0.00000  Uiso   1.00
H2159  H     0.22831   0.68999   0.84331   0.00000  Uiso   1.00
H2160  H     0.26127   0.72005   0.82115   0.00000  Uiso   1.00
H2161  H     0.27046   0.67188   0.82422   0.00000  Uiso   1.00
O2162  O     0.30484   0.85660   0.27364   0.00000  Uiso   1.00
C2163  C     0.30549   0.85081   0.31434   0.00000  Uiso   1.00
H2164  H     0.31135   0.87692   0.32985   0.00000  Uiso   1.00
H2165  H     0.32644   0.83044   0.32278   0.00000  Uiso   1.00
C2166  C     0.26849   0.83640   0.32751   0.00000  Uiso   1.00
H2167  H     0.24749   0.85755   0.32247   0.00000  Uiso   1.00
H2168  H     0.26124   0.81176   0.31019   0.00000  Uiso   1.00
C2169  C     0.26913   0.82650   0.37065   0.00000  Uiso   1.00
H2170  H     0.29008   0.80547   0.37633   0.00000  Uiso   1.00
H2171  H     0.24236   0.81521   0.37942   0.00000  Uiso   1.00
H2172  H     0.27509   0.85105   0.38861   0.00000  Uiso   1.00
O2173  O     0.35515   0.80243   0.26272   0.00000  Uiso   1.00
C2174  C     0.35096   0.78514   0.22601   0.00000  Uiso   1.00
H2175  H     0.37140   0.76302   0.22385   0.00000  Uiso   1.00
H2176  H     0.35517   0.80352   0.20043   0.00000  Uiso   1.00
C2177  C     0.31285   0.76837   0.22325   0.00000  Uiso   1.00
H2178  H     0.30888   0.74824   0.24695   0.00000  Uiso   1.00
H2179  H     0.29230   0.79019   0.22684   0.00000  Uiso   1.00
C2180  C     0.30694   0.74933   0.18418   0.00000  Uiso   1.00
H2181  H     0.30893   0.76928   0.16000   0.00000  Uiso   1.00
H2182  H     0.27945   0.73663   0.18355   0.00000  Uiso   1.00
H2183  H     0.32757   0.72769   0.17987   0.00000  Uiso   1.00
O2184  O     0.14368   0.69624   0.72972   0.00000  Uiso   1.00
C2185  C     0.15177   0.69800   0.68951   0.00000  Uiso   1.00
H2186  H     0.12849   0.68754   0.67175   0.00000  Uiso   1.00
H2187  H     0.17652   0.68192   0.68254   0.00000  Uiso   1.00
C2188  C     0.15893   0.73766   0.67846   0.00000  Uiso   1.00
H2189  H     0.13348   0.75349   0.68222   0.00000  Uiso   1.00
H2190  H     0.18018   0.74920   0.69802   0.00000  Uiso   1.00
C2191  C     0.17176   0.74118   0.63641   0.00000  Uiso   1.00
H2192  H     0.19774   0.72633   0.63222   0.00000  Uiso   1.00
H2193  H     0.17639   0.77040   0.62948   0.00000  Uiso   1.00
H2194  H     0.15086   0.73001   0.61617   0.00000  Uiso   1.00
O2195  O     0.30197   0.64492   0.26206   0.00000  Uiso   1.00
C2196  C     0.28585   0.64928   0.22495   0.00000  Uiso   1.00
H2197  H     0.28615   0.62317   0.20831   0.00000  Uiso   1.00
H2198  H     0.30057   0.67051   0.20788   0.00000  Uiso   1.00
C2199  C     0.24634   0.66111   0.22993   0.00000  Uiso   1.00
H2200  H     0.23227   0.64225   0.25027   0.00000  Uiso   1.00
H2201  H     0.24580   0.68899   0.24252   0.00000  Uiso   1.00
C2202  C     0.22600   0.66110   0.19114   0.00000  Uiso   1.00
H2203  H     0.23916   0.68030   0.17048   0.00000  Uiso   1.00
H2204  H     0.19742   0.66974   0.19589   0.00000  Uiso   1.00
H2205  H     0.22574   0.63331   0.17822   0.00000  Uiso   1.00
O2206  O     0.18982   0.85997   0.71339   0.00000  Uiso   1.00
C2207  C     0.18257   0.86661   0.67350   0.00000  Uiso   1.00
H2208  H     0.17322   0.89518   0.66907   0.00000  Uiso   1.00
H2209  H     0.16115   0.84755   0.66240   0.00000  Uiso   1.00
C2210  C     0.21709   0.86088   0.64963   0.00000  Uiso   1.00
H2211  H     0.24037   0.87515   0.66379   0.00000  Uiso   1.00
H2212  H     0.22279   0.83130   0.64791   0.00000  Uiso   1.00
C2213  C     0.21298   0.87540   0.60836   0.00000  Uiso   1.00
H2214  H     0.18928   0.86231   0.59372   0.00000  Uiso   1.00
H2215  H     0.23793   0.86931   0.59139   0.00000  Uiso   1.00
H2216  H     0.20929   0.90540   0.60913   0.00000  Uiso   1.00
O2217  O     0.13148   0.68340   0.30175   0.00000  Uiso   1.00
C2218  C     0.16104   0.70608   0.29045   0.00000  Uiso   1.00
H2219  H     0.14980   0.73148   0.27780   0.00000  Uiso   1.00
H2220  H     0.17936   0.69390   0.26804   0.00000  Uiso   1.00
C2221  C     0.18384   0.71572   0.32638   0.00000  Uiso   1.00
H2222  H     0.16649   0.72983   0.34803   0.00000  Uiso   1.00
H2223  H     0.19413   0.69044   0.34009   0.00000  Uiso   1.00
C2224  C     0.21626   0.74002   0.31602   0.00000  Uiso   1.00
H2225  H     0.23657   0.72441   0.29904   0.00000  Uiso   1.00
H2226  H     0.22952   0.75008   0.34308   0.00000  Uiso   1.00
H2227  H     0.20728   0.76371   0.29857   0.00000  Uiso   1.00
O2228  O     0.37227   0.82015   0.69413   0.00000  Uiso   1.00
C2229  C     0.39034   0.83329   0.66070   0.00000  Uiso   1.00
H2230  H     0.41870   0.84209   0.66789   0.00000  Uiso   1.00
H2231  H     0.37534   0.85675   0.64800   0.00000  Uiso   1.00
C2232  C     0.39194   0.80265   0.63053   0.00000  Uiso   1.00
H2233  H     0.40271   0.77758   0.64437   0.00000  Uiso   1.00
H2234  H     0.36402   0.79664   0.61964   0.00000  Uiso   1.00
C2235  C     0.41643   0.81287   0.59639   0.00000  Uiso   1.00
H2236  H     0.40612   0.83771   0.58172   0.00000  Uiso   1.00
H2237  H     0.41700   0.79013   0.57499   0.00000  Uiso   1.00
H2238  H     0.44460   0.81795   0.60691   0.00000  Uiso   1.00
O2239  O     0.19625   0.85556   0.26528   0.00000  Uiso   1.00
C2240  C     0.21289   0.85029   0.22847   0.00000  Uiso   1.00
H2241  H     0.24227   0.85694   0.23157   0.00000  Uiso   1.00
H2242  H     0.20230   0.86881   0.20537   0.00000  Uiso   1.00
C2243  C     0.20926   0.81046   0.21539   0.00000  Uiso   1.00
H2244  H     0.22404   0.79271   0.23616   0.00000  Uiso   1.00
H2245  H     0.18016   0.80212   0.21512   0.00000  Uiso   1.00
C2246  C     0.22464   0.80501   0.17455   0.00000  Uiso   1.00
H2247  H     0.20838   0.82060   0.15308   0.00000  Uiso   1.00
H2248  H     0.22330   0.77567   0.16662   0.00000  Uiso   1.00
H2249  H     0.25343   0.81432   0.17321   0.00000  Uiso   1.00
O2250  O     0.30389   0.64365   0.72847   0.00000  Uiso   1.00
C2251  C     0.30325   0.64878   0.68766   0.00000  Uiso   1.00
H2252  H     0.31545   0.62501   0.67219   0.00000  Uiso   1.00
H2253  H     0.31847   0.67399   0.67961   0.00000  Uiso   1.00
C2254  C     0.26382   0.65267   0.67414   0.00000  Uiso   1.00
H2255  H     0.24804   0.62809   0.68290   0.00000  Uiso   1.00
H2256  H     0.25152   0.67697   0.68816   0.00000  Uiso   1.00
C2257  C     0.26140   0.65691   0.63004   0.00000  Uiso   1.00
H2258  H     0.27672   0.68153   0.62056   0.00000  Uiso   1.00
H2259  H     0.23246   0.65993   0.62131   0.00000  Uiso   1.00
H2260  H     0.27266   0.63248   0.61526   0.00000  Uiso   1.00
O2261  O     0.02049   0.81393   0.39793   0.00000  Uiso   1.00
H2262  H     0.01168   0.81341   0.37073   0.00000  Uiso   1.00
O2263  O     0.46940   0.69120   0.60170   0.00000  Uiso   1.00
H2264  H     0.48138   0.68821   0.62729   0.00000  Uiso   1.00
O2265  O     0.18818   0.97493   0.39794   0.00000  Uiso   1.00
H2266  H     0.18762   0.98367   0.37075   0.00000  Uiso   1.00
O2267  O     0.31179   0.52292   0.60184   0.00000  Uiso   1.00
H2268  H     0.31293   0.51077   0.62748   0.00000  Uiso   1.00
O2269  O     0.47657   0.68808   0.39846   0.00000  Uiso   1.00
H2270  H     0.48808   0.68706   0.37248   0.00000  Uiso   1.00
O2271  O     0.02892   0.81028   0.60196   0.00000  Uiso   1.00
H2272  H     0.01925   0.81192   0.62875   0.00000  Uiso   1.00
O2273  O     0.31027   0.52786   0.39825   0.00000  Uiso   1.00
H2274  H     0.31233   0.51607   0.37242   0.00000  Uiso   1.00
O2275  O     0.18651   0.97767   0.60159   0.00000  Uiso   1.00
H2276  H     0.18744   0.98439   0.62944   0.00000  Uiso   1.00
O2277  O     0.27052   0.56379   0.89810   0.00000  Uiso   1.00
H2278  H     0.26218   0.56317   0.87074   0.00000  Uiso   1.00
O2279  O     0.22238   0.93982   0.10181   0.00000  Uiso   1.00
H2280  H     0.23415   0.93768   0.12761   0.00000  Uiso   1.00
O2281  O     0.43879   0.72259   0.89800   0.00000  Uiso   1.00
H2282  H     0.43779   0.73178   0.87099   0.00000  Uiso   1.00
O2283  O     0.06269   0.77073   0.10153   0.00000  Uiso   1.00
H2284  H     0.06312   0.75963   0.12772   0.00000  Uiso   1.00
O2285  O     0.22801   0.93743   0.89830   0.00000  Uiso   1.00
H2286  H     0.23919   0.93681   0.87214   0.00000  Uiso   1.00
O2287  O     0.27569   0.56188   0.10193   0.00000  Uiso   1.00
H2288  H     0.26712   0.56242   0.12918   0.00000  Uiso   1.00
O2289  O     0.05964   0.77826   0.89828   0.00000  Uiso   1.00
H2290  H     0.06200   0.76659   0.87242   0.00000  Uiso   1.00
O2291  O     0.43558   0.73114   0.10215   0.00000  Uiso   1.00
H2292  H     0.43644   0.73976   0.12942   0.00000  Uiso   1.00
C2293  C     0.51010   0.78269   0.41776   0.00000  Uiso   1.00
C2294  C     0.98443   0.72051   0.58194   0.00000  Uiso   1.00
C2295  C     0.71808   0.98905   0.41768   0.00000  Uiso   1.00
C2296  C     0.78015   0.51327   0.58218   0.00000  Uiso   1.00
C2297  C     0.98617   0.71994   0.41785   0.00000  Uiso   1.00
C2298  C     0.51323   0.78116   0.58220   0.00000  Uiso   1.00
C2299  C     0.78000   0.51484   0.41798   0.00000  Uiso   1.00
C2300  C     0.71752   0.98911   0.58203   0.00000  Uiso   1.00
C2301  C     0.76023   0.53244   0.91781   0.00000  Uiso   1.00
C2302  C     0.73574   0.96994   0.08205   0.00000  Uiso   1.00
C2303  C     0.96838   0.73731   0.91777   0.00000  Uiso   1.00
C2304  C     0.53061   0.76214   0.08212   0.00000  Uiso   1.00
C2305  C     0.73720   0.96934   0.91782   0.00000  Uiso   1.00
C2306  C     0.76157   0.53191   0.08224   0.00000  Uiso   1.00
C2307  C     0.52980   0.76425   0.91800   0.00000  Uiso   1.00
C2308  C     0.96714   0.74042   0.08229   0.00000  Uiso   1.00
C2309  C     0.99943   0.75071   0.39780   0.00000  Uiso   1.00
C2310  C     0.99964   0.75043   0.60212   0.00000  Uiso   1.00
C2311  C     0.74956   0.50074   0.39782   0.00000  Uiso   1.00
C2312  C     0.74928   0.50018   0.60214   0.00000  Uiso   1.00
C2313  C     0.74965   0.50046   0.89779   0.00000  Uiso   1.00
C2314  C     0.74955   0.50055   0.10218   0.00000  Uiso   1.00
C2315  C     0.99937   0.75025   0.89784   0.00000  Uiso   1.00
C2316  C     0.99933   0.75032   0.10222   0.00000  Uiso   1.00
C2317  C     0.96724   0.69200   0.47930   0.00000  Uiso   1.00
C2318  C     0.52138   0.81403   0.52064   0.00000  Uiso   1.00
C2319  C     0.81009   0.52917   0.48014   0.00000  Uiso   1.00
C2320  C     0.68592   0.97858   0.51979   0.00000  Uiso   1.00
C2321  C     0.52228   0.81396   0.47995   0.00000  Uiso   1.00
C2322  C     0.96987   0.69044   0.51976   0.00000  Uiso   1.00
C2323  C     0.68524   0.98161   0.47922   0.00000  Uiso   1.00
C2324  C     0.80890   0.53125   0.52073   0.00000  Uiso   1.00
C2325  C     0.72004   0.94040   0.97945   0.00000  Uiso   1.00
C2326  C     0.76937   0.56453   0.02053   0.00000  Uiso   1.00
C2327  C     0.56055   0.77698   0.98003   0.00000  Uiso   1.00
C2328  C     0.93582   0.72828   0.02019   0.00000  Uiso   1.00
C2329  C     0.77177   0.56386   0.97995   0.00000  Uiso   1.00
C2330  C     0.72248   0.93928   0.01997   0.00000  Uiso   1.00
C2331  C     0.93566   0.72920   0.97949   0.00000  Uiso   1.00
C2332  C     0.55948   0.77928   0.02053   0.00000  Uiso   1.00
C2333  C     0.74997   0.50012   0.35565   0.00000  Uiso   1.00
C2334  C     0.74974   0.99998   0.64434   0.00000  Uiso   1.00
C2335  C     0.99995   0.75010   0.35563   0.00000  Uiso   1.00
C2336  C     0.99995   0.75013   0.64434   0.00000  Uiso   1.00
C2337  C     0.99973   0.75005   0.85565   0.00000  Uiso   1.00
C2338  C     0.99985   0.75001   0.14437   0.00000  Uiso   1.00
C2339  C     0.74998   0.50004   0.85563   0.00000  Uiso   1.00
C2340  C     0.74994   0.50020   0.14436   0.00000  Uiso   1.00
C2341  C     0.67998   0.57006   0.25000   0.00000  Uiso   1.00
C2342  C     0.81988   0.92969   0.75031   0.00000  Uiso   1.00
C2343  C     0.92962   0.68022   0.24937   0.00000  Uiso   1.00
C2344  C     0.56993   0.82000   0.75012   0.00000  Uiso   1.00
C2345  C     0.82011   0.92989   0.24999   0.00000  Uiso   1.00
C2346  C     0.68003   0.56999   0.74998   0.00000  Uiso   1.00
C2347  C     0.56978   0.82038   0.25060   0.00000  Uiso   1.00
C2348  C     0.93004   0.68005   0.74995   0.00000  Uiso   1.00
C2349  C     0.67953   0.93032   0.74930   0.00000  Uiso   1.00
C2350  C     0.81992   0.57001   0.25001   0.00000  Uiso   1.00
C2351  C     0.93000   0.82009   0.75000   0.00000  Uiso   1.00
C2352  C     0.57009   0.67990   0.24999   0.00000  Uiso   1.00
C2353  C     0.81976   0.57039   0.75059   0.00000  Uiso   1.00
C2354  C     0.68001   0.93008   0.25001   0.00000  Uiso   1.00
C2355  C     0.57014   0.67992   0.75007   0.00000  Uiso   1.00
C2356  C     0.93002   0.81997   0.24998   0.00000  Uiso   1.00
C2357  C     0.61526   0.91215   0.24307   0.00000  Uiso   1.00
C2358  C     0.88289   0.59109   0.76526   0.00000  Uiso   1.00
C2359  C     0.59573   0.62208   0.22389   0.00000  Uiso   1.00
C2360  C     0.90268   0.87589   0.77859   0.00000  Uiso   1.00
C2361  C     0.88360   0.58941   0.24005   0.00000  Uiso   1.00
C2362  C     0.61540   0.91111   0.76142   0.00000  Uiso   1.00
C2363  C     0.91148   0.88431   0.24197   0.00000  Uiso   1.00
C2364  C     0.58962   0.61576   0.76130   0.00000  Uiso   1.00
C2365  C     0.61568   0.58842   0.75735   0.00000  Uiso   1.00
C2366  C     0.88410   0.91035   0.23811   0.00000  Uiso   1.00
C2367  C     0.58793   0.88481   0.75800   0.00000  Uiso   1.00
C2368  C     0.90878   0.61717   0.23409   0.00000  Uiso   1.00
C2369  C     0.87768   0.90424   0.77652   0.00000  Uiso   1.00
C2370  C     0.62424   0.59733   0.22164   0.00000  Uiso   1.00
C2371  C     0.91072   0.61613   0.75904   0.00000  Uiso   1.00
C2372  C     0.58896   0.88471   0.23959   0.00000  Uiso   1.00
C2373  C     0.86540   0.66206   0.74301   0.00000  Uiso   1.00
C2374  C     0.63272   0.84123   0.26602   0.00000  Uiso   1.00
C2375  C     0.84465   0.87082   0.72577   0.00000  Uiso   1.00
C2376  C     0.65269   0.62591   0.27830   0.00000  Uiso   1.00
C2377  C     0.63352   0.83963   0.74036   0.00000  Uiso   1.00
C2378  C     0.86532   0.66117   0.26024   0.00000  Uiso   1.00
C2379  C     0.66168   0.63452   0.74277   0.00000  Uiso   1.00
C2380  C     0.83964   0.86580   0.26164   0.00000  Uiso   1.00
C2381  C     0.86568   0.83842   0.25772   0.00000  Uiso   1.00
C2382  C     0.63438   0.66074   0.73923   0.00000  Uiso   1.00
C2383  C     0.83791   0.63482   0.25693   0.00000  Uiso   1.00
C2384  C     0.65832   0.86756   0.73377   0.00000  Uiso   1.00
C2385  C     0.62788   0.65439   0.27608   0.00000  Uiso   1.00
C2386  C     0.87355   0.84671   0.72270   0.00000  Uiso   1.00
C2387  C     0.66050   0.86638   0.26008   0.00000  Uiso   1.00
C2388  C     0.83896   0.63472   0.73960   0.00000  Uiso   1.00
C2389  C     0.98325   0.72121   0.45863   0.00000  Uiso   1.00
C2390  C     0.51120   0.78222   0.54127   0.00000  Uiso   1.00
C2391  C     0.77961   0.51601   0.45898   0.00000  Uiso   1.00
C2392  C     0.71714   0.98989   0.54099   0.00000  Uiso   1.00
C2393  C     0.51032   0.78289   0.45884   0.00000  Uiso   1.00
C2394  C     0.98390   0.72062   0.54094   0.00000  Uiso   1.00
C2395  C     0.71716   0.99106   0.45860   0.00000  Uiso   1.00
C2396  C     0.77915   0.51617   0.54136   0.00000  Uiso   1.00
C2397  C     0.73456   0.97036   0.95867   0.00000  Uiso   1.00
C2398  C     0.75974   0.53269   0.04129   0.00000  Uiso   1.00
C2399  C     0.52976   0.76452   0.95897   0.00000  Uiso   1.00
C2400  C     0.96703   0.73986   0.04123   0.00000  Uiso   1.00
C2401  C     0.76020   0.53266   0.95885   0.00000  Uiso   1.00
C2402  C     0.73502   0.97008   0.04105   0.00000  Uiso   1.00
C2403  C     0.96749   0.73904   0.95875   0.00000  Uiso   1.00
C2404  C     0.52954   0.76481   0.04131   0.00000  Uiso   1.00
C2405  C     0.59738   0.84914   0.25218   0.00000  Uiso   1.00
C2406  C     0.90178   0.65233   0.75020   0.00000  Uiso   1.00
C2407  C     0.65199   0.59809   0.24998   0.00000  Uiso   1.00
C2408  C     0.84765   0.90125   0.75091   0.00000  Uiso   1.00
C2409  C     0.90087   0.65262   0.24777   0.00000  Uiso   1.00
C2410  C     0.59748   0.84845   0.74987   0.00000  Uiso   1.00
C2411  C     0.84827   0.90169   0.24994   0.00000  Uiso   1.00
C2412  C     0.65210   0.59797   0.74990   0.00000  Uiso   1.00
C2413  C     0.59837   0.65178   0.75015   0.00000  Uiso   1.00
C2414  C     0.90206   0.84790   0.24991   0.00000  Uiso   1.00
C2415  C     0.65073   0.90277   0.74807   0.00000  Uiso   1.00
C2416  C     0.84751   0.59840   0.24937   0.00000  Uiso   1.00
C2417  C     0.90187   0.84800   0.75032   0.00000  Uiso   1.00
C2418  C     0.59820   0.65181   0.24999   0.00000  Uiso   1.00
C2419  C     0.84744   0.59909   0.75188   0.00000  Uiso   1.00
C2420  C     0.65160   0.90251   0.25073   0.00000  Uiso   1.00
C2421  C     0.99719   0.75182   0.47932   0.00000  Uiso   1.00
C2422  C     0.99748   0.75153   0.52054   0.00000  Uiso   1.00
C2423  C     0.74833   0.50342   0.47937   0.00000  Uiso   1.00
C2424  C     0.74818   0.50320   0.52061   0.00000  Uiso   1.00
C2425  C     0.74739   0.50149   0.97934   0.00000  Uiso   1.00
C2426  C     0.74738   0.50142   0.02059   0.00000  Uiso   1.00
C2427  C     0.99853   0.75189   0.97944   0.00000  Uiso   1.00
C2428  C     0.99839   0.75207   0.02068   0.00000  Uiso   1.00
O2429  O     0.75000   0.50000   0.25000   0.00000  Uiso   1.00
O2430  O     0.75000   0.50000   0.75000   0.00000  Uiso   1.00
O2431  O     0.50000   0.75000   0.25000   0.00000  Uiso   1.00
O2432  O     0.50000   0.75000   0.75000   0.00000  Uiso   1.00
O2433  O     0.75000   0.96964   0.33755   0.00000  Uiso   1.00
O2434  O     0.75000   0.53036   0.66245   0.00000  Uiso   1.00
O2435  O     0.53037   0.75000   0.33755   0.00000  Uiso   1.00
O2436  O     0.96964   0.75000   0.66245   0.00000  Uiso   1.00
O2437  O     0.75000   0.53036   0.33755   0.00000  Uiso   1.00
O2438  O     0.75000   0.96964   0.66245   0.00000  Uiso   1.00
O2439  O     0.96964   0.75000   0.33755   0.00000  Uiso   1.00
O2440  O     0.53037   0.75000   0.66245   0.00000  Uiso   1.00
O2441  O     0.50000   0.71964   0.83755   0.00000  Uiso   1.00
O2442  O     0.50000   0.78037   0.16245   0.00000  Uiso   1.00
O2443  O     0.78037   0.50000   0.83755   0.00000  Uiso   1.00
O2444  O     0.71964   0.50000   0.16245   0.00000  Uiso   1.00
O2445  O     0.50000   0.78037   0.83755   0.00000  Uiso   1.00
O2446  O     0.50000   0.71964   0.16245   0.00000  Uiso   1.00
O2447  O     0.71964   0.50000   0.83755   0.00000  Uiso   1.00
O2448  O     0.78037   0.50000   0.16245   0.00000  Uiso   1.00
O2449  O     0.70725   0.57308   0.27302   0.00000  Uiso   1.00
O2450  O     0.79276   0.92693   0.72698   0.00000  Uiso   1.00
O2451  O     0.92693   0.70725   0.27302   0.00000  Uiso   1.00
O2452  O     0.57308   0.79276   0.72698   0.00000  Uiso   1.00
O2453  O     0.79276   0.92693   0.27302   0.00000  Uiso   1.00
O2454  O     0.70725   0.57308   0.72698   0.00000  Uiso   1.00
O2455  O     0.57308   0.79276   0.27302   0.00000  Uiso   1.00
O2456  O     0.92693   0.70725   0.72698   0.00000  Uiso   1.00
O2457  O     0.70725   0.92693   0.72698   0.00000  Uiso   1.00
O2458  O     0.79276   0.57308   0.27302   0.00000  Uiso   1.00
O2459  O     0.92693   0.79276   0.72698   0.00000  Uiso   1.00
O2460  O     0.57308   0.70725   0.27302   0.00000  Uiso   1.00
O2461  O     0.79276   0.57308   0.72698   0.00000  Uiso   1.00
O2462  O     0.70725   0.92693   0.27302   0.00000  Uiso   1.00
O2463  O     0.57308   0.70725   0.72698   0.00000  Uiso   1.00
O2464  O     0.92693   0.79276   0.27302   0.00000  Uiso   1.00
O2465  O     0.95725   0.82308   0.77302   0.00000  Uiso   1.00
O2466  O     0.54276   0.67693   0.22698   0.00000  Uiso   1.00
O2467  O     0.67693   0.95725   0.77302   0.00000  Uiso   1.00
O2468  O     0.82308   0.54275   0.22698   0.00000  Uiso   1.00
O2469  O     0.54276   0.67693   0.77302   0.00000  Uiso   1.00
O2470  O     0.95725   0.82308   0.22698   0.00000  Uiso   1.00
O2471  O     0.82308   0.54275   0.77302   0.00000  Uiso   1.00
O2472  O     0.67693   0.95725   0.22698   0.00000  Uiso   1.00
O2473  O     0.95725   0.67693   0.22698   0.00000  Uiso   1.00
O2474  O     0.54276   0.82308   0.77302   0.00000  Uiso   1.00
O2475  O     0.67693   0.54276   0.22698   0.00000  Uiso   1.00
O2476  O     0.82308   0.95725   0.77302   0.00000  Uiso   1.00
O2477  O     0.54276   0.82308   0.22698   0.00000  Uiso   1.00
O2478  O     0.95725   0.67693   0.77302   0.00000  Uiso   1.00
O2479  O     0.82308   0.95725   0.22698   0.00000  Uiso   1.00
O2480  O     0.67693   0.54276   0.77302   0.00000  Uiso   1.00
Zn2481 Zn    0.70660   0.50000   0.21735   0.00000  Uiso   1.00
Zn2482 Zn    0.79341   0.50000   0.78265   0.00000  Uiso   1.00
Zn2483 Zn    0.50000   0.70660   0.21735   0.00000  Uiso   1.00
Zn2484 Zn    0.50000   0.79341   0.78265   0.00000  Uiso   1.00
Zn2485 Zn    0.79341   0.50000   0.21735   0.00000  Uiso   1.00
Zn2486 Zn    0.70660   0.50000   0.78265   0.00000  Uiso   1.00
Zn2487 Zn    0.50000   0.79341   0.21735   0.00000  Uiso   1.00
Zn2488 Zn    0.50000   0.70660   0.78265   0.00000  Uiso   1.00
Zn2489 Zn    0.95660   0.75000   0.71735   0.00000  Uiso   1.00
Zn2490 Zn    0.54341   0.75000   0.28265   0.00000  Uiso   1.00
Zn2491 Zn    0.75000   0.95660   0.71735   0.00000  Uiso   1.00
Zn2492 Zn    0.75000   0.54341   0.28265   0.00000  Uiso   1.00
Zn2493 Zn    0.54341   0.75000   0.71735   0.00000  Uiso   1.00
Zn2494 Zn    0.95660   0.75000   0.28265   0.00000  Uiso   1.00
Zn2495 Zn    0.75000   0.54341   0.71735   0.00000  Uiso   1.00
Zn2496 Zn    0.75000   0.95660   0.28265   0.00000  Uiso   1.00
O2497  O     0.94984   0.66350   0.46028   0.00000  Uiso   1.00
C2498  C     0.91232   0.67133   0.45744   0.00000  Uiso   1.00
H2499  H     0.90795   0.69264   0.43496   0.00000  Uiso   1.00
H2500  H     0.90090   0.68098   0.48572   0.00000  Uiso   1.00
C2501  C     0.89193   0.63658   0.44562   0.00000  Uiso   1.00
H2502  H     0.90400   0.62530   0.41851   0.00000  Uiso   1.00
H2503  H     0.89480   0.61606   0.46914   0.00000  Uiso   1.00
C2504  C     0.85155   0.64372   0.43879   0.00000  Uiso   1.00
H2505  H     0.83886   0.65507   0.46549   0.00000  Uiso   1.00
H2506  H     0.83755   0.61773   0.43120   0.00000  Uiso   1.00
H2507  H     0.84793   0.66314   0.41437   0.00000  Uiso   1.00
O2508  O     0.53081   0.84593   0.53997   0.00000  Uiso   1.00
C2509  C     0.99928   0.86745   0.54442   0.00000  Uiso   1.00
H2510  H     0.97633   0.85128   0.55686   0.00000  Uiso   1.00
H2511  H     0.99073   0.87870   0.51579   0.00000  Uiso   1.00
C2512  C     0.50773   0.89908   0.57208   0.00000  Uiso   1.00
H2513  H     0.51795   0.88825   0.60023   0.00000  Uiso   1.00
H2514  H     0.52924   0.91663   0.55912   0.00000  Uiso   1.00
C2515  C     0.97401   0.92208   0.57977   0.00000  Uiso   1.00
H2516  H     0.96315   0.93312   0.55204   0.00000  Uiso   1.00
H2517  H     0.98129   0.94527   0.59918   0.00000  Uiso   1.00
H2518  H     0.95262   0.90540   0.59422   0.00000  Uiso   1.00
O2519  O     0.84070   0.54269   0.46147   0.00000  Uiso   1.00
C2520  C     0.86759   0.51530   0.46046   0.00000  Uiso   1.00
H2521  H     0.85741   0.99090   0.44427   0.00000  Uiso   1.00
H2522  H     0.87561   0.50698   0.49043   0.00000  Uiso   1.00
C2523  C     0.90126   0.53030   0.43974   0.00000  Uiso   1.00
H2524  H     0.89337   0.54051   0.41050   0.00000  Uiso   1.00
H2525  H     0.91271   0.55344   0.45682   0.00000  Uiso   1.00
C2526  C     0.93049   0.50125   0.43511   0.00000  Uiso   1.00
H2527  H     0.93901   0.99088   0.46407   0.00000  Uiso   1.00
H2528  H     0.95463   0.51323   0.42039   0.00000  Uiso   1.00
H2529  H     0.92005   0.97822   0.41713   0.00000  Uiso   1.00
O2530  O     0.65433   0.96756   0.53851   0.00000  Uiso   1.00
C2531  C     0.65105   0.92920   0.53586   0.00000  Uiso   1.00
H2532  H     0.67369   0.91581   0.55167   0.00000  Uiso   1.00
H2533  H     0.65165   0.91971   0.50509   0.00000  Uiso   1.00
C2534  C     0.61468   0.91684   0.55314   0.00000  Uiso   1.00
H2535  H     0.59212   0.93059   0.53750   0.00000  Uiso   1.00
H2536  H     0.61152   0.88696   0.54876   0.00000  Uiso   1.00
C2537  C     0.61206   0.92529   0.59662   0.00000  Uiso   1.00
H2538  H     0.63480   0.91228   0.61259   0.00000  Uiso   1.00
H2539  H     0.58599   0.91445   0.60823   0.00000  Uiso   1.00
H2540  H     0.61290   0.95519   0.60171   0.00000  Uiso   1.00
O2541  O     0.53018   0.84651   0.46136   0.00000  Uiso   1.00
C2542  C     0.56827   0.85061   0.45754   0.00000  Uiso   1.00
H2543  H     0.57897   0.82975   0.43700   0.00000  Uiso   1.00
H2544  H     0.58250   0.84773   0.48604   0.00000  Uiso   1.00
C2545  C     0.57626   0.88878   0.44165   0.00000  Uiso   1.00
H2546  H     0.55709   0.89501   0.41751   0.00000  Uiso   1.00
H2547  H     0.57201   0.90915   0.46520   0.00000  Uiso   1.00
C2548  C     0.61504   0.89221   0.42626   0.00000  Uiso   1.00
H2549  H     0.63500   0.88278   0.44829   0.00000  Uiso   1.00
H2550  H     0.62099   0.92106   0.41899   0.00000  Uiso   1.00
H2551  H     0.61791   0.87595   0.39921   0.00000  Uiso   1.00
O2552  O     0.95586   0.65983   0.53816   0.00000  Uiso   1.00
C2553  C     0.98375   0.63387   0.54428   0.00000  Uiso   1.00
H2554  H     0.97932   0.62191   0.57360   0.00000  Uiso   1.00
H2555  H     0.51182   0.64579   0.54459   0.00000  Uiso   1.00
C2556  C     0.98130   0.60317   0.51401   0.00000  Uiso   1.00
H2557  H     0.95262   0.59365   0.51130   0.00000  Uiso   1.00
H2558  H     0.99048   0.61346   0.48528   0.00000  Uiso   1.00
C2559  C     0.50515   0.57093   0.52521   0.00000  Uiso   1.00
H2560  H     0.53407   0.57969   0.52763   0.00000  Uiso   1.00
H2561  H     0.50299   0.54943   0.50248   0.00000  Uiso   1.00
H2562  H     0.99610   0.55925   0.55342   0.00000  Uiso   1.00
O2563  O     0.65296   0.97407   0.45986   0.00000  Uiso   1.00
C2564  C     0.63128   0.50576   0.45966   0.00000  Uiso   1.00
H2565  H     0.64733   0.53023   0.45081   0.00000  Uiso   1.00
H2566  H     0.61965   0.51057   0.48913   0.00000  Uiso   1.00
C2567  C     0.60006   0.50048   0.43068   0.00000  Uiso   1.00
H2568  H     0.61134   0.99406   0.40145   0.00000  Uiso   1.00
H2569  H     0.58270   0.97722   0.44012   0.00000  Uiso   1.00
C2570  C     0.57668   0.53460   0.42770   0.00000  Uiso   1.00
H2571  H     0.56493   0.54152   0.45655   0.00000  Uiso   1.00
H2572  H     0.55406   0.52965   0.40683   0.00000  Uiso   1.00
H2573  H     0.59327   0.55796   0.41707   0.00000  Uiso   1.00
O2574  O     0.83860   0.54630   0.53992   0.00000  Uiso   1.00
C2575  C     0.83368   0.58436   0.54298   0.00000  Uiso   1.00
H2576  H     0.80885   0.59056   0.56036   0.00000  Uiso   1.00
H2577  H     0.83114   0.59698   0.51362   0.00000  Uiso   1.00
C2578  C     0.86679   0.60105   0.56349   0.00000  Uiso   1.00
H2579  H     0.86994   0.58846   0.59270   0.00000  Uiso   1.00
H2580  H     0.89166   0.59524   0.54622   0.00000  Uiso   1.00
C2581  C     0.86300   0.64221   0.56830   0.00000  Uiso   1.00
H2582  H     0.86007   0.65544   0.53944   0.00000  Uiso   1.00
H2583  H     0.88766   0.65342   0.58286   0.00000  Uiso   1.00
H2584  H     0.83888   0.64862   0.58649   0.00000  Uiso   1.00
O2585  O     0.70484   0.91060   0.96056   0.00000  Uiso   1.00
C2586  C     0.66689   0.91596   0.95732   0.00000  Uiso   1.00
H2587  H     0.66122   0.93907   0.93727   0.00000  Uiso   1.00
H2588  H     0.65442   0.92176   0.98626   0.00000  Uiso   1.00
C2589  C     0.64935   0.88130   0.94093   0.00000  Uiso   1.00
H2590  H     0.66246   0.87405   0.91282   0.00000  Uiso   1.00
H2591  H     0.65365   0.85863   0.96177   0.00000  Uiso   1.00
C2592  C     0.60857   0.88607   0.93432   0.00000  Uiso   1.00
H2593  H     0.59484   0.89329   0.96205   0.00000  Uiso   1.00
H2594  H     0.59666   0.86016   0.92319   0.00000  Uiso   1.00
H2595  H     0.60363   0.90782   0.91255   0.00000  Uiso   1.00
O2596  O     0.77752   0.59683   0.03970   0.00000  Uiso   1.00
C2597  C     0.74587   0.61853   0.04104   0.00000  Uiso   1.00
H2598  H     0.72164   0.60239   0.05040   0.00000  Uiso   1.00
H2599  H     0.74037   0.63037   0.01184   0.00000  Uiso   1.00
C2600  C     0.75174   0.64958   0.07020   0.00000  Uiso   1.00
H2601  H     0.75916   0.63812   0.09905   0.00000  Uiso   1.00
H2602  H     0.77445   0.66729   0.06009   0.00000  Uiso   1.00
C2603  C     0.71753   0.67259   0.07474   0.00000  Uiso   1.00
H2604  H     0.70951   0.68443   0.04628   0.00000  Uiso   1.00
H2605  H     0.72294   0.69519   0.09557   0.00000  Uiso   1.00
H2606  H     0.69477   0.65567   0.08619   0.00000  Uiso   1.00
O2607  O     0.59180   0.78891   0.96138   0.00000  Uiso   1.00
C2608  C     0.61662   0.75967   0.95935   0.00000  Uiso   1.00
H2609  H     0.60416   0.73586   0.94395   0.00000  Uiso   1.00
H2610  H     0.62522   0.75115   0.98907   0.00000  Uiso   1.00
C2611  C     0.65030   0.77203   0.93681   0.00000  Uiso   1.00
H2612  H     0.64184   0.78275   0.90798   0.00000  Uiso   1.00
H2613  H     0.66425   0.79425   0.95315   0.00000  Uiso   1.00
C2614  C     0.67693   0.74076   0.93076   0.00000  Uiso   1.00
H2615  H     0.68578   0.72962   0.95926   0.00000  Uiso   1.00
H2616  H     0.70130   0.75086   0.91491   0.00000  Uiso   1.00
H2617  H     0.66400   0.71869   0.91326   0.00000  Uiso   1.00
O2618  O     0.90339   0.72027   0.03890   0.00000  Uiso   1.00
C2619  C     0.89951   0.68211   0.04272   0.00000  Uiso   1.00
H2620  H     0.92059   0.67145   0.06295   0.00000  Uiso   1.00
H2621  H     0.90207   0.66792   0.01411   0.00000  Uiso   1.00
C2622  C     0.86164   0.67398   0.05917   0.00000  Uiso   1.00
H2623  H     0.85623   0.69224   0.08437   0.00000  Uiso   1.00
H2624  H     0.84089   0.67946   0.03637   0.00000  Uiso   1.00
C2625  C     0.85800   0.63457   0.07268   0.00000  Uiso   1.00
H2626  H     0.86586   0.61542   0.04910   0.00000  Uiso   1.00
H2627  H     0.82946   0.62893   0.08128   0.00000  Uiso   1.00
H2628  H     0.87536   0.63010   0.09860   0.00000  Uiso   1.00
O2629  O     0.78274   0.59547   0.96127   0.00000  Uiso   1.00
C2630  C     0.82120   0.59671   0.96026   0.00000  Uiso   1.00
H2631  H     0.83192   0.57443   0.94151   0.00000  Uiso   1.00
H2632  H     0.83309   0.59375   0.98992   0.00000  Uiso   1.00
C2633  C     0.83390   0.63353   0.94426   0.00000  Uiso   1.00
H2634  H     0.82351   0.65569   0.96328   0.00000  Uiso   1.00
H2635  H     0.86413   0.63473   0.94491   0.00000  Uiso   1.00
C2636  C     0.82087   0.63976   0.90252   0.00000  Uiso   1.00
H2637  H     0.82997   0.61731   0.88319   0.00000  Uiso   1.00
H2638  H     0.83235   0.66578   0.89141   0.00000  Uiso   1.00
H2639  H     0.79070   0.64144   0.90153   0.00000  Uiso   1.00
O2640  O     0.71046   0.90805   0.03865   0.00000  Uiso   1.00
C2641  C     0.73947   0.88297   0.04038   0.00000  Uiso   1.00
H2642  H     0.76368   0.89540   0.05505   0.00000  Uiso   1.00
H2643  H     0.74732   0.87388   0.01059   0.00000  Uiso   1.00
C2644  C     0.72728   0.84966   0.06370   0.00000  Uiso   1.00
H2645  H     0.71727   0.85859   0.09270   0.00000  Uiso   1.00
H2646  H     0.70461   0.83571   0.04813   0.00000  Uiso   1.00
C2647  C     0.75835   0.82275   0.06931   0.00000  Uiso   1.00
H2648  H     0.76873   0.81336   0.04065   0.00000  Uiso   1.00
H2649  H     0.74838   0.79869   0.08580   0.00000  Uiso   1.00
H2650  H     0.78091   0.83572   0.08601   0.00000  Uiso   1.00
O2651  O     0.90380   0.71963   0.96028   0.00000  Uiso   1.00
C2652  C     0.88189   0.75097   0.95646   0.00000  Uiso   1.00
H2653  H     0.89758   0.77411   0.94377   0.00000  Uiso   1.00
H2654  H     0.87104   0.75937   0.98535   0.00000  Uiso   1.00
C2655  C     0.84989   0.74219   0.92947   0.00000  Uiso   1.00
H2656  H     0.86033   0.73216   0.90105   0.00000  Uiso   1.00
H2657  H     0.83288   0.72039   0.94272   0.00000  Uiso   1.00
C2658  C     0.82636   0.77567   0.92246   0.00000  Uiso   1.00
H2659  H     0.81561   0.78626   0.95048   0.00000  Uiso   1.00
H2660  H     0.80302   0.76816   0.90342   0.00000  Uiso   1.00
H2661  H     0.84252   0.79738   0.90787   0.00000  Uiso   1.00
O2662  O     0.58925   0.79453   0.03939   0.00000  Uiso   1.00
C2663  C     0.58375   0.83250   0.04292   0.00000  Uiso   1.00
H2664  H     0.56110   0.83796   0.06362   0.00000  Uiso   1.00
H2665  H     0.57722   0.84506   0.01422   0.00000  Uiso   1.00
C2666  C     0.61862   0.85024   0.05842   0.00000  Uiso   1.00
H2667  H     0.62669   0.83697   0.08616   0.00000  Uiso   1.00
H2668  H     0.64074   0.84627   0.03683   0.00000  Uiso   1.00
C2669  C     0.61369   0.89098   0.06557   0.00000  Uiso   1.00
H2670  H     0.60563   0.90486   0.03822   0.00000  Uiso   1.00
H2671  H     0.63974   0.90305   0.07601   0.00000  Uiso   1.00
H2672  H     0.59251   0.89558   0.08808   0.00000  Uiso   1.00
O2673  O     0.60518   0.94814   0.23796   0.00000  Uiso   1.00
C2674  C     0.60111   0.96441   0.27508   0.00000  Uiso   1.00
H2675  H     0.62738   0.96444   0.29131   0.00000  Uiso   1.00
H2676  H     0.58028   0.94954   0.29254   0.00000  Uiso   1.00
C2677  C     0.58882   0.50382   0.27015   0.00000  Uiso   1.00
H2678  H     0.60727   0.51801   0.24948   0.00000  Uiso   1.00
H2679  H     0.56082   0.50403   0.25800   0.00000  Uiso   1.00
C2680  C     0.58911   0.52434   0.30888   0.00000  Uiso   1.00
H2681  H     0.57031   0.51108   0.32989   0.00000  Uiso   1.00
H2682  H     0.58016   0.55286   0.30418   0.00000  Uiso   1.00
H2683  H     0.61701   0.52491   0.32138   0.00000  Uiso   1.00
O2684  O     0.89137   0.55809   0.78231   0.00000  Uiso   1.00
C2685  C     0.88362   0.56002   0.82275   0.00000  Uiso   1.00
H2686  H     0.87912   0.53174   0.83309   0.00000  Uiso   1.00
H2687  H     0.85796   0.57497   0.82933   0.00000  Uiso   1.00
C2688  C     0.91527   0.57720   0.84561   0.00000  Uiso   1.00
H2689  H     0.94127   0.56529   0.83569   0.00000  Uiso   1.00
H2690  H     0.91618   0.60704   0.84020   0.00000  Uiso   1.00
C2691  C     0.91119   0.57085   0.88926   0.00000  Uiso   1.00
H2692  H     0.88474   0.58149   0.89955   0.00000  Uiso   1.00
H2693  H     0.93331   0.58532   0.90516   0.00000  Uiso   1.00
H2694  H     0.91281   0.54128   0.89587   0.00000  Uiso   1.00
O2695  O     0.56677   0.61838   0.19825   0.00000  Uiso   1.00
C2696  C     0.54418   0.58875   0.20960   0.00000  Uiso   1.00
H2697  H     0.51877   0.59997   0.22225   0.00000  Uiso   1.00
H2698  H     0.55637   0.57049   0.23203   0.00000  Uiso   1.00
C2699  C     0.53465   0.56581   0.17371   0.00000  Uiso   1.00
H2700  H     0.52052   0.58310   0.15206   0.00000  Uiso   1.00
H2701  H     0.55993   0.55557   0.15998   0.00000  Uiso   1.00
C2702  C     0.51048   0.53329   0.18413   0.00000  Uiso   1.00
H2703  H     0.52616   0.51301   0.20105   0.00000  Uiso   1.00
H2704  H     0.50046   0.51995   0.15708   0.00000  Uiso   1.00
H2705  H     0.98681   0.54222   0.20164   0.00000  Uiso   1.00
O2706  O     0.92940   0.87733   0.80697   0.00000  Uiso   1.00
C2707  C     0.91675   0.85856   0.84019   0.00000  Uiso   1.00
H2708  H     0.90819   0.83018   0.83257   0.00000  Uiso   1.00
H2709  H     0.89327   0.87312   0.85343   0.00000  Uiso   1.00
C2710  C     0.94756   0.85678   0.87006   0.00000  Uiso   1.00
H2711  H     0.97249   0.84609   0.85589   0.00000  Uiso   1.00
H2712  H     0.95367   0.88462   0.88120   0.00000  Uiso   1.00
C2713  C     0.93754   0.83209   0.90408   0.00000  Uiso   1.00
H2714  H     0.91307   0.84260   0.91929   0.00000  Uiso   1.00
H2715  H     0.96052   0.83104   0.92508   0.00000  Uiso   1.00
H2716  H     0.93193   0.80406   0.89332   0.00000  Uiso   1.00
O2717  O     0.89436   0.55358   0.23484   0.00000  Uiso   1.00
C2718  C     0.89938   0.53689   0.27163   0.00000  Uiso   1.00
H2719  H     0.89304   0.50741   0.26833   0.00000  Uiso   1.00
H2720  H     0.88054   0.54727   0.29456   0.00000  Uiso   1.00
C2721  C     0.93898   0.54085   0.28519   0.00000  Uiso   1.00
H2722  H     0.95713   0.52665   0.26430   0.00000  Uiso   1.00
H2723  H     0.94689   0.57010   0.28613   0.00000  Uiso   1.00
C2724  C     0.94421   0.52484   0.32576   0.00000  Uiso   1.00
H2725  H     0.92810   0.54046   0.34737   0.00000  Uiso   1.00
H2726  H     0.97339   0.52654   0.33408   0.00000  Uiso   1.00
H2727  H     0.93539   0.99585   0.32637   0.00000  Uiso   1.00
O2728  O     0.60677   0.94605   0.77344   0.00000  Uiso   1.00
C2729  C     0.60317   0.94623   0.81444   0.00000  Uiso   1.00
H2730  H     0.62705   0.93309   0.82871   0.00000  Uiso   1.00
H2731  H     0.57787   0.93160   0.82324   0.00000  Uiso   1.00
C2732  C     0.60100   0.98564   0.82877   0.00000  Uiso   1.00
H2733  H     0.62536   0.50100   0.81863   0.00000  Uiso   1.00
H2734  H     0.57631   0.99873   0.81656   0.00000  Uiso   1.00
C2735  C     0.59938   0.98757   0.87311   0.00000  Uiso   1.00
H2736  H     0.57485   0.97298   0.88398   0.00000  Uiso   1.00
H2737  H     0.59801   0.51650   0.88251   0.00000  Uiso   1.00
H2738  H     0.62413   0.97522   0.88602   0.00000  Uiso   1.00
O2739  O     0.94738   0.89484   0.23662   0.00000  Uiso   1.00
C2740  C     0.96477   0.89952   0.27318   0.00000  Uiso   1.00
H2741  H     0.98675   0.87896   0.27558   0.00000  Uiso   1.00
H2742  H     0.94646   0.89583   0.29891   0.00000  Uiso   1.00
C2743  C     0.98174   0.93763   0.27521   0.00000  Uiso   1.00
H2744  H     0.50168   0.94116   0.25125   0.00000  Uiso   1.00
H2745  H     0.96004   0.95827   0.27153   0.00000  Uiso   1.00
C2746  C     0.50108   0.94398   0.31400   0.00000  Uiso   1.00
H2747  H     0.98135   0.94230   0.33842   0.00000  Uiso   1.00
H2748  H     0.51380   0.97149   0.31416   0.00000  Uiso   1.00
H2749  H     0.52267   0.92332   0.31835   0.00000  Uiso   1.00
O2750  O     0.55481   0.60650   0.77321   0.00000  Uiso   1.00
C2751  C     0.55541   0.60073   0.81394   0.00000  Uiso   1.00
H2752  H     0.56108   0.62688   0.82944   0.00000  Uiso   1.00
H2753  H     0.57650   0.58052   0.82243   0.00000  Uiso   1.00
C2754  C     0.51850   0.58606   0.82709   0.00000  Uiso   1.00
H2755  H     0.99736   0.60707   0.82208   0.00000  Uiso   1.00
H2756  H     0.51140   0.56139   0.80974   0.00000  Uiso   1.00
C2757  C     0.51924   0.57610   0.87023   0.00000  Uiso   1.00
H2758  H     0.54031   0.55518   0.87585   0.00000  Uiso   1.00
H2759  H     0.99253   0.56467   0.87908   0.00000  Uiso   1.00
H2760  H     0.52511   0.60067   0.88820   0.00000  Uiso   1.00
O2761  O     0.60519   0.55242   0.76238   0.00000  Uiso   1.00
C2762  C     0.60086   0.53517   0.72568   0.00000  Uiso   1.00
H2763  H     0.62192   0.51368   0.72296   0.00000  Uiso   1.00
H2764  H     0.60397   0.55380   0.70014   0.00000  Uiso   1.00
C2765  C     0.56321   0.51729   0.72366   0.00000  Uiso   1.00
H2766  H     0.56021   0.99714   0.74751   0.00000  Uiso   1.00
H2767  H     0.54209   0.53850   0.72760   0.00000  Uiso   1.00
C2768  C     0.55724   0.99800   0.68473   0.00000  Uiso   1.00
H2769  H     0.55881   0.51786   0.66043   0.00000  Uiso   1.00
H2770  H     0.52989   0.98500   0.68439   0.00000  Uiso   1.00
H2771  H     0.57812   0.97661   0.68033   0.00000  Uiso   1.00
O2772  O     0.89324   0.94518   0.22605   0.00000  Uiso   1.00
C2773  C     0.89898   0.94446   0.18533   0.00000  Uiso   1.00
H2774  H     0.87277   0.93921   0.16989   0.00000  Uiso   1.00
H2775  H     0.91882   0.92304   0.17671   0.00000  Uiso   1.00
C2776  C     0.91420   0.98121   0.17227   0.00000  Uiso   1.00
H2777  H     0.89347   0.50264   0.17722   0.00000  Uiso   1.00
H2778  H     0.93884   0.98799   0.18975   0.00000  Uiso   1.00
C2779  C     0.92437   0.98036   0.12920   0.00000  Uiso   1.00
H2780  H     0.94497   0.95895   0.12362   0.00000  Uiso   1.00
H2781  H     0.93624   0.50694   0.12054   0.00000  Uiso   1.00
H2782  H     0.89985   0.97489   0.11108   0.00000  Uiso   1.00
O2783  O     0.55205   0.89491   0.76350   0.00000  Uiso   1.00
C2784  C     0.53561   0.89935   0.72655   0.00000  Uiso   1.00
H2785  H     0.53560   0.87324   0.70992   0.00000  Uiso   1.00
H2786  H     0.55029   0.92046   0.70930   0.00000  Uiso   1.00
C2787  C     0.99623   0.91142   0.73197   0.00000  Uiso   1.00
H2788  H     0.98235   0.89284   0.75273   0.00000  Uiso   1.00
H2789  H     0.99599   0.93944   0.74421   0.00000  Uiso   1.00
C2790  C     0.97539   0.91108   0.69349   0.00000  Uiso   1.00
H2791  H     0.98843   0.92994   0.67240   0.00000  Uiso   1.00
H2792  H     0.94694   0.91999   0.69852   0.00000  Uiso   1.00
H2793  H     0.97476   0.88314   0.68095   0.00000  Uiso   1.00
O2794  O     0.94232   0.60829   0.21852   0.00000  Uiso   1.00
C2795  C     0.94243   0.61610   0.17806   0.00000  Uiso   1.00
H2796  H     0.97120   0.62058   0.16944   0.00000  Uiso   1.00
H2797  H     0.92791   0.64182   0.17065   0.00000  Uiso   1.00
C2798  C     0.92632   0.58458   0.15410   0.00000  Uiso   1.00
H2799  H     0.93461   0.55820   0.16681   0.00000  Uiso   1.00
H2800  H     0.89612   0.58602   0.15500   0.00000  Uiso   1.00
C2801  C     0.93898   0.58608   0.11176   0.00000  Uiso   1.00
H2802  H     0.93683   0.61414   0.10005   0.00000  Uiso   1.00
H2803  H     0.92193   0.56756   0.09365   0.00000  Uiso   1.00
H2804  H     0.96776   0.57728   0.10960   0.00000  Uiso   1.00
O2805  O     0.88111   0.93320   0.80232   0.00000  Uiso   1.00
C2806  C     0.91053   0.95612   0.79118   0.00000  Uiso   1.00
H2807  H     0.89918   0.98124   0.77799   0.00000  Uiso   1.00
H2808  H     0.92930   0.94386   0.76927   0.00000  Uiso   1.00
C2809  C     0.93270   0.96650   0.82734   0.00000  Uiso   1.00
H2810  H     0.91509   0.98125   0.84827   0.00000  Uiso   1.00
H2811  H     0.94258   0.94146   0.84190   0.00000  Uiso   1.00
C2812  C     0.96544   0.99037   0.81700   0.00000  Uiso   1.00
H2813  H     0.98595   0.97425   0.80086   0.00000  Uiso   1.00
H2814  H     0.97831   0.50093   0.84407   0.00000  Uiso   1.00
H2815  H     0.95692   0.51373   0.79877   0.00000  Uiso   1.00
O2816  O     0.62306   0.57073   0.19304   0.00000  Uiso   1.00
C2817  C     0.64151   0.58385   0.15982   0.00000  Uiso   1.00
H2818  H     0.66977   0.59266   0.16737   0.00000  Uiso   1.00
H2819  H     0.62664   0.60727   0.14689   0.00000  Uiso   1.00
C2820  C     0.64354   0.55322   0.12966   0.00000  Uiso   1.00
H2821  H     0.65491   0.52841   0.14345   0.00000  Uiso   1.00
H2822  H     0.61573   0.54660   0.11890   0.00000  Uiso   1.00
C2823  C     0.66753   0.56399   0.09534   0.00000  Uiso   1.00
H2824  H     0.65615   0.58817   0.08035   0.00000  Uiso   1.00
H2825  H     0.66900   0.54103   0.07426   0.00000  Uiso   1.00
H2826  H     0.69549   0.57042   0.10570   0.00000  Uiso   1.00
O2827  O     0.94646   0.60536   0.76445   0.00000  Uiso   1.00
C2828  C     0.96337   0.60045   0.72774   0.00000  Uiso   1.00
H2829  H     0.99280   0.60663   0.73130   0.00000  Uiso   1.00
H2830  H     0.95326   0.61950   0.70490   0.00000  Uiso   1.00
C2831  C     0.95929   0.56089   0.71390   0.00000  Uiso   1.00
H2832  H     0.97299   0.54253   0.73492   0.00000  Uiso   1.00
H2833  H     0.93002   0.55323   0.71247   0.00000  Uiso   1.00
C2834  C     0.97591   0.55567   0.67358   0.00000  Uiso   1.00
H2835  H     0.96099   0.57216   0.65175   0.00000  Uiso   1.00
H2836  H     0.97399   0.52651   0.66503   0.00000  Uiso   1.00
H2837  H     0.50500   0.56408   0.67363   0.00000  Uiso   1.00
O2838  O     0.55412   0.89341   0.22748   0.00000  Uiso   1.00
C2839  C     0.55417   0.89709   0.18647   0.00000  Uiso   1.00
H2840  H     0.56763   0.87335   0.17218   0.00000  Uiso   1.00
H2841  H     0.56860   0.92258   0.17786   0.00000  Uiso   1.00
C2842  C     0.51490   0.89891   0.17183   0.00000  Uiso   1.00
H2843  H     0.99965   0.87448   0.18199   0.00000  Uiso   1.00
H2844  H     0.50156   0.92362   0.18377   0.00000  Uiso   1.00
C2845  C     0.51330   0.90026   0.12747   0.00000  Uiso   1.00
H2846  H     0.52787   0.92480   0.11656   0.00000  Uiso   1.00
H2847  H     0.98447   0.90148   0.11786   0.00000  Uiso   1.00
H2848  H     0.52580   0.87543   0.11479   0.00000  Uiso   1.00
O2849  O     0.85549   0.69819   0.73901   0.00000  Uiso   1.00
C2850  C     0.84998   0.71297   0.77661   0.00000  Uiso   1.00
H2851  H     0.87382   0.70808   0.79603   0.00000  Uiso   1.00
H2852  H     0.82527   0.70062   0.79003   0.00000  Uiso   1.00
C2853  C     0.84465   0.75407   0.77331   0.00000  Uiso   1.00
H2854  H     0.86800   0.76622   0.75746   0.00000  Uiso   1.00
H2855  H     0.81956   0.75945   0.75645   0.00000  Uiso   1.00
C2856  C     0.84167   0.77216   0.81323   0.00000  Uiso   1.00
H2857  H     0.81803   0.76087   0.82939   0.00000  Uiso   1.00
H2858  H     0.83784   0.80196   0.80957   0.00000  Uiso   1.00
H2859  H     0.86692   0.76769   0.83037   0.00000  Uiso   1.00
O2860  O     0.64146   0.80774   0.28180   0.00000  Uiso   1.00
C2861  C     0.63357   0.80792   0.32225   0.00000  Uiso   1.00
H2862  H     0.62910   0.77918   0.33108   0.00000  Uiso   1.00
H2863  H     0.60785   0.82249   0.32950   0.00000  Uiso   1.00
C2864  C     0.66498   0.82428   0.34614   0.00000  Uiso   1.00
H2865  H     0.69137   0.81593   0.33351   0.00000  Uiso   1.00
H2866  H     0.66351   0.85451   0.34502   0.00000  Uiso   1.00
C2867  C     0.66341   0.81191   0.38855   0.00000  Uiso   1.00
H2868  H     0.63541   0.81437   0.40028   0.00000  Uiso   1.00
H2869  H     0.68201   0.82899   0.40652   0.00000  Uiso   1.00
H2870  H     0.67199   0.78305   0.39088   0.00000  Uiso   1.00
O2871  O     0.81425   0.86517   0.70257   0.00000  Uiso   1.00
C2872  C     0.79162   0.83778   0.71920   0.00000  Uiso   1.00
H2873  H     0.76444   0.84998   0.72422   0.00000  Uiso   1.00
H2874  H     0.80095   0.82745   0.74812   0.00000  Uiso   1.00
C2875  C     0.78774   0.80548   0.69096   0.00000  Uiso   1.00
H2876  H     0.78305   0.81565   0.66098   0.00000  Uiso   1.00
H2877  H     0.81317   0.78941   0.69059   0.00000  Uiso   1.00
C2878  C     0.75658   0.78001   0.70252   0.00000  Uiso   1.00
H2879  H     0.76178   0.76793   0.73154   0.00000  Uiso   1.00
H2880  H     0.75408   0.75758   0.68089   0.00000  Uiso   1.00
H2881  H     0.73048   0.79501   0.70350   0.00000  Uiso   1.00
O2882  O     0.67928   0.62719   0.30684   0.00000  Uiso   1.00
C2883  C     0.66619   0.60888   0.34016   0.00000  Uiso   1.00
H2884  H     0.65727   0.58058   0.33272   0.00000  Uiso   1.00
H2885  H     0.64289   0.62390   0.35315   0.00000  Uiso   1.00
C2886  C     0.69684   0.60682   0.37019   0.00000  Uiso   1.00
H2887  H     0.72150   0.59517   0.35636   0.00000  Uiso   1.00
H2888  H     0.70369   0.63469   0.38075   0.00000  Uiso   1.00
C2889  C     0.68601   0.58311   0.40471   0.00000  Uiso   1.00
H2890  H     0.66201   0.59482   0.41976   0.00000  Uiso   1.00
H2891  H     0.70899   0.58158   0.42567   0.00000  Uiso   1.00
H2892  H     0.67931   0.55510   0.39457   0.00000  Uiso   1.00
O2893  O     0.64458   0.80390   0.73571   0.00000  Uiso   1.00
C2894  C     0.64895   0.78763   0.77287   0.00000  Uiso   1.00
H2895  H     0.64191   0.75828   0.77012   0.00000  Uiso   1.00
H2896  H     0.63031   0.79877   0.79558   0.00000  Uiso   1.00
C2897  C     0.68854   0.79091   0.78651   0.00000  Uiso   1.00
H2898  H     0.70604   0.77474   0.76681   0.00000  Uiso   1.00
H2899  H     0.69762   0.81983   0.78546   0.00000  Uiso   1.00
C2900  C     0.69311   0.77695   0.82802   0.00000  Uiso   1.00
H2901  H     0.67759   0.79434   0.84854   0.00000  Uiso   1.00
H2902  H     0.72231   0.77801   0.83632   0.00000  Uiso   1.00
H2903  H     0.68327   0.74835   0.83035   0.00000  Uiso   1.00
O2904  O     0.85660   0.69621   0.27187   0.00000  Uiso   1.00
C2905  C     0.85242   0.69668   0.31283   0.00000  Uiso   1.00
H2906  H     0.87592   0.68334   0.32759   0.00000  Uiso   1.00
H2907  H     0.82682   0.68240   0.32131   0.00000  Uiso   1.00
C2908  C     0.85050   0.73619   0.32689   0.00000  Uiso   1.00
H2909  H     0.87515   0.75121   0.31699   0.00000  Uiso   1.00
H2910  H     0.82609   0.74948   0.31431   0.00000  Uiso   1.00
C2911  C     0.84838   0.73845   0.37117   0.00000  Uiso   1.00
H2912  H     0.82349   0.72433   0.38181   0.00000  Uiso   1.00
H2913  H     0.84736   0.76747   0.38032   0.00000  Uiso   1.00
H2914  H     0.87279   0.72584   0.38448   0.00000  Uiso   1.00
O2915  O     0.69775   0.64511   0.73898   0.00000  Uiso   1.00
C2916  C     0.71405   0.64887   0.77624   0.00000  Uiso   1.00
H2917  H     0.73606   0.62834   0.77872   0.00000  Uiso   1.00
H2918  H     0.69502   0.64437   0.80121   0.00000  Uiso   1.00
C2919  C     0.73077   0.68698   0.78003   0.00000  Uiso   1.00
H2920  H     0.75146   0.69118   0.75692   0.00000  Uiso   1.00
H2921  H     0.70909   0.70762   0.77620   0.00000  Uiso   1.00
C2922  C     0.74880   0.69245   0.81970   0.00000  Uiso   1.00
H2923  H     0.72831   0.68999   0.84331   0.00000  Uiso   1.00
H2924  H     0.76127   0.72005   0.82115   0.00000  Uiso   1.00
H2925  H     0.77046   0.67188   0.82422   0.00000  Uiso   1.00
O2926  O     0.80484   0.85660   0.27364   0.00000  Uiso   1.00
C2927  C     0.80549   0.85081   0.31434   0.00000  Uiso   1.00
H2928  H     0.81135   0.87692   0.32985   0.00000  Uiso   1.00
H2929  H     0.82644   0.83044   0.32278   0.00000  Uiso   1.00
C2930  C     0.76849   0.83640   0.32751   0.00000  Uiso   1.00
H2931  H     0.74749   0.85755   0.32247   0.00000  Uiso   1.00
H2932  H     0.76124   0.81176   0.31019   0.00000  Uiso   1.00
C2933  C     0.76913   0.82650   0.37065   0.00000  Uiso   1.00
H2934  H     0.79008   0.80547   0.37633   0.00000  Uiso   1.00
H2935  H     0.74236   0.81521   0.37942   0.00000  Uiso   1.00
H2936  H     0.77509   0.85105   0.38861   0.00000  Uiso   1.00
O2937  O     0.85515   0.80243   0.26272   0.00000  Uiso   1.00
C2938  C     0.85096   0.78514   0.22601   0.00000  Uiso   1.00
H2939  H     0.87140   0.76302   0.22385   0.00000  Uiso   1.00
H2940  H     0.85517   0.80352   0.20043   0.00000  Uiso   1.00
C2941  C     0.81285   0.76837   0.22325   0.00000  Uiso   1.00
H2942  H     0.80888   0.74824   0.24695   0.00000  Uiso   1.00
H2943  H     0.79230   0.79019   0.22684   0.00000  Uiso   1.00
C2944  C     0.80694   0.74933   0.18418   0.00000  Uiso   1.00
H2945  H     0.80893   0.76928   0.16000   0.00000  Uiso   1.00
H2946  H     0.77945   0.73663   0.18355   0.00000  Uiso   1.00
H2947  H     0.82757   0.72769   0.17987   0.00000  Uiso   1.00
O2948  O     0.64368   0.69624   0.72972   0.00000  Uiso   1.00
C2949  C     0.65177   0.69800   0.68951   0.00000  Uiso   1.00
H2950  H     0.62849   0.68754   0.67175   0.00000  Uiso   1.00
H2951  H     0.67652   0.68192   0.68254   0.00000  Uiso   1.00
C2952  C     0.65893   0.73766   0.67846   0.00000  Uiso   1.00
H2953  H     0.63348   0.75349   0.68222   0.00000  Uiso   1.00
H2954  H     0.68018   0.74920   0.69802   0.00000  Uiso   1.00
C2955  C     0.67176   0.74118   0.63641   0.00000  Uiso   1.00
H2956  H     0.69774   0.72633   0.63222   0.00000  Uiso   1.00
H2957  H     0.67639   0.77040   0.62948   0.00000  Uiso   1.00
H2958  H     0.65086   0.73001   0.61617   0.00000  Uiso   1.00
O2959  O     0.80197   0.64492   0.26206   0.00000  Uiso   1.00
C2960  C     0.78585   0.64928   0.22495   0.00000  Uiso   1.00
H2961  H     0.78615   0.62317   0.20831   0.00000  Uiso   1.00
H2962  H     0.80057   0.67051   0.20788   0.00000  Uiso   1.00
C2963  C     0.74634   0.66111   0.22993   0.00000  Uiso   1.00
H2964  H     0.73227   0.64225   0.25027   0.00000  Uiso   1.00
H2965  H     0.74580   0.68899   0.24252   0.00000  Uiso   1.00
C2966  C     0.72600   0.66110   0.19114   0.00000  Uiso   1.00
H2967  H     0.73916   0.68030   0.17048   0.00000  Uiso   1.00
H2968  H     0.69742   0.66974   0.19589   0.00000  Uiso   1.00
H2969  H     0.72574   0.63331   0.17822   0.00000  Uiso   1.00
O2970  O     0.68982   0.85997   0.71339   0.00000  Uiso   1.00
C2971  C     0.68257   0.86661   0.67350   0.00000  Uiso   1.00
H2972  H     0.67322   0.89518   0.66907   0.00000  Uiso   1.00
H2973  H     0.66115   0.84755   0.66240   0.00000  Uiso   1.00
C2974  C     0.71709   0.86088   0.64963   0.00000  Uiso   1.00
H2975  H     0.74037   0.87515   0.66379   0.00000  Uiso   1.00
H2976  H     0.72279   0.83130   0.64791   0.00000  Uiso   1.00
C2977  C     0.71298   0.87540   0.60836   0.00000  Uiso   1.00
H2978  H     0.68928   0.86231   0.59372   0.00000  Uiso   1.00
H2979  H     0.73793   0.86931   0.59139   0.00000  Uiso   1.00
H2980  H     0.70929   0.90540   0.60913   0.00000  Uiso   1.00
O2981  O     0.63148   0.68340   0.30175   0.00000  Uiso   1.00
C2982  C     0.66104   0.70608   0.29045   0.00000  Uiso   1.00
H2983  H     0.64980   0.73148   0.27780   0.00000  Uiso   1.00
H2984  H     0.67936   0.69390   0.26804   0.00000  Uiso   1.00
C2985  C     0.68384   0.71572   0.32638   0.00000  Uiso   1.00
H2986  H     0.66649   0.72983   0.34803   0.00000  Uiso   1.00
H2987  H     0.69413   0.69044   0.34009   0.00000  Uiso   1.00
C2988  C     0.71626   0.74002   0.31602   0.00000  Uiso   1.00
H2989  H     0.73657   0.72441   0.29904   0.00000  Uiso   1.00
H2990  H     0.72952   0.75008   0.34308   0.00000  Uiso   1.00
H2991  H     0.70728   0.76371   0.29857   0.00000  Uiso   1.00
O2992  O     0.87227   0.82015   0.69413   0.00000  Uiso   1.00
C2993  C     0.89034   0.83329   0.66070   0.00000  Uiso   1.00
H2994  H     0.91870   0.84209   0.66789   0.00000  Uiso   1.00
H2995  H     0.87534   0.85675   0.64800   0.00000  Uiso   1.00
C2996  C     0.89194   0.80265   0.63053   0.00000  Uiso   1.00
H2997  H     0.90271   0.77758   0.64437   0.00000  Uiso   1.00
H2998  H     0.86402   0.79664   0.61964   0.00000  Uiso   1.00
C2999  C     0.91643   0.81287   0.59639   0.00000  Uiso   1.00
H3000  H     0.90612   0.83771   0.58172   0.00000  Uiso   1.00
H3001  H     0.91700   0.79013   0.57499   0.00000  Uiso   1.00
H3002  H     0.94460   0.81795   0.60691   0.00000  Uiso   1.00
O3003  O     0.69625   0.85556   0.26528   0.00000  Uiso   1.00
C3004  C     0.71289   0.85029   0.22847   0.00000  Uiso   1.00
H3005  H     0.74227   0.85694   0.23157   0.00000  Uiso   1.00
H3006  H     0.70230   0.86881   0.20537   0.00000  Uiso   1.00
C3007  C     0.70926   0.81046   0.21539   0.00000  Uiso   1.00
H3008  H     0.72404   0.79271   0.23616   0.00000  Uiso   1.00
H3009  H     0.68016   0.80212   0.21512   0.00000  Uiso   1.00
C3010  C     0.72464   0.80501   0.17455   0.00000  Uiso   1.00
H3011  H     0.70838   0.82060   0.15308   0.00000  Uiso   1.00
H3012  H     0.72330   0.77567   0.16662   0.00000  Uiso   1.00
H3013  H     0.75343   0.81432   0.17321   0.00000  Uiso   1.00
O3014  O     0.80389   0.64365   0.72847   0.00000  Uiso   1.00
C3015  C     0.80325   0.64878   0.68766   0.00000  Uiso   1.00
H3016  H     0.81545   0.62501   0.67219   0.00000  Uiso   1.00
H3017  H     0.81847   0.67399   0.67961   0.00000  Uiso   1.00
C3018  C     0.76382   0.65267   0.67414   0.00000  Uiso   1.00
H3019  H     0.74804   0.62809   0.68290   0.00000  Uiso   1.00
H3020  H     0.75152   0.67697   0.68816   0.00000  Uiso   1.00
C3021  C     0.76140   0.65691   0.63004   0.00000  Uiso   1.00
H3022  H     0.77672   0.68153   0.62056   0.00000  Uiso   1.00
H3023  H     0.73246   0.65993   0.62131   0.00000  Uiso   1.00
H3024  H     0.77266   0.63248   0.61526   0.00000  Uiso   1.00
O3025  O     0.52049   0.81393   0.39793   0.00000  Uiso   1.00
H3026  H     0.51168   0.81341   0.37073   0.00000  Uiso   1.00
O3027  O     0.96940   0.69120   0.60170   0.00000  Uiso   1.00
H3028  H     0.98138   0.68821   0.62729   0.00000  Uiso   1.00
O3029  O     0.68818   0.97493   0.39794   0.00000  Uiso   1.00
H3030  H     0.68762   0.98367   0.37075   0.00000  Uiso   1.00
O3031  O     0.81179   0.52292   0.60184   0.00000  Uiso   1.00
H3032  H     0.81293   0.51077   0.62748   0.00000  Uiso   1.00
O3033  O     0.97657   0.68808   0.39846   0.00000  Uiso   1.00
H3034  H     0.98808   0.68706   0.37248   0.00000  Uiso   1.00
O3035  O     0.52892   0.81028   0.60196   0.00000  Uiso   1.00
H3036  H     0.51925   0.81192   0.62875   0.00000  Uiso   1.00
O3037  O     0.81027   0.52786   0.39825   0.00000  Uiso   1.00
H3038  H     0.81233   0.51607   0.37242   0.00000  Uiso   1.00
O3039  O     0.68651   0.97767   0.60159   0.00000  Uiso   1.00
H3040  H     0.68744   0.98439   0.62944   0.00000  Uiso   1.00
O3041  O     0.77052   0.56379   0.89810   0.00000  Uiso   1.00
H3042  H     0.76218   0.56317   0.87074   0.00000  Uiso   1.00
O3043  O     0.72238   0.93982   0.10181   0.00000  Uiso   1.00
H3044  H     0.73415   0.93768   0.12761   0.00000  Uiso   1.00
O3045  O     0.93879   0.72259   0.89800   0.00000  Uiso   1.00
H3046  H     0.93779   0.73178   0.87099   0.00000  Uiso   1.00
O3047  O     0.56269   0.77073   0.10153   0.00000  Uiso   1.00
H3048  H     0.56312   0.75963   0.12772   0.00000  Uiso   1.00
O3049  O     0.72801   0.93743   0.89830   0.00000  Uiso   1.00
H3050  H     0.73919   0.93681   0.87214   0.00000  Uiso   1.00
O3051  O     0.77569   0.56188   0.10193   0.00000  Uiso   1.00
H3052  H     0.76712   0.56242   0.12918   0.00000  Uiso   1.00
O3053  O     0.55964   0.77826   0.89828   0.00000  Uiso   1.00
H3054  H     0.56200   0.76659   0.87242   0.00000  Uiso   1.00
O3055  O     0.93558   0.73114   0.10215   0.00000  Uiso   1.00
H3056  H     0.93644   0.73976   0.12942   0.00000  Uiso   1.00
loop_
_geom_bond_atom_site_label_1
_geom_bond_atom_site_label_2
_geom_bond_distance
_geom_bond_site_symmetry_2
_ccdc_geom_bond_type
C1     O733    1.387   .     S
C1     C101    1.411   .     A
C1     C781    1.410   1_455 S
C2     C102    1.408   .     A
C2     O735    1.385   .     S
C2     C18     1.409   .     A
C3     O737    1.387   .     S
C3     C103    1.408   .     A
C3     C1547   1.408   .     S
C4     C104    1.407   .     A
C4     C20     1.409   .     A
C4     O739    1.387   .     S
C5     C97     1.406   .     A
C5     C17     1.409   .     A
C5     O741    1.387   .     S
C6     O743    1.386   .     S
C6     C98     1.408   .     A
C6     C782    1.409   1_455 S
C7     C99     1.409   .     A
C7     C19     1.410   .     A
C7     O745    1.386   .     S
C8     C100    1.410   .     A
C8     O747    1.387   .     S
C8     C1548   1.412   .     S
C9     O749    1.387   .     S
C9     C21     1.410   .     A
C9     C109    1.410   .     A
C10    O751    1.386   .     S
C10    C110    1.408   .     A
C10    C1550   1.409   .     S
C11    O753    1.386   .     S
C11    C23     1.410   .     A
C11    C111    1.409   .     A
C12    O755    1.387   .     S
C12    C112    1.406   .     A
C12    C788    1.408   1_455 S
C13    C105    1.407   .     A
C13    O757    1.387   .     S
C13    C1549   1.409   .     S
C14    O759    1.387   .     S
C14    C22     1.409   .     A
C14    C106    1.408   .     A
C15    O761    1.386   .     S
C15    C107    1.407   .     A
C15    C787    1.408   1_455 S
C16    O763    1.387   .     S
C16    C24     1.410   .     A
C16    C108    1.411   .     A
C17    C43     1.449   .     S
C17    C765    1.410   .     S
C18    C44     1.450   .     S
C18    C770    1.409   .     S
C19    C41     1.449   .     S
C19    C1531   1.408   1_545 S
C20    C1536   1.412   1_545 S
C20    C1570   1.450   1_545 S
C21    C47     1.448   .     S
C21    C1541   1.409   1_545 S
C22    C48     1.449   .     S
C22    C1538   1.409   1_545 S
C23    C45     1.449   .     S
C23    C779    1.408   .     S
C24    C46     1.448   .     S
C24    C776    1.408   .     S
C25    C97     1.413   .     A
C25    O205    1.384   .     S
C25    C30     1.394   .     A
C26    O216    1.386   .     S
C26    C98     1.415   .     A
C26    C29     1.398   .     A
C27    C99     1.416   .     A
C27    O227    1.385   .     S
C27    C32     1.397   .     A
C28    O238    1.386   .     S
C28    C31     1.398   .     A
C28    C100    1.417   .     A
C29    O249    1.385   .     S
C29    C101    1.417   .     A
C30    C102    1.417   .     A
C30    O260    1.387   .     S
C31    O271    1.385   .     S
C31    C103    1.413   .     A
C32    C104    1.414   .     A
C32    O282    1.385   .     S
C33    C105    1.414   .     A
C33    O293    1.384   .     S
C33    C38     1.395   1_556 S
C34    O304    1.385   .     S
C34    C106    1.414   .     A
C34    C37     1.397   1_554 S
C35    C107    1.414   .     A
C35    O315    1.385   .     S
C35    C40     1.394   1_556 S
C36    C108    1.417   .     A
C36    O326    1.385   .     S
C36    C39     1.398   1_554 S
C37    C109    1.416   .     A
C37    O337    1.385   .     S
C37    C34     1.397   1_556 S
C38    C110    1.415   .     A
C38    O348    1.385   .     S
C38    C33     1.395   1_554 S
C39    C111    1.416   .     A
C39    O359    1.386   .     S
C39    C36     1.398   1_556 S
C40    C112    1.413   .     A
C40    O370    1.384   .     S
C40    C35     1.394   1_554 S
C41    O145    1.273   .     A
C41    O1669   1.278   1_545 S
C42    O146    1.277   .     A
C42    C1548   1.450   .     S
C42    O1670   1.275   .     S
C43    O147    1.274   .     A
C43    O907    1.279   .     S
C44    O144    1.276   .     A
C44    O912    1.278   .     S
C45    O913    1.276   .     S
C45    O917    1.276   .     S
C46    O914    1.274   .     S
C46    O918    1.277   .     S
C47    O151    1.278   .     A
C47    O155    1.275   .     A
C48    O156    1.278   .     A
C48    O152    1.276   .     A
C49    C115    1.459   .     S
C49    O157    1.279   .     A
C49    O183    1.279   .     A
C50    O184    1.280   .     A
C50    O158    1.281   .     A
C50    C116    1.464   .     S
C51    O181    1.280   .     A
C51    C117    1.459   .     S
C51    O159    1.284   .     A
C52    O182    1.277   .     A
C52    O160    1.281   .     A
C52    C118    1.449   .     S
C53    C119    1.468   .     S
C53    O187    1.283   .     A
C53    O161    1.284   .     A
C54    O162    1.280   .     A
C54    O188    1.281   .     A
C54    C120    1.456   .     S
C55    O163    1.281   .     A
C55    C113    1.460   .     S
C55    O185    1.286   .     A
C56    O164    1.279   .     A
C56    O186    1.281   .     A
C56    C114    1.449   .     S
C57    C123    1.459   .     S
C57    O165    1.282   .     A
C57    O175    1.283   .     A
C58    O166    1.279   .     A
C58    O176    1.279   .     A
C58    C124    1.449   .     S
C59    O167    1.280   .     A
C59    C125    1.459   .     S
C59    O173    1.278   .     A
C60    O174    1.281   .     A
C60    O168    1.280   .     A
C60    C126    1.463   .     S
C61    O179    1.281   .     A
C61    O169    1.285   .     A
C61    C127    1.460   .     S
C62    O170    1.280   .     A
C62    O180    1.280   .     A
C62    C128    1.449   .     S
C63    O171    1.284   .     A
C63    C121    1.468   .     S
C63    O177    1.283   .     A
C64    O172    1.280   .     A
C64    O178    1.280   .     A
C64    C122    1.456   .     S
C65    O381    1.385   .     S
C65    C128    1.408   .     A
C65    C80     1.396   .     A
C66    C79     1.387   .     A
C66    C127    1.413   .     A
C66    O392    1.383   .     S
C67    O403    1.386   .     S
C67    C126    1.412   .     A
C67    C78     1.393   .     A
C68    C77     1.393   .     A
C68    O414    1.383   .     S
C68    C125    1.409   .     A
C69    C76     1.387   .     A
C69    C124    1.406   .     A
C69    O425    1.386   .     S
C70    O436    1.384   .     S
C70    C123    1.412   .     A
C70    C75     1.397   .     A
C71    C122    1.405   .     A
C71    O447    1.385   .     S
C71    C74     1.398   .     A
C72    O458    1.384   .     S
C72    C73     1.397   .     A
C72    C121    1.412   .     A
C73    C120    1.405   .     A
C73    O469    1.385   .     S
C74    O480    1.384   .     S
C74    C119    1.412   .     A
C75    O491    1.385   .     S
C75    C118    1.409   .     A
C76    O502    1.384   .     S
C76    C117    1.414   .     A
C77    O513    1.387   .     S
C77    C116    1.414   .     A
C78    C115    1.409   .     A
C78    O524    1.383   .     S
C79    O535    1.386   .     S
C79    C114    1.404   .     A
C80    O546    1.385   .     S
C80    C113    1.412   .     A
C81    C114    1.407   .     A
C81    C96     1.397   .     A
C81    O557    1.384   .     S
C82    C95     1.387   .     A
C82    C113    1.414   .     A
C82    O568    1.384   .     S
C83    O579    1.385   .     S
C83    C94     1.390   .     A
C83    C116    1.413   .     A
C84    O590    1.383   .     S
C84    C93     1.393   .     A
C84    C115    1.408   .     A
C85    C118    1.404   .     A
C85    C92     1.386   .     A
C85    O601    1.384   .     S
C86    C117    1.412   .     A
C86    O612    1.385   .     S
C86    C91     1.396   .     A
C87    O623    1.385   .     S
C87    C90     1.399   .     A
C87    C120    1.406   .     A
C88    C119    1.412   .     A
C88    O634    1.384   .     S
C88    C89     1.398   .     A
C89    O645    1.385   .     S
C89    C122    1.405   .     A
C90    C121    1.413   .     A
C90    O656    1.384   .     S
C91    O667    1.385   .     S
C91    C124    1.408   .     A
C92    C123    1.411   .     A
C92    O678    1.383   .     S
C93    O689    1.386   .     S
C93    C126    1.413   .     A
C94    C125    1.408   .     A
C94    O700    1.382   .     S
C95    C128    1.405   .     A
C95    O711    1.386   .     S
C96    C127    1.411   .     A
C96    O722    1.385   .     S
C97    C129    1.420   .     A
C98    C894    1.420   1_455 S
C99    C131    1.422   .     A
C100   C1660   1.423   .     S
C101   C893    1.423   1_455 S
C102   C130    1.423   .     A
C103   C1659   1.420   .     S
C104   C132    1.421   .     A
C105   C1661   1.421   .     S
C106   C134    1.420   .     A
C107   C899    1.422   1_455 S
C108   C136    1.423   .     A
C109   C133    1.423   .     A
C110   C1662   1.422   .     S
C111   C135    1.420   .     A
C112   C900    1.421   1_455 S
C129   C130    1.416   .     A
C129   C865    1.423   .     S
C130   C862    1.420   .     S
C131   C132    1.416   .     A
C131   C1631   1.420   1_545 S
C132   C1628   1.423   1_545 S
C133   C1633   1.421   1_545 S
C133   C134    1.417   1_556 S
C134   C1638   1.422   1_545 S
C134   C133    1.417   1_554 S
C135   C871    1.422   .     S
C135   C136    1.416   1_556 S
C136   C876    1.421   .     S
C136   C135    1.416   1_554 S
O137   Zn200   1.945   .     S
O137   Zn189   1.948   .     S
O137   Zn193   1.951   .     S
O137   Zn1732  1.950   1_545 S
O138   Zn194   1.951   .     S
O138   Zn203   1.950   .     S
O138   Zn190   1.948   .     S
O138   Zn1727  1.945   1_545 S
O139   Zn198   1.948   .     S
O139   Zn191   1.945   .     S
O139   Zn195   1.950   .     S
O139   Zn966   1.951   1_455 S
O140   Zn201   1.951   .     S
O140   Zn196   1.950   .     S
O140   Zn192   1.945   .     S
O140   Zn961   1.948   1_455 S
O141   Zn204   1.944   .     S
O141   C1569   1.278   .     S
O142   Zn203   1.944   .     S
O142   C1570   1.275   1_545 S
O143   Zn198   1.946   .     S
O143   C807    1.279   1_455 S
O144   Zn197   1.946   .     S
O145   Zn200   1.947   .     S
O146   Zn199   1.947   .     S
O147   Zn202   1.945   .     S
O148   Zn201   1.945   .     S
O148   C808    1.278   1_455 S
O149   Zn196   1.944   .     S
O149   C809    1.276   1_455 S
O150   C810    1.274   1_455 S
O150   Zn195   1.944   .     S
O151   Zn190   1.946   .     S
O152   Zn189   1.946   .     S
O153   Zn192   1.947   .     S
O153   C809    1.276   1_455 S
O154   Zn191   1.947   .     S
O154   C810    1.277   1_455 S
O155   Zn194   1.945   .     S
O156   Zn193   1.945   .     S
O157   Zn200   1.945   .     S
O158   Zn199   1.945   .     S
O159   Zn202   1.932   .     S
O160   Zn201   1.932   .     S
O161   Zn204   1.945   .     S
O162   Zn203   1.945   .     S
O163   Zn198   1.934   .     S
O164   Zn197   1.934   .     S
O165   Zn199   1.935   .     S
O166   Zn200   1.935   .     S
O167   Zn197   1.943   .     S
O168   Zn198   1.943   .     S
O169   Zn203   1.933   .     S
O170   Zn204   1.933   .     S
O171   Zn201   1.944   .     S
O172   Zn202   1.944   .     S
O173   Zn956   1.945   .     S
O174   Zn191   1.945   .     S
O175   Zn1722  1.932   .     S
O176   Zn193   1.932   .     S
O177   Zn196   1.945   .     S
O178   Zn959   1.945   .     S
O179   Zn190   1.934   .     S
O180   Zn1717  1.934   .     S
O181   Zn955   1.935   .     S
O182   Zn192   1.935   .     S
O183   Zn189   1.943   .     S
O184   Zn1718  1.943   .     S
O185   Zn195   1.933   .     S
O186   Zn960   1.933   .     S
O187   Zn1721  1.944   .     S
O188   Zn194   1.944   .     S
Zn189  O1708   1.934   1_545 S
Zn190  O1712   1.943   1_545 S
Zn191  O945    1.935   1_455 S
Zn192  O937    1.945   1_455 S
Zn193  O1715   1.944   1_545 S
Zn194  O1703   1.932   1_545 S
Zn195  O942    1.945   1_455 S
Zn196  O950    1.933   1_455 S
Zn197  O904    1.948   .     S
Zn199  O1666   1.945   .     S
Zn202  O903    1.951   .     S
Zn204  O1665   1.950   .     S
O205   C206    1.413   .     S
C206   H207    1.113   .     S
C206   H208    1.116   .     S
C206   C209    1.528   .     S
C209   H211    1.111   .     S
C209   C212    1.526   .     S
C209   H210    1.112   .     S
C212   H215    1.110   .     S
C212   H213    1.111   .     S
C212   H214    1.111   .     S
O216   C981    1.414   1_455 S
C217   H218    1.114   .     S
C217   H219    1.113   .     S
C217   O980    1.414   .     S
C217   C984    1.528   .     S
C220   H221    1.112   .     S
C220   H222    1.110   .     S
C220   C981    1.528   1_455 S
C220   C987    1.526   1_455 S
C223   H226    1.111   .     S
C223   H224    1.111   .     S
C223   H225    1.110   .     S
C223   C984    1.526   .     S
O227   C228    1.414   .     S
C228   H230    1.114   .     S
C228   C231    1.528   .     S
C228   H1757   1.115   1_545 S
H229   C1756   1.115   .     S
C231   C234    1.526   .     S
C231   H233    1.111   .     S
C231   H232    1.111   .     S
C234   H236    1.111   .     S
C234   H1763   1.111   1_545 S
C234   H1765   1.111   1_545 S
H235   C1762   1.111   .     S
H237   C1762   1.111   .     S
O238   C239    1.414   .     S
C239   H241    1.112   .     S
C239   H240    1.110   .     S
C239   C242    1.530   .     S
C242   H244    1.112   .     S
C242   C245    1.527   .     S
C242   H243    1.111   .     S
C245   H247    1.110   .     S
C245   H246    1.110   .     S
C245   H248    1.110   .     S
O249   C250    1.413   .     S
C250   H252    1.115   .     S
C250   C253    1.531   .     S
C250   H251    1.113   .     S
C253   C256    1.525   .     S
C253   H254    1.112   .     S
C253   H255    1.112   .     S
C256   H259    1.108   .     S
C256   H258    1.109   .     S
C256   H257    1.110   .     S
O260   C261    1.419   .     S
C261   C264    1.533   .     S
C261   H262    1.111   .     S
C261   H1027   1.118   .     S
H263   C1025   1.118   1_455 S
C264   H266    1.110   .     S
C264   H265    1.111   .     S
C264   C1031   1.526   .     S
C267   H268    1.111   .     S
C267   H269    1.111   .     S
C267   C1028   1.526   1_455 S
C267   H1034   1.111   1_455 S
H270   C1031   1.111   .     S
O271   C1800   1.413   .     S
C272   C275    1.529   .     S
C272   H274    1.113   .     S
C272   H273    1.114   .     S
C272   O1799   1.413   1_545 S
C275   C278    1.526   .     S
C275   H1804   1.112   1_545 S
C275   H1805   1.111   1_545 S
H276   C1803   1.112   .     S
H277   C1803   1.111   .     S
C278   H281    1.111   .     S
C278   H279    1.111   .     S
C278   H280    1.111   .     S
O282   C283    1.413   .     S
C283   H284    1.115   .     S
C283   C286    1.528   .     S
C283   H285    1.115   .     S
C286   C289    1.526   .     S
C286   H288    1.111   .     S
C286   H287    1.112   .     S
C289   H292    1.111   .     S
C289   H290    1.110   .     S
C289   H291    1.110   .     S
O293   C294    1.413   .     S
C294   H295    1.114   .     S
C294   H296    1.115   .     S
C294   C297    1.528   .     S
C297   H299    1.111   .     S
C297   H298    1.112   .     S
C297   C300    1.526   .     S
C300   H301    1.111   .     S
C300   H303    1.111   .     S
C300   H302    1.111   .     S
O304   C305    1.414   .     S
C305   H307    1.113   .     S
C305   H306    1.114   .     S
C305   C308    1.529   .     S
C308   C311    1.526   .     S
C308   H309    1.112   .     S
C308   H310    1.111   .     S
C311   H313    1.110   .     S
C311   H312    1.111   .     S
C311   H314    1.111   .     S
O315   C316    1.414   .     S
C316   H317    1.116   .     S
C316   C319    1.528   .     S
C316   H318    1.114   .     S
C319   H321    1.111   .     S
C319   H320    1.111   .     S
C319   C322    1.526   .     S
C322   H324    1.110   .     S
C322   H325    1.111   .     S
C322   H323    1.111   .     S
O326   C327    1.413   .     S
C327   H329    1.115   .     S
C327   H328    1.113   .     S
C327   C330    1.530   .     S
C330   H331    1.112   .     S
C330   H332    1.112   .     S
C330   C333    1.525   .     S
C333   H334    1.110   .     S
C333   H336    1.108   .     S
C333   H335    1.108   .     S
O337   C338    1.414   .     S
C338   H340    1.114   .     S
C338   C341    1.530   .     S
C338   H339    1.113   .     S
C341   H343    1.112   .     S
C341   C344    1.529   .     S
C341   H342    1.111   .     S
C344   H347    1.111   .     S
C344   H345    1.110   .     S
C344   H346    1.110   .     S
O348   C349    1.414   .     S
C349   H351    1.114   .     S
C349   C352    1.528   .     S
C349   H350    1.116   .     S
C352   H353    1.111   .     S
C352   C355    1.526   .     S
C352   H354    1.110   .     S
C355   H356    1.111   .     S
C355   H358    1.111   .     S
C355   H357    1.111   .     S
O359   C360    1.414   .     S
C360   H361    1.114   .     S
C360   H362    1.113   .     S
C360   C363    1.528   .     S
C363   H364    1.112   .     S
C363   C366    1.526   .     S
C363   H365    1.111   .     S
C366   H369    1.111   .     S
C366   H367    1.111   .     S
C366   H368    1.110   .     S
O370   C371    1.413   .     S
C371   C374    1.528   .     S
C371   H372    1.114   .     S
C371   H373    1.116   .     S
C374   H375    1.112   .     S
C374   C377    1.526   .     S
C374   H376    1.111   .     S
C377   H380    1.111   .     S
C377   H379    1.110   .     S
C377   H378    1.111   .     S
O381   C382    1.415   .     S
C382   H383    1.114   .     S
C382   H384    1.114   .     S
C382   C1913   1.527   .     S
C385   H387    1.110   .     S
C385   H386    1.110   .     S
C385   C388    1.527   .     S
C385   C1910   1.527   1_545 S
C388   H389    1.111   .     S
C388   H391    1.111   .     S
C388   H390    1.111   .     S
O392   C393    1.420   .     S
C393   H394    1.109   .     S
C393   C396    1.533   .     S
C393   H395    1.116   .     S
C396   H398    1.111   .     S
C396   C399    1.525   .     S
C396   H397    1.107   .     S
C399   H401    1.110   .     S
C399   H402    1.111   .     S
C399   H400    1.108   .     S
O403   C404    1.419   .     S
C404   H405    1.111   .     S
C404   C407    1.530   .     S
C404   H406    1.117   .     S
C407   C410    1.526   .     S
C407   H408    1.109   .     S
C407   H409    1.109   .     S
C410   H411    1.109   .     S
C410   H412    1.110   .     S
C410   H1177   1.109   1_455 S
H413   C1174   1.109   .     S
O414   C415    1.412   .     S
C415   H417    1.114   .     S
C415   H416    1.116   .     S
C415   C418    1.528   .     S
C418   H420    1.111   .     S
C418   C421    1.524   .     S
C418   H419    1.111   .     S
C421   H422    1.111   .     S
C421   H424    1.110   .     S
C421   H423    1.111   .     S
O425   C426    1.418   .     S
C426   H427    1.110   .     S
C426   H428    1.117   .     S
C426   C429    1.533   .     S
C429   H430    1.111   .     S
C429   C432    1.526   .     S
C429   H431    1.110   .     S
C432   H433    1.110   .     S
C432   H434    1.110   .     S
C432   H1963   1.110   1_545 S
H435   C1960   1.110   .     S
O436   C437    1.415   .     S
C437   H439    1.113   .     S
C437   H438    1.117   .     S
C437   C440    1.529   .     S
C440   C443    1.526   .     S
C440   H442    1.111   .     S
C440   H1969   1.111   .     S
H441   C1968   1.111   1_545 S
C443   H444    1.111   .     S
C443   H446    1.111   .     S
C443   H1973   1.110   .     S
H445   C1971   1.110   1_545 S
O447   C448    1.417   .     S
C448   H449    1.112   .     S
C448   C451    1.528   .     S
C448   H450    1.119   .     S
C451   H453    1.110   .     S
C451   H1216   1.110   .     S
C451   C1218   1.526   .     S
H452   C1215   1.110   1_455 S
C454   H457    1.111   .     S
C454   H456    1.110   .     S
C454   C1215   1.526   1_455 S
C454   H1219   1.111   1_455 S
H455   C1218   1.111   .     S
O458   C459    1.415   .     S
C459   H460    1.114   .     S
C459   H461    1.115   .     S
C459   C462    1.525   .     S
C462   H464    1.112   .     S
C462   C465    1.527   .     S
C462   H1227   1.111   1_455 S
H463   C1226   1.111   .     S
C465   H468    1.111   .     S
C465   H466    1.110   .     S
C465   H1231   1.108   1_455 S
H467   C1229   1.108   .     S
O469   C470    1.417   .     S
C470   H471    1.112   .     S
C470   C473    1.528   .     S
C470   H472    1.119   .     S
C473   H475    1.110   .     S
C473   H2002   1.110   1_545 S
C473   C2004   1.526   1_545 S
H474   C2001   1.110   .     S
C476   H478    1.110   .     S
C476   H479    1.111   .     S
C476   C2001   1.526   .     S
C476   H2005   1.111   .     S
H477   C2004   1.111   1_545 S
O480   C481    1.415   .     S
C481   H482    1.114   .     S
C481   C484    1.525   .     S
C481   H483    1.115   .     S
C484   H486    1.112   .     S
C484   C487    1.527   .     S
C484   H2013   1.111   .     S
H485   C2012   1.111   1_545 S
C487   H490    1.111   .     S
C487   H488    1.110   .     S
C487   H2017   1.107   .     S
H489   C2015   1.107   1_545 S
O491   C492    1.415   .     S
C492   H493    1.114   .     S
C492   H494    1.114   .     S
C492   C1259   1.527   1_455 S
C495   H496    1.110   .     S
C495   C498    1.526   .     S
C495   H497    1.110   .     S
C495   C1256   1.527   .     S
C498   H499    1.110   .     S
C498   H500    1.111   .     S
C498   H501    1.111   .     S
O502   C503    1.420   .     S
C503   H505    1.117   .     S
C503   H504    1.109   .     S
C503   C506    1.533   .     S
C506   H507    1.107   .     S
C506   H508    1.111   .     S
C506   C509    1.528   .     S
C509   H510    1.109   .     S
C509   H511    1.110   .     S
C509   H512    1.110   .     S
O513   C514    1.419   .     S
C514   H515    1.111   .     S
C514   H516    1.117   .     S
C514   C517    1.530   .     S
C517   H519    1.110   .     S
C517   H518    1.110   .     S
C517   C520    1.526   .     S
C520   H521    1.109   .     S
C520   H2050   1.110   .     S
C520   H2051   1.109   .     S
H522   C2048   1.110   1_545 S
H523   C2048   1.109   1_545 S
O524   C525    1.412   .     S
C525   C528    1.528   .     S
C525   H527    1.114   .     S
C525   H526    1.116   .     S
C528   H529    1.111   .     S
C528   H530    1.111   .     S
C528   C531    1.524   .     S
C531   H533    1.111   .     S
C531   H532    1.111   .     S
C531   H534    1.110   .     S
O535   C536    1.418   .     S
C536   H538    1.117   .     S
C536   C539    1.532   .     S
C536   H537    1.110   .     S
C539   H541    1.110   .     S
C539   H540    1.111   .     S
C539   C542    1.526   .     S
C542   H543    1.111   .     S
C542   H544    1.110   .     S
C542   H1309   1.110   .     S
H545   C1306   1.110   1_455 S
O546   C547    1.415   .     S
C547   C550    1.529   .     S
C547   H549    1.113   .     S
C547   H548    1.117   .     S
C550   C553    1.526   .     S
C550   H552    1.111   .     S
C550   H1315   1.111   1_455 S
H551   C1314   1.111   .     S
C553   H554    1.111   .     S
C553   H556    1.111   .     S
C553   H1319   1.110   1_455 S
H555   C1317   1.110   .     S
O557   C558    1.415   .     S
C558   C561    1.526   .     S
C558   H559    1.116   .     S
C558   H560    1.113   .     S
C561   H563    1.107   .     S
C561   H562    1.108   .     S
C561   C564    1.526   .     S
C564   H566    1.111   .     S
C564   H567    1.111   .     S
C564   H565    1.110   .     S
O568   C569    1.420   .     S
C569   C572    1.533   .     S
C569   H571    1.117   .     S
C569   H570    1.109   .     S
C572   H573    1.107   .     S
C572   C575    1.528   .     S
C572   H574    1.111   .     S
C575   H577    1.110   .     S
C575   H578    1.110   .     S
C575   H576    1.109   .     S
O579   C580    1.422   .     S
C580   C583    1.535   .     S
C580   H581    1.110   .     S
C580   H582    1.118   .     S
C583   C586    1.527   .     S
C583   H585    1.108   .     S
C583   H584    1.110   .     S
C586   H588    1.111   .     S
C586   H589    1.109   .     S
C586   H587    1.109   .     S
O590   C591    1.412   .     S
C591   C594    1.528   .     S
C591   H593    1.114   .     S
C591   H592    1.115   .     S
C594   H595    1.111   .     S
C594   H596    1.111   .     S
C594   C597    1.524   .     S
C597   H600    1.110   .     S
C597   H598    1.111   .     S
C597   H599    1.111   .     S
O601   C602    1.419   .     S
C602   H604    1.117   .     S
C602   C605    1.531   .     S
C602   H603    1.110   .     S
C605   H606    1.108   .     S
C605   C608    1.525   .     S
C605   H607    1.111   .     S
C608   H609    1.110   .     S
C608   H611    1.111   .     S
C608   H610    1.110   .     S
O612   C613    1.415   .     S
C613   H615    1.113   .     S
C613   H614    1.117   .     S
C613   C616    1.529   .     S
C616   C619    1.525   .     S
C616   H618    1.111   .     S
C616   H617    1.111   .     S
C619   H621    1.110   .     S
C619   H622    1.110   .     S
C619   H620    1.111   .     S
O623   C624    1.418   .     S
C624   C627    1.529   .     S
C624   H625    1.112   .     S
C624   H626    1.119   .     S
C627   C630    1.526   .     S
C627   H628    1.110   .     S
C627   H629    1.110   .     S
C630   H633    1.111   .     S
C630   H631    1.111   .     S
C630   H632    1.110   .     S
O634   C635    1.415   .     S
C635   H637    1.115   .     S
C635   C638    1.525   .     S
C635   H636    1.114   .     S
C638   H639    1.111   .     S
C638   C641    1.527   .     S
C638   H640    1.112   .     S
C641   H644    1.111   .     S
C641   H642    1.110   .     S
C641   H643    1.107   .     S
O645   C646    1.418   .     S
C646   C649    1.529   .     S
C646   H648    1.119   .     S
C646   H647    1.112   .     S
C649   C652    1.526   .     S
C649   H651    1.110   .     S
C649   H650    1.110   .     S
C652   H654    1.110   .     S
C652   H653    1.111   .     S
C652   H655    1.111   .     S
O656   C657    1.415   .     S
C657   H659    1.113   .     S
C657   H658    1.116   .     S
C657   C660    1.526   .     S
C660   C663    1.525   .     S
C660   H662    1.110   .     S
C660   H661    1.111   .     S
C663   H665    1.111   .     S
C663   H664    1.111   .     S
C663   H666    1.111   .     S
O667   C668    1.415   .     S
C668   H669    1.114   .     S
C668   C671    1.527   .     S
C668   H670    1.114   .     S
C671   C674    1.527   .     S
C671   H673    1.110   .     S
C671   H672    1.110   .     S
C674   H675    1.110   .     S
C674   H676    1.111   .     S
C674   H677    1.111   .     S
O678   C679    1.417   .     S
C679   H681    1.115   .     S
C679   H680    1.116   .     S
C679   C682    1.526   .     S
C682   H684    1.108   .     S
C682   C685    1.523   .     S
C682   H683    1.111   .     S
C685   H688    1.110   .     S
C685   H687    1.110   .     S
C685   H686    1.111   .     S
O689   C690    1.419   .     S
C690   H691    1.111   .     S
C690   H692    1.117   .     S
C690   C693    1.530   .     S
C693   C696    1.526   .     S
C693   H695    1.109   .     S
C693   H694    1.109   .     S
C696   H698    1.110   .     S
C696   H697    1.109   .     S
C696   H699    1.109   .     S
O700   C701    1.412   .     S
C701   H703    1.114   .     S
C701   H702    1.116   .     S
C701   C704    1.528   .     S
C704   C707    1.525   .     S
C704   H706    1.112   .     S
C704   H705    1.111   .     S
C707   H709    1.111   .     S
C707   H710    1.110   .     S
C707   H708    1.111   .     S
O711   C712    1.418   .     S
C712   H713    1.110   .     S
C712   H714    1.117   .     S
C712   C715    1.533   .     S
C715   H717    1.110   .     S
C715   H716    1.111   .     S
C715   C718    1.526   .     S
C718   H720    1.110   .     S
C718   H721    1.110   .     S
C718   H719    1.110   .     S
O722   C723    1.415   .     S
C723   H725    1.113   .     S
C723   C726    1.528   .     S
C723   H724    1.117   .     S
C726   H728    1.111   .     S
C726   H727    1.111   .     S
C726   C729    1.526   .     S
C729   H732    1.111   .     S
C729   H731    1.110   .     S
C729   H730    1.111   .     S
O733   H734    0.988   .     S
O735   H736    0.989   .     S
O737   H738    0.988   .     S
O739   H740    0.989   .     S
O741   H742    0.989   .     S
O743   H744    0.989   .     S
O745   H746    0.989   .     S
O747   H748    0.988   .     S
O749   H750    0.988   .     S
O751   H752    0.989   .     S
O753   H754    0.989   .     S
O755   H756    0.989   .     S
O757   H758    0.989   .     S
O759   H760    0.988   .     S
O761   H762    0.989   .     S
O763   H764    0.988   .     S
C765   O1497   1.387   .     S
C765   C865    1.411   .     A
C766   C866    1.408   .     A
C766   O1499   1.385   .     S
C766   C782    1.409   .     A
C767   O1501   1.387   .     S
C767   C867    1.408   .     A
C767   C2311   1.408   .     S
C768   C868    1.407   .     A
C768   C784    1.409   .     A
C768   O1503   1.387   .     S
C769   C861    1.406   .     A
C769   C781    1.409   .     A
C769   O1505   1.387   .     S
C770   O1507   1.386   .     S
C770   C862    1.408   .     A
C771   C863    1.409   .     A
C771   C783    1.410   .     A
C771   O1509   1.386   .     S
C772   C864    1.410   .     A
C772   O1511   1.387   .     S
C772   C2312   1.412   .     S
C773   O1513   1.387   .     S
C773   C785    1.410   .     A
C773   C873    1.410   .     A
C774   O1515   1.386   .     S
C774   C874    1.408   .     A
C774   C2314   1.409   .     S
C775   O1517   1.386   .     S
C775   C787    1.410   .     A
C775   C875    1.409   .     A
C776   O1519   1.387   .     S
C776   C876    1.406   .     A
C777   C869    1.407   .     A
C777   O1521   1.387   .     S
C777   C2313   1.409   .     S
C778   O1523   1.387   .     S
C778   C786    1.409   .     A
C778   C870    1.408   .     A
C779   O1525   1.386   .     S
C779   C871    1.407   .     A
C780   O1527   1.387   .     S
C780   C788    1.410   .     A
C780   C872    1.411   .     A
C781   C807    1.449   .     S
C781   C1      1.410   1_655 S
C782   C808    1.450   .     S
C782   C6      1.409   1_655 S
C783   C805    1.449   .     S
C783   C2295   1.408   1_545 S
C784   C2300   1.412   1_545 S
C784   C2334   1.450   1_545 S
C785   C811    1.448   .     S
C785   C2305   1.409   1_545 S
C786   C812    1.449   .     S
C786   C2302   1.409   1_545 S
C787   C809    1.449   .     S
C787   C15     1.408   1_655 S
C788   C810    1.448   .     S
C788   C12     1.408   1_655 S
C789   C861    1.413   .     A
C789   O969    1.384   .     S
C789   C794    1.394   .     A
C790   O980    1.386   .     S
C790   C862    1.415   .     A
C790   C793    1.398   .     A
C791   C863    1.416   .     A
C791   O991    1.385   .     S
C791   C796    1.397   .     A
C792   O1002   1.386   .     S
C792   C795    1.398   .     A
C792   C864    1.417   .     A
C793   O1013   1.385   .     S
C793   C865    1.417   .     A
C794   C866    1.417   .     A
C794   O1024   1.387   .     S
C795   O1035   1.385   .     S
C795   C867    1.413   .     A
C796   C868    1.414   .     A
C796   O1046   1.385   .     S
C797   C869    1.414   .     A
C797   O1057   1.384   .     S
C797   C802    1.395   1_556 S
C798   O1068   1.385   .     S
C798   C870    1.414   .     A
C798   C801    1.397   1_554 S
C799   C871    1.414   .     A
C799   O1079   1.385   .     S
C799   C804    1.394   1_556 S
C800   C872    1.417   .     A
C800   O1090   1.385   .     S
C800   C803    1.398   1_554 S
C801   C873    1.416   .     A
C801   O1101   1.385   .     S
C801   C798    1.397   1_556 S
C802   C874    1.415   .     A
C802   O1112   1.385   .     S
C802   C797    1.395   1_554 S
C803   C875    1.416   .     A
C803   O1123   1.386   .     S
C803   C800    1.398   1_556 S
C804   C876    1.413   .     A
C804   O1134   1.384   .     S
C804   C799    1.394   1_554 S
C805   O909    1.273   .     A
C805   O2433   1.278   1_545 S
C806   O910    1.277   .     A
C806   C2312   1.450   .     S
C806   O2434   1.275   .     S
C807   O911    1.274   .     A
C807   O143    1.279   1_655 S
C808   O908    1.276   .     A
C808   O148    1.278   1_655 S
C809   O149    1.276   1_655 S
C809   O153    1.276   1_655 S
C810   O150    1.274   1_655 S
C810   O154    1.277   1_655 S
C811   O915    1.278   .     A
C811   O919    1.275   .     A
C812   O920    1.278   .     A
C812   O916    1.276   .     A
C813   C879    1.459   .     S
C813   O921    1.279   .     A
C813   O947    1.279   .     A
C814   O948    1.280   .     A
C814   O922    1.281   .     A
C814   C880    1.464   .     S
C815   O945    1.280   .     A
C815   C881    1.459   .     S
C815   O923    1.284   .     A
C816   O946    1.277   .     A
C816   O924    1.281   .     A
C816   C882    1.449   .     S
C817   C883    1.468   .     S
C817   O951    1.283   .     A
C817   O925    1.284   .     A
C818   O926    1.280   .     A
C818   O952    1.281   .     A
C818   C884    1.456   .     S
C819   O927    1.281   .     A
C819   C877    1.460   .     S
C819   O949    1.286   .     A
C820   O928    1.279   .     A
C820   O950    1.281   .     A
C820   C878    1.449   .     S
C821   C887    1.459   .     S
C821   O929    1.282   .     A
C821   O939    1.283   .     A
C822   O930    1.279   .     A
C822   O940    1.279   .     A
C822   C888    1.449   .     S
C823   O931    1.280   .     A
C823   C889    1.459   .     S
C823   O937    1.278   .     A
C824   O938    1.281   .     A
C824   O932    1.280   .     A
C824   C890    1.463   .     S
C825   O943    1.281   .     A
C825   O933    1.285   .     A
C825   C891    1.460   .     S
C826   O934    1.280   .     A
C826   O944    1.280   .     A
C826   C892    1.449   .     S
C827   O935    1.284   .     A
C827   C885    1.468   .     S
C827   O941    1.283   .     A
C828   O936    1.280   .     A
C828   O942    1.280   .     A
C828   C886    1.456   .     S
C829   O1145   1.385   .     S
C829   C892    1.408   .     A
C829   C844    1.396   .     A
C830   C843    1.387   .     A
C830   C891    1.413   .     A
C830   O1156   1.383   .     S
C831   O1167   1.386   .     S
C831   C890    1.412   .     A
C831   C842    1.393   .     A
C832   C841    1.393   .     A
C832   O1178   1.383   .     S
C832   C889    1.409   .     A
C833   C840    1.387   .     A
C833   C888    1.406   .     A
C833   O1189   1.386   .     S
C834   O1200   1.384   .     S
C834   C887    1.412   .     A
C834   C839    1.397   .     A
C835   C886    1.405   .     A
C835   O1211   1.385   .     S
C835   C838    1.398   .     A
C836   O1222   1.384   .     S
C836   C837    1.397   .     A
C836   C885    1.412   .     A
C837   C884    1.405   .     A
C837   O1233   1.385   .     S
C838   O1244   1.384   .     S
C838   C883    1.412   .     A
C839   O1255   1.385   .     S
C839   C882    1.409   .     A
C840   O1266   1.384   .     S
C840   C881    1.414   .     A
C841   O1277   1.387   .     S
C841   C880    1.414   .     A
C842   C879    1.409   .     A
C842   O1288   1.383   .     S
C843   O1299   1.386   .     S
C843   C878    1.404   .     A
C844   O1310   1.385   .     S
C844   C877    1.412   .     A
C845   C878    1.407   .     A
C845   C860    1.397   .     A
C845   O1321   1.384   .     S
C846   C859    1.387   .     A
C846   C877    1.414   .     A
C846   O1332   1.384   .     S
C847   O1343   1.385   .     S
C847   C858    1.390   .     A
C847   C880    1.413   .     A
C848   O1354   1.383   .     S
C848   C857    1.393   .     A
C848   C879    1.408   .     A
C849   C882    1.404   .     A
C849   C856    1.386   .     A
C849   O1365   1.384   .     S
C850   C881    1.412   .     A
C850   O1376   1.385   .     S
C850   C855    1.396   .     A
C851   O1387   1.385   .     S
C851   C854    1.399   .     A
C851   C884    1.406   .     A
C852   C883    1.412   .     A
C852   O1398   1.384   .     S
C852   C853    1.398   .     A
C853   O1409   1.385   .     S
C853   C886    1.405   .     A
C854   C885    1.413   .     A
C854   O1420   1.384   .     S
C855   O1431   1.385   .     S
C855   C888    1.408   .     A
C856   C887    1.411   .     A
C856   O1442   1.383   .     S
C857   O1453   1.386   .     S
C857   C890    1.413   .     A
C858   C889    1.408   .     A
C858   O1464   1.382   .     S
C859   C892    1.405   .     A
C859   O1475   1.386   .     S
C860   C891    1.411   .     A
C860   O1486   1.385   .     S
C861   C893    1.420   .     A
C863   C895    1.422   .     A
C864   C2424   1.423   .     S
C866   C894    1.423   .     A
C867   C2423   1.420   .     S
C868   C896    1.421   .     A
C869   C2425   1.421   .     S
C870   C898    1.420   .     A
C872   C900    1.423   .     A
C873   C897    1.423   .     A
C874   C2426   1.422   .     S
C875   C899    1.420   .     A
C893   C894    1.416   .     A
C893   C101    1.423   1_655 S
C894   C98     1.420   1_655 S
C895   C896    1.416   .     A
C895   C2395   1.420   1_545 S
C896   C2392   1.423   1_545 S
C897   C2397   1.421   1_545 S
C897   C898    1.417   1_556 S
C898   C2402   1.422   1_545 S
C898   C897    1.417   1_554 S
C899   C107    1.422   1_655 S
C899   C900    1.416   1_556 S
C900   C112    1.421   1_655 S
C900   C899    1.416   1_554 S
O901   Zn964   1.945   .     S
O901   Zn953   1.948   .     S
O901   Zn957   1.951   .     S
O901   Zn2496  1.950   1_545 S
O902   Zn958   1.951   .     S
O902   Zn967   1.950   .     S
O902   Zn954   1.948   .     S
O902   Zn2491  1.945   1_545 S
O903   Zn962   1.948   .     S
O903   Zn955   1.945   .     S
O903   Zn959   1.950   .     S
O904   Zn965   1.951   .     S
O904   Zn960   1.950   .     S
O904   Zn956   1.945   .     S
O905   Zn968   1.944   .     S
O905   C2333   1.278   .     S
O906   Zn967   1.944   .     S
O906   C2334   1.275   1_545 S
O907   Zn962   1.946   .     S
O908   Zn961   1.946   .     S
O909   Zn964   1.947   .     S
O910   Zn963   1.947   .     S
O911   Zn966   1.945   .     S
O912   Zn965   1.945   .     S
O913   Zn960   1.944   .     S
O914   Zn959   1.944   .     S
O915   Zn954   1.946   .     S
O916   Zn953   1.946   .     S
O917   Zn956   1.947   .     S
O918   Zn955   1.947   .     S
O919   Zn958   1.945   .     S
O920   Zn957   1.945   .     S
O921   Zn964   1.945   .     S
O922   Zn963   1.945   .     S
O923   Zn966   1.932   .     S
O924   Zn965   1.932   .     S
O925   Zn968   1.945   .     S
O926   Zn967   1.945   .     S
O927   Zn962   1.934   .     S
O928   Zn961   1.934   .     S
O929   Zn963   1.935   .     S
O930   Zn964   1.935   .     S
O931   Zn961   1.943   .     S
O932   Zn962   1.943   .     S
O933   Zn967   1.933   .     S
O934   Zn968   1.933   .     S
O935   Zn965   1.944   .     S
O936   Zn966   1.944   .     S
O937   Zn192   1.945   1_655 S
O938   Zn955   1.945   .     S
O939   Zn2486  1.932   .     S
O940   Zn957   1.932   .     S
O941   Zn960   1.945   .     S
O942   Zn195   1.945   1_655 S
O943   Zn954   1.934   .     S
O944   Zn2481  1.934   .     S
O945   Zn191   1.935   1_655 S
O946   Zn956   1.935   .     S
O947   Zn953   1.943   .     S
O948   Zn2482  1.943   .     S
O949   Zn959   1.933   .     S
O950   Zn196   1.933   1_655 S
O951   Zn2485  1.944   .     S
O952   Zn958   1.944   .     S
Zn953  O2472   1.934   1_545 S
Zn954  O2476   1.943   1_545 S
Zn957  O2479   1.944   1_545 S
Zn958  O2467   1.932   1_545 S
Zn961  O140    1.948   1_655 S
Zn963  O2430   1.945   .     S
Zn966  O139    1.951   1_655 S
Zn968  O2429   1.950   .     S
O969   C970    1.413   .     S
C970   H971    1.113   .     S
C970   H972    1.116   .     S
C970   C973    1.528   .     S
C973   H975    1.111   .     S
C973   C976    1.526   .     S
C973   H974    1.112   .     S
C976   H979    1.110   .     S
C976   H977    1.111   .     S
C976   H978    1.111   .     S
C981   H982    1.114   .     S
C981   H983    1.113   .     S
C981   O216    1.414   1_655 S
C981   C220    1.528   1_655 S
C984   H985    1.112   .     S
C984   H986    1.110   .     S
C987   H990    1.111   .     S
C987   H988    1.111   .     S
C987   H989    1.110   .     S
C987   C220    1.526   1_655 S
O991   C992    1.414   .     S
C992   H994    1.114   .     S
C992   C995    1.528   .     S
C992   H2521   1.115   1_545 S
H993   C2520   1.115   .     S
C995   C998    1.526   .     S
C995   H997    1.111   .     S
C995   H996    1.111   .     S
C998   H1000   1.111   .     S
C998   H2527   1.111   1_545 S
C998   H2529   1.111   1_545 S
H999   C2526   1.111   .     S
H1001  C2526   1.111   .     S
O1002  C1003   1.414   .     S
C1003  H1005   1.112   .     S
C1003  H1004   1.110   .     S
C1003  C1006   1.530   .     S
C1006  H1008   1.112   .     S
C1006  C1009   1.527   .     S
C1006  H1007   1.111   .     S
C1009  H1011   1.110   .     S
C1009  H1010   1.110   .     S
C1009  H1012   1.110   .     S
O1013  C1014   1.413   .     S
C1014  H1016   1.115   .     S
C1014  C1017   1.531   .     S
C1014  H1015   1.113   .     S
C1017  C1020   1.525   .     S
C1017  H1018   1.112   .     S
C1017  H1019   1.112   .     S
C1020  H1023   1.108   .     S
C1020  H1022   1.109   .     S
C1020  H1021   1.110   .     S
O1024  C1025   1.419   .     S
C1025  C1028   1.533   .     S
C1025  H1026   1.111   .     S
C1025  H263    1.118   1_655 S
C1028  H1030   1.110   .     S
C1028  H1029   1.111   .     S
C1028  C267    1.526   1_655 S
C1031  H1032   1.111   .     S
C1031  H1033   1.111   .     S
H1034  C267    1.111   1_655 S
O1035  C2564   1.413   .     S
C1036  C1039   1.529   .     S
C1036  H1038   1.113   .     S
C1036  H1037   1.114   .     S
C1036  O2563   1.413   1_545 S
C1039  C1042   1.526   .     S
C1039  H2568   1.112   1_545 S
C1039  H2569   1.111   1_545 S
H1040  C2567   1.112   .     S
H1041  C2567   1.111   .     S
C1042  H1045   1.111   .     S
C1042  H1043   1.111   .     S
C1042  H1044   1.111   .     S
O1046  C1047   1.413   .     S
C1047  H1048   1.115   .     S
C1047  C1050   1.528   .     S
C1047  H1049   1.115   .     S
C1050  C1053   1.526   .     S
C1050  H1052   1.111   .     S
C1050  H1051   1.112   .     S
C1053  H1056   1.111   .     S
C1053  H1054   1.110   .     S
C1053  H1055   1.110   .     S
O1057  C1058   1.413   .     S
C1058  H1059   1.114   .     S
C1058  H1060   1.115   .     S
C1058  C1061   1.528   .     S
C1061  H1063   1.111   .     S
C1061  H1062   1.112   .     S
C1061  C1064   1.526   .     S
C1064  H1065   1.111   .     S
C1064  H1067   1.111   .     S
C1064  H1066   1.111   .     S
O1068  C1069   1.414   .     S
C1069  H1071   1.113   .     S
C1069  H1070   1.114   .     S
C1069  C1072   1.529   .     S
C1072  C1075   1.526   .     S
C1072  H1073   1.112   .     S
C1072  H1074   1.111   .     S
C1075  H1077   1.110   .     S
C1075  H1076   1.111   .     S
C1075  H1078   1.111   .     S
O1079  C1080   1.414   .     S
C1080  H1081   1.116   .     S
C1080  C1083   1.528   .     S
C1080  H1082   1.114   .     S
C1083  H1085   1.111   .     S
C1083  H1084   1.111   .     S
C1083  C1086   1.526   .     S
C1086  H1088   1.110   .     S
C1086  H1089   1.111   .     S
C1086  H1087   1.111   .     S
O1090  C1091   1.413   .     S
C1091  H1093   1.115   .     S
C1091  H1092   1.113   .     S
C1091  C1094   1.530   .     S
C1094  H1095   1.112   .     S
C1094  H1096   1.112   .     S
C1094  C1097   1.525   .     S
C1097  H1098   1.110   .     S
C1097  H1100   1.108   .     S
C1097  H1099   1.108   .     S
O1101  C1102   1.414   .     S
C1102  H1104   1.114   .     S
C1102  C1105   1.530   .     S
C1102  H1103   1.113   .     S
C1105  H1107   1.112   .     S
C1105  C1108   1.529   .     S
C1105  H1106   1.111   .     S
C1108  H1111   1.111   .     S
C1108  H1109   1.110   .     S
C1108  H1110   1.110   .     S
O1112  C1113   1.414   .     S
C1113  H1115   1.114   .     S
C1113  C1116   1.528   .     S
C1113  H1114   1.116   .     S
C1116  H1117   1.111   .     S
C1116  C1119   1.526   .     S
C1116  H1118   1.110   .     S
C1119  H1120   1.111   .     S
C1119  H1122   1.111   .     S
C1119  H1121   1.111   .     S
O1123  C1124   1.414   .     S
C1124  H1125   1.114   .     S
C1124  H1126   1.113   .     S
C1124  C1127   1.528   .     S
C1127  H1128   1.112   .     S
C1127  C1130   1.526   .     S
C1127  H1129   1.111   .     S
C1130  H1133   1.111   .     S
C1130  H1131   1.111   .     S
C1130  H1132   1.110   .     S
O1134  C1135   1.413   .     S
C1135  C1138   1.528   .     S
C1135  H1136   1.114   .     S
C1135  H1137   1.116   .     S
C1138  H1139   1.112   .     S
C1138  C1141   1.526   .     S
C1138  H1140   1.111   .     S
C1141  H1144   1.111   .     S
C1141  H1143   1.110   .     S
C1141  H1142   1.111   .     S
O1145  C1146   1.415   .     S
C1146  H1147   1.114   .     S
C1146  H1148   1.114   .     S
C1146  C2677   1.527   .     S
C1149  H1151   1.110   .     S
C1149  H1150   1.110   .     S
C1149  C1152   1.527   .     S
C1149  C2674   1.527   1_545 S
C1152  H1153   1.111   .     S
C1152  H1155   1.111   .     S
C1152  H1154   1.111   .     S
O1156  C1157   1.420   .     S
C1157  H1158   1.109   .     S
C1157  C1160   1.533   .     S
C1157  H1159   1.116   .     S
C1160  H1162   1.111   .     S
C1160  C1163   1.525   .     S
C1160  H1161   1.107   .     S
C1163  H1165   1.110   .     S
C1163  H1166   1.111   .     S
C1163  H1164   1.108   .     S
O1167  C1168   1.419   .     S
C1168  H1169   1.111   .     S
C1168  C1171   1.530   .     S
C1168  H1170   1.117   .     S
C1171  C1174   1.526   .     S
C1171  H1172   1.109   .     S
C1171  H1173   1.109   .     S
C1174  H1175   1.109   .     S
C1174  H1176   1.110   .     S
H1177  C410    1.109   1_655 S
O1178  C1179   1.412   .     S
C1179  H1181   1.114   .     S
C1179  H1180   1.116   .     S
C1179  C1182   1.528   .     S
C1182  H1184   1.111   .     S
C1182  C1185   1.524   .     S
C1182  H1183   1.111   .     S
C1185  H1186   1.111   .     S
C1185  H1188   1.110   .     S
C1185  H1187   1.111   .     S
O1189  C1190   1.418   .     S
C1190  H1191   1.110   .     S
C1190  H1192   1.117   .     S
C1190  C1193   1.533   .     S
C1193  H1194   1.111   .     S
C1193  C1196   1.526   .     S
C1193  H1195   1.110   .     S
C1196  H1197   1.110   .     S
C1196  H1198   1.110   .     S
C1196  H2727   1.110   1_545 S
H1199  C2724   1.110   .     S
O1200  C1201   1.415   .     S
C1201  H1203   1.113   .     S
C1201  H1202   1.117   .     S
C1201  C1204   1.529   .     S
C1204  C1207   1.526   .     S
C1204  H1206   1.111   .     S
C1204  H2733   1.111   .     S
H1205  C2732   1.111   1_545 S
C1207  H1208   1.111   .     S
C1207  H1210   1.111   .     S
C1207  H2737   1.110   .     S
H1209  C2735   1.110   1_545 S
O1211  C1212   1.417   .     S
C1212  H1213   1.112   .     S
C1212  C1215   1.528   .     S
C1212  H1214   1.119   .     S
C1215  H1217   1.110   .     S
C1215  H452    1.110   1_655 S
C1215  C454    1.526   1_655 S
C1218  H1221   1.111   .     S
C1218  H1220   1.110   .     S
H1219  C454    1.111   1_655 S
O1222  C1223   1.415   .     S
C1223  H1224   1.114   .     S
C1223  H1225   1.115   .     S
C1223  C1226   1.525   .     S
C1226  H1228   1.112   .     S
C1226  C1229   1.527   .     S
H1227  C462    1.111   1_655 S
C1229  H1232   1.111   .     S
C1229  H1230   1.110   .     S
H1231  C465    1.108   1_655 S
O1233  C1234   1.417   .     S
C1234  H1235   1.112   .     S
C1234  C1237   1.528   .     S
C1234  H1236   1.119   .     S
C1237  H1239   1.110   .     S
C1237  H2766   1.110   1_545 S
C1237  C2768   1.526   1_545 S
H1238  C2765   1.110   .     S
C1240  H1242   1.110   .     S
C1240  H1243   1.111   .     S
C1240  C2765   1.526   .     S
C1240  H2769   1.111   .     S
H1241  C2768   1.111   1_545 S
O1244  C1245   1.415   .     S
C1245  H1246   1.114   .     S
C1245  C1248   1.525   .     S
C1245  H1247   1.115   .     S
C1248  H1250   1.112   .     S
C1248  C1251   1.527   .     S
C1248  H2777   1.111   .     S
H1249  C2776   1.111   1_545 S
C1251  H1254   1.111   .     S
C1251  H1252   1.110   .     S
C1251  H2781   1.107   .     S
H1253  C2779   1.107   1_545 S
O1255  C1256   1.415   .     S
C1256  H1257   1.114   .     S
C1256  H1258   1.114   .     S
C1259  H1260   1.110   .     S
C1259  C1262   1.526   .     S
C1259  H1261   1.110   .     S
C1259  C492    1.527   1_655 S
C1262  H1263   1.110   .     S
C1262  H1264   1.111   .     S
C1262  H1265   1.111   .     S
O1266  C1267   1.420   .     S
C1267  H1269   1.117   .     S
C1267  H1268   1.109   .     S
C1267  C1270   1.533   .     S
C1270  H1271   1.107   .     S
C1270  H1272   1.111   .     S
C1270  C1273   1.528   .     S
C1273  H1274   1.109   .     S
C1273  H1275   1.110   .     S
C1273  H1276   1.110   .     S
O1277  C1278   1.419   .     S
C1278  H1279   1.111   .     S
C1278  H1280   1.117   .     S
C1278  C1281   1.530   .     S
C1281  H1283   1.110   .     S
C1281  H1282   1.110   .     S
C1281  C1284   1.526   .     S
C1284  H1285   1.109   .     S
C1284  H2814   1.110   .     S
C1284  H2815   1.109   .     S
H1286  C2812   1.110   1_545 S
H1287  C2812   1.109   1_545 S
O1288  C1289   1.412   .     S
C1289  C1292   1.528   .     S
C1289  H1291   1.114   .     S
C1289  H1290   1.116   .     S
C1292  H1293   1.111   .     S
C1292  H1294   1.111   .     S
C1292  C1295   1.524   .     S
C1295  H1297   1.111   .     S
C1295  H1296   1.111   .     S
C1295  H1298   1.110   .     S
O1299  C1300   1.418   .     S
C1300  H1302   1.117   .     S
C1300  C1303   1.532   .     S
C1300  H1301   1.110   .     S
C1303  H1305   1.110   .     S
C1303  H1304   1.111   .     S
C1303  C1306   1.526   .     S
C1306  H1307   1.111   .     S
C1306  H1308   1.110   .     S
C1306  H545    1.110   1_655 S
O1310  C1311   1.415   .     S
C1311  C1314   1.529   .     S
C1311  H1313   1.113   .     S
C1311  H1312   1.117   .     S
C1314  C1317   1.526   .     S
C1314  H1316   1.111   .     S
H1315  C550    1.111   1_655 S
C1317  H1318   1.111   .     S
C1317  H1320   1.111   .     S
H1319  C553    1.110   1_655 S
O1321  C1322   1.415   .     S
C1322  C1325   1.526   .     S
C1322  H1323   1.116   .     S
C1322  H1324   1.113   .     S
C1325  H1327   1.107   .     S
C1325  H1326   1.108   .     S
C1325  C1328   1.526   .     S
C1328  H1330   1.111   .     S
C1328  H1331   1.111   .     S
C1328  H1329   1.110   .     S
O1332  C1333   1.420   .     S
C1333  C1336   1.533   .     S
C1333  H1335   1.117   .     S
C1333  H1334   1.109   .     S
C1336  H1337   1.107   .     S
C1336  C1339   1.528   .     S
C1336  H1338   1.111   .     S
C1339  H1341   1.110   .     S
C1339  H1342   1.110   .     S
C1339  H1340   1.109   .     S
O1343  C1344   1.422   .     S
C1344  C1347   1.535   .     S
C1344  H1345   1.110   .     S
C1344  H1346   1.118   .     S
C1347  C1350   1.527   .     S
C1347  H1349   1.108   .     S
C1347  H1348   1.110   .     S
C1350  H1352   1.111   .     S
C1350  H1353   1.109   .     S
C1350  H1351   1.109   .     S
O1354  C1355   1.412   .     S
C1355  C1358   1.528   .     S
C1355  H1357   1.114   .     S
C1355  H1356   1.115   .     S
C1358  H1359   1.111   .     S
C1358  H1360   1.111   .     S
C1358  C1361   1.524   .     S
C1361  H1364   1.110   .     S
C1361  H1362   1.111   .     S
C1361  H1363   1.111   .     S
O1365  C1366   1.419   .     S
C1366  H1368   1.117   .     S
C1366  C1369   1.531   .     S
C1366  H1367   1.110   .     S
C1369  H1370   1.108   .     S
C1369  C1372   1.525   .     S
C1369  H1371   1.111   .     S
C1372  H1373   1.110   .     S
C1372  H1375   1.111   .     S
C1372  H1374   1.110   .     S
O1376  C1377   1.415   .     S
C1377  H1379   1.113   .     S
C1377  H1378   1.117   .     S
C1377  C1380   1.529   .     S
C1380  C1383   1.525   .     S
C1380  H1382   1.111   .     S
C1380  H1381   1.111   .     S
C1383  H1385   1.110   .     S
C1383  H1386   1.110   .     S
C1383  H1384   1.111   .     S
O1387  C1388   1.418   .     S
C1388  C1391   1.529   .     S
C1388  H1389   1.112   .     S
C1388  H1390   1.119   .     S
C1391  C1394   1.526   .     S
C1391  H1392   1.110   .     S
C1391  H1393   1.110   .     S
C1394  H1397   1.111   .     S
C1394  H1395   1.111   .     S
C1394  H1396   1.110   .     S
O1398  C1399   1.415   .     S
C1399  H1401   1.115   .     S
C1399  C1402   1.525   .     S
C1399  H1400   1.114   .     S
C1402  H1403   1.111   .     S
C1402  C1405   1.527   .     S
C1402  H1404   1.112   .     S
C1405  H1408   1.111   .     S
C1405  H1406   1.110   .     S
C1405  H1407   1.107   .     S
O1409  C1410   1.418   .     S
C1410  C1413   1.529   .     S
C1410  H1412   1.119   .     S
C1410  H1411   1.112   .     S
C1413  C1416   1.526   .     S
C1413  H1415   1.110   .     S
C1413  H1414   1.110   .     S
C1416  H1418   1.110   .     S
C1416  H1417   1.111   .     S
C1416  H1419   1.111   .     S
O1420  C1421   1.415   .     S
C1421  H1423   1.113   .     S
C1421  H1422   1.116   .     S
C1421  C1424   1.526   .     S
C1424  C1427   1.525   .     S
C1424  H1426   1.110   .     S
C1424  H1425   1.111   .     S
C1427  H1429   1.111   .     S
C1427  H1428   1.111   .     S
C1427  H1430   1.111   .     S
O1431  C1432   1.415   .     S
C1432  H1433   1.114   .     S
C1432  C1435   1.527   .     S
C1432  H1434   1.114   .     S
C1435  C1438   1.527   .     S
C1435  H1437   1.110   .     S
C1435  H1436   1.110   .     S
C1438  H1439   1.110   .     S
C1438  H1440   1.111   .     S
C1438  H1441   1.111   .     S
O1442  C1443   1.417   .     S
C1443  H1445   1.115   .     S
C1443  H1444   1.116   .     S
C1443  C1446   1.526   .     S
C1446  H1448   1.108   .     S
C1446  C1449   1.523   .     S
C1446  H1447   1.111   .     S
C1449  H1452   1.110   .     S
C1449  H1451   1.110   .     S
C1449  H1450   1.111   .     S
O1453  C1454   1.419   .     S
C1454  H1455   1.111   .     S
C1454  H1456   1.117   .     S
C1454  C1457   1.530   .     S
C1457  C1460   1.526   .     S
C1457  H1459   1.109   .     S
C1457  H1458   1.109   .     S
C1460  H1462   1.110   .     S
C1460  H1461   1.109   .     S
C1460  H1463   1.109   .     S
O1464  C1465   1.412   .     S
C1465  H1467   1.114   .     S
C1465  H1466   1.116   .     S
C1465  C1468   1.528   .     S
C1468  C1471   1.525   .     S
C1468  H1470   1.112   .     S
C1468  H1469   1.111   .     S
C1471  H1473   1.111   .     S
C1471  H1474   1.110   .     S
C1471  H1472   1.111   .     S
O1475  C1476   1.418   .     S
C1476  H1477   1.110   .     S
C1476  H1478   1.117   .     S
C1476  C1479   1.533   .     S
C1479  H1481   1.110   .     S
C1479  H1480   1.111   .     S
C1479  C1482   1.526   .     S
C1482  H1484   1.110   .     S
C1482  H1485   1.110   .     S
C1482  H1483   1.110   .     S
O1486  C1487   1.415   .     S
C1487  H1489   1.113   .     S
C1487  C1490   1.528   .     S
C1487  H1488   1.117   .     S
C1490  H1492   1.111   .     S
C1490  H1491   1.111   .     S
C1490  C1493   1.526   .     S
C1493  H1496   1.111   .     S
C1493  H1495   1.110   .     S
C1493  H1494   1.111   .     S
O1497  H1498   0.988   .     S
O1499  H1500   0.989   .     S
O1501  H1502   0.988   .     S
O1503  H1504   0.989   .     S
O1505  H1506   0.989   .     S
O1507  H1508   0.989   .     S
O1509  H1510   0.989   .     S
O1511  H1512   0.988   .     S
O1513  H1514   0.988   .     S
O1515  H1516   0.989   .     S
O1517  H1518   0.989   .     S
O1519  H1520   0.989   .     S
O1521  H1522   0.989   .     S
O1523  H1524   0.988   .     S
O1525  H1526   0.989   .     S
O1527  H1528   0.988   .     S
C1529  O2261   1.387   .     S
C1529  C1629   1.411   .     A
C1529  C2309   1.410   1_455 S
C1530  C1630   1.408   .     A
C1530  O2263   1.385   .     S
C1530  C1546   1.409   .     A
C1531  O2265   1.387   .     S
C1531  C1631   1.408   .     A
C1531  C19     1.408   1_565 S
C1532  C1632   1.407   .     A
C1532  C1548   1.409   .     A
C1532  O2267   1.387   .     S
C1533  C1625   1.406   .     A
C1533  C1545   1.409   .     A
C1533  O2269   1.387   .     S
C1534  O2271   1.386   .     S
C1534  C1626   1.408   .     A
C1534  C2310   1.409   1_455 S
C1535  C1627   1.409   .     A
C1535  C1547   1.410   .     A
C1535  O2273   1.386   .     S
C1536  C1628   1.410   .     A
C1536  O2275   1.387   .     S
C1536  C20     1.412   1_565 S
C1537  O2277   1.387   .     S
C1537  C1549   1.410   .     A
C1537  C1637   1.410   .     A
C1538  O2279   1.386   .     S
C1538  C1638   1.408   .     A
C1538  C22     1.409   1_565 S
C1539  O2281   1.386   .     S
C1539  C1551   1.410   .     A
C1539  C1639   1.409   .     A
C1540  O2283   1.387   .     S
C1540  C1640   1.406   .     A
C1540  C2316   1.408   1_455 S
C1541  C1633   1.407   .     A
C1541  O2285   1.387   .     S
C1541  C21     1.409   1_565 S
C1542  O2287   1.387   .     S
C1542  C1550   1.409   .     A
C1542  C1634   1.408   .     A
C1543  O2289   1.386   .     S
C1543  C1635   1.407   .     A
C1543  C2315   1.408   1_455 S
C1544  O2291   1.387   .     S
C1544  C1552   1.410   .     A
C1544  C1636   1.411   .     A
C1545  C1571   1.449   .     S
C1545  C2293   1.410   .     S
C1546  C1572   1.450   .     S
C1546  C2298   1.409   .     S
C1547  C1569   1.449   .     S
C1549  C1575   1.448   .     S
C1550  C1576   1.449   .     S
C1551  C1573   1.449   .     S
C1551  C2307   1.408   .     S
C1552  C1574   1.448   .     S
C1552  C2304   1.408   .     S
C1553  C1625   1.413   .     A
C1553  O1733   1.384   .     S
C1553  C1558   1.394   .     A
C1554  O1744   1.386   .     S
C1554  C1626   1.415   .     A
C1554  C1557   1.398   .     A
C1555  C1627   1.416   .     A
C1555  O1755   1.385   .     S
C1555  C1560   1.397   .     A
C1556  O1766   1.386   .     S
C1556  C1559   1.398   .     A
C1556  C1628   1.417   .     A
C1557  O1777   1.385   .     S
C1557  C1629   1.417   .     A
C1558  C1630   1.417   .     A
C1558  O1788   1.387   .     S
C1559  O1799   1.385   .     S
C1559  C1631   1.413   .     A
C1560  C1632   1.414   .     A
C1560  O1810   1.385   .     S
C1561  C1633   1.414   .     A
C1561  O1821   1.384   .     S
C1561  C1566   1.395   1_556 S
C1562  O1832   1.385   .     S
C1562  C1634   1.414   .     A
C1562  C1565   1.397   1_554 S
C1563  C1635   1.414   .     A
C1563  O1843   1.385   .     S
C1563  C1568   1.394   1_556 S
C1564  C1636   1.417   .     A
C1564  O1854   1.385   .     S
C1564  C1567   1.398   1_554 S
C1565  C1637   1.416   .     A
C1565  O1865   1.385   .     S
C1565  C1562   1.397   1_556 S
C1566  C1638   1.415   .     A
C1566  O1876   1.385   .     S
C1566  C1561   1.395   1_554 S
C1567  C1639   1.416   .     A
C1567  O1887   1.386   .     S
C1567  C1564   1.398   1_556 S
C1568  C1640   1.413   .     A
C1568  O1898   1.384   .     S
C1568  C1563   1.394   1_554 S
C1569  O1673   1.273   .     A
C1570  O1674   1.277   .     A
C1570  C20     1.450   1_565 S
C1570  O142    1.275   1_565 S
C1571  O1675   1.274   .     A
C1571  O2435   1.279   .     S
C1572  O1672   1.276   .     A
C1572  O2440   1.278   .     S
C1573  O2441   1.276   .     S
C1573  O2445   1.276   .     S
C1574  O2442   1.274   .     S
C1574  O2446   1.277   .     S
C1575  O1679   1.278   .     A
C1575  O1683   1.275   .     A
C1576  O1684   1.278   .     A
C1576  O1680   1.276   .     A
C1577  C1643   1.459   .     S
C1577  O1685   1.279   .     A
C1577  O1711   1.279   .     A
C1578  O1712   1.280   .     A
C1578  O1686   1.281   .     A
C1578  C1644   1.464   .     S
C1579  O1709   1.280   .     A
C1579  C1645   1.459   .     S
C1579  O1687   1.284   .     A
C1580  O1710   1.277   .     A
C1580  O1688   1.281   .     A
C1580  C1646   1.449   .     S
C1581  C1647   1.468   .     S
C1581  O1715   1.283   .     A
C1581  O1689   1.284   .     A
C1582  O1690   1.280   .     A
C1582  O1716   1.281   .     A
C1582  C1648   1.456   .     S
C1583  O1691   1.281   .     A
C1583  C1641   1.460   .     S
C1583  O1713   1.286   .     A
C1584  O1692   1.279   .     A
C1584  O1714   1.281   .     A
C1584  C1642   1.449   .     S
C1585  C1651   1.459   .     S
C1585  O1693   1.282   .     A
C1585  O1703   1.283   .     A
C1586  O1694   1.279   .     A
C1586  O1704   1.279   .     A
C1586  C1652   1.449   .     S
C1587  O1695   1.280   .     A
C1587  C1653   1.459   .     S
C1587  O1701   1.278   .     A
C1588  O1702   1.281   .     A
C1588  O1696   1.280   .     A
C1588  C1654   1.463   .     S
C1589  O1707   1.281   .     A
C1589  O1697   1.285   .     A
C1589  C1655   1.460   .     S
C1590  O1698   1.280   .     A
C1590  O1708   1.280   .     A
C1590  C1656   1.449   .     S
C1591  O1699   1.284   .     A
C1591  C1649   1.468   .     S
C1591  O1705   1.283   .     A
C1592  O1700   1.280   .     A
C1592  O1706   1.280   .     A
C1592  C1650   1.456   .     S
C1593  O1909   1.385   .     S
C1593  C1656   1.408   .     A
C1593  C1608   1.396   .     A
C1594  C1607   1.387   .     A
C1594  C1655   1.413   .     A
C1594  O1920   1.383   .     S
C1595  O1931   1.386   .     S
C1595  C1654   1.412   .     A
C1595  C1606   1.393   .     A
C1596  C1605   1.393   .     A
C1596  O1942   1.383   .     S
C1596  C1653   1.409   .     A
C1597  C1604   1.387   .     A
C1597  C1652   1.406   .     A
C1597  O1953   1.386   .     S
C1598  O1964   1.384   .     S
C1598  C1651   1.412   .     A
C1598  C1603   1.397   .     A
C1599  C1650   1.405   .     A
C1599  O1975   1.385   .     S
C1599  C1602   1.398   .     A
C1600  O1986   1.384   .     S
C1600  C1601   1.397   .     A
C1600  C1649   1.412   .     A
C1601  C1648   1.405   .     A
C1601  O1997   1.385   .     S
C1602  O2008   1.384   .     S
C1602  C1647   1.412   .     A
C1603  O2019   1.385   .     S
C1603  C1646   1.409   .     A
C1604  O2030   1.384   .     S
C1604  C1645   1.414   .     A
C1605  O2041   1.387   .     S
C1605  C1644   1.414   .     A
C1606  C1643   1.409   .     A
C1606  O2052   1.383   .     S
C1607  O2063   1.386   .     S
C1607  C1642   1.404   .     A
C1608  O2074   1.385   .     S
C1608  C1641   1.412   .     A
C1609  C1642   1.407   .     A
C1609  C1624   1.397   .     A
C1609  O2085   1.384   .     S
C1610  C1623   1.387   .     A
C1610  C1641   1.414   .     A
C1610  O2096   1.384   .     S
C1611  O2107   1.385   .     S
C1611  C1622   1.390   .     A
C1611  C1644   1.413   .     A
C1612  O2118   1.383   .     S
C1612  C1621   1.393   .     A
C1612  C1643   1.408   .     A
C1613  C1646   1.404   .     A
C1613  C1620   1.386   .     A
C1613  O2129   1.384   .     S
C1614  C1645   1.412   .     A
C1614  O2140   1.385   .     S
C1614  C1619   1.396   .     A
C1615  O2151   1.385   .     S
C1615  C1618   1.399   .     A
C1615  C1648   1.406   .     A
C1616  C1647   1.412   .     A
C1616  O2162   1.384   .     S
C1616  C1617   1.398   .     A
C1617  O2173   1.385   .     S
C1617  C1650   1.405   .     A
C1618  C1649   1.413   .     A
C1618  O2184   1.384   .     S
C1619  O2195   1.385   .     S
C1619  C1652   1.408   .     A
C1620  C1651   1.411   .     A
C1620  O2206   1.383   .     S
C1621  O2217   1.386   .     S
C1621  C1654   1.413   .     A
C1622  C1653   1.408   .     A
C1622  O2228   1.382   .     S
C1623  C1656   1.405   .     A
C1623  O2239   1.386   .     S
C1624  C1655   1.411   .     A
C1624  O2250   1.385   .     S
C1625  C1657   1.420   .     A
C1626  C2422   1.420   1_455 S
C1627  C1659   1.422   .     A
C1628  C132    1.423   1_565 S
C1629  C2421   1.423   1_455 S
C1630  C1658   1.423   .     A
C1631  C131    1.420   1_565 S
C1632  C1660   1.421   .     A
C1633  C133    1.421   1_565 S
C1634  C1662   1.420   .     A
C1635  C2427   1.422   1_455 S
C1636  C1664   1.423   .     A
C1637  C1661   1.423   .     A
C1638  C134    1.422   1_565 S
C1639  C1663   1.420   .     A
C1640  C2428   1.421   1_455 S
C1657  C1658   1.416   .     A
C1657  C2393   1.423   .     S
C1658  C2390   1.420   .     S
C1659  C1660   1.416   .     A
C1661  C1662   1.417   1_556 S
C1662  C1661   1.417   1_554 S
C1663  C2399   1.422   .     S
C1663  C1664   1.416   1_556 S
C1664  C2404   1.421   .     S
C1664  C1663   1.416   1_554 S
O1665  Zn1728  1.945   .     S
O1665  Zn1717  1.948   .     S
O1665  Zn1721  1.951   .     S
O1666  Zn1722  1.951   .     S
O1666  Zn1731  1.950   .     S
O1666  Zn1718  1.948   .     S
O1667  Zn1726  1.948   .     S
O1667  Zn1719  1.945   .     S
O1667  Zn1723  1.950   .     S
O1667  Zn2494  1.951   1_455 S
O1668  Zn1729  1.951   .     S
O1668  Zn1724  1.950   .     S
O1668  Zn1720  1.945   .     S
O1668  Zn2489  1.948   1_455 S
O1669  Zn1732  1.944   .     S
O1669  C41     1.278   1_565 S
O1670  Zn1731  1.944   .     S
O1671  Zn1726  1.946   .     S
O1671  C2335   1.279   1_455 S
O1672  Zn1725  1.946   .     S
O1673  Zn1728  1.947   .     S
O1674  Zn1727  1.947   .     S
O1675  Zn1730  1.945   .     S
O1676  Zn1729  1.945   .     S
O1676  C2336   1.278   1_455 S
O1677  Zn1724  1.944   .     S
O1677  C2337   1.276   1_455 S
O1678  C2338   1.274   1_455 S
O1678  Zn1723  1.944   .     S
O1679  Zn1718  1.946   .     S
O1680  Zn1717  1.946   .     S
O1681  Zn1720  1.947   .     S
O1681  C2337   1.276   1_455 S
O1682  Zn1719  1.947   .     S
O1682  C2338   1.277   1_455 S
O1683  Zn1722  1.945   .     S
O1684  Zn1721  1.945   .     S
O1685  Zn1728  1.945   .     S
O1686  Zn1727  1.945   .     S
O1687  Zn1730  1.932   .     S
O1688  Zn1729  1.932   .     S
O1689  Zn1732  1.945   .     S
O1690  Zn1731  1.945   .     S
O1691  Zn1726  1.934   .     S
O1692  Zn1725  1.934   .     S
O1693  Zn1727  1.935   .     S
O1694  Zn1728  1.935   .     S
O1695  Zn1725  1.943   .     S
O1696  Zn1726  1.943   .     S
O1697  Zn1731  1.933   .     S
O1698  Zn1732  1.933   .     S
O1699  Zn1729  1.944   .     S
O1700  Zn1730  1.944   .     S
O1701  Zn2484  1.945   .     S
O1702  Zn1719  1.945   .     S
O1703  Zn194   1.932   1_565 S
O1704  Zn1721  1.932   .     S
O1705  Zn1724  1.945   .     S
O1706  Zn2487  1.945   .     S
O1707  Zn1718  1.934   .     S
O1708  Zn189   1.934   1_565 S
O1709  Zn2483  1.935   .     S
O1710  Zn1720  1.935   .     S
O1711  Zn1717  1.943   .     S
O1712  Zn190   1.943   1_565 S
O1713  Zn1723  1.933   .     S
O1714  Zn2488  1.933   .     S
O1715  Zn193   1.944   1_565 S
O1716  Zn1722  1.944   .     S
Zn1719 O2473   1.935   1_455 S
Zn1720 O2465   1.945   1_455 S
Zn1723 O2470   1.945   1_455 S
Zn1724 O2478   1.933   1_455 S
Zn1725 O2432   1.948   .     S
Zn1727 O138    1.945   1_565 S
Zn1730 O2431   1.951   .     S
Zn1732 O137    1.950   1_565 S
O1733  C1734   1.413   .     S
C1734  H1735   1.113   .     S
C1734  H1736   1.116   .     S
C1734  C1737   1.528   .     S
C1737  H1739   1.111   .     S
C1737  C1740   1.526   .     S
C1737  H1738   1.112   .     S
C1740  H1743   1.110   .     S
C1740  H1741   1.111   .     S
C1740  H1742   1.111   .     S
O1744  C2509   1.414   1_455 S
C1745  H1746   1.114   .     S
C1745  H1747   1.113   .     S
C1745  O2508   1.414   .     S
C1745  C2512   1.528   .     S
C1748  H1749   1.112   .     S
C1748  H1750   1.110   .     S
C1748  C2509   1.528   1_455 S
C1748  C2515   1.526   1_455 S
C1751  H1754   1.111   .     S
C1751  H1752   1.111   .     S
C1751  H1753   1.110   .     S
C1751  C2512   1.526   .     S
O1755  C1756   1.414   .     S
C1756  H1758   1.114   .     S
C1756  C1759   1.528   .     S
H1757  C228    1.115   1_565 S
C1759  C1762   1.526   .     S
C1759  H1761   1.111   .     S
C1759  H1760   1.111   .     S
C1762  H1764   1.111   .     S
H1763  C234    1.111   1_565 S
H1765  C234    1.111   1_565 S
O1766  C1767   1.414   .     S
C1767  H1769   1.112   .     S
C1767  H1768   1.110   .     S
C1767  C1770   1.530   .     S
C1770  H1772   1.112   .     S
C1770  C1773   1.527   .     S
C1770  H1771   1.111   .     S
C1773  H1775   1.110   .     S
C1773  H1774   1.110   .     S
C1773  H1776   1.110   .     S
O1777  C1778   1.413   .     S
C1778  H1780   1.115   .     S
C1778  C1781   1.531   .     S
C1778  H1779   1.113   .     S
C1781  C1784   1.525   .     S
C1781  H1782   1.112   .     S
C1781  H1783   1.112   .     S
C1784  H1787   1.108   .     S
C1784  H1786   1.109   .     S
C1784  H1785   1.110   .     S
O1788  C1789   1.419   .     S
C1789  C1792   1.533   .     S
C1789  H1790   1.111   .     S
C1789  H2555   1.118   .     S
H1791  C2553   1.118   1_455 S
C1792  H1794   1.110   .     S
C1792  H1793   1.111   .     S
C1792  C2559   1.526   .     S
C1795  H1796   1.111   .     S
C1795  H1797   1.111   .     S
C1795  C2556   1.526   1_455 S
C1795  H2562   1.111   1_455 S
H1798  C2559   1.111   .     S
O1799  C272    1.413   1_565 S
C1800  C1803   1.529   .     S
C1800  H1802   1.113   .     S
C1800  H1801   1.114   .     S
C1803  C1806   1.526   .     S
H1804  C275    1.112   1_565 S
H1805  C275    1.111   1_565 S
C1806  H1809   1.111   .     S
C1806  H1807   1.111   .     S
C1806  H1808   1.111   .     S
O1810  C1811   1.413   .     S
C1811  H1812   1.115   .     S
C1811  C1814   1.528   .     S
C1811  H1813   1.115   .     S
C1814  C1817   1.526   .     S
C1814  H1816   1.111   .     S
C1814  H1815   1.112   .     S
C1817  H1820   1.111   .     S
C1817  H1818   1.110   .     S
C1817  H1819   1.110   .     S
O1821  C1822   1.413   .     S
C1822  H1823   1.114   .     S
C1822  H1824   1.115   .     S
C1822  C1825   1.528   .     S
C1825  H1827   1.111   .     S
C1825  H1826   1.112   .     S
C1825  C1828   1.526   .     S
C1828  H1829   1.111   .     S
C1828  H1831   1.111   .     S
C1828  H1830   1.111   .     S
O1832  C1833   1.414   .     S
C1833  H1835   1.113   .     S
C1833  H1834   1.114   .     S
C1833  C1836   1.529   .     S
C1836  C1839   1.526   .     S
C1836  H1837   1.112   .     S
C1836  H1838   1.111   .     S
C1839  H1841   1.110   .     S
C1839  H1840   1.111   .     S
C1839  H1842   1.111   .     S
O1843  C1844   1.414   .     S
C1844  H1845   1.116   .     S
C1844  C1847   1.528   .     S
C1844  H1846   1.114   .     S
C1847  H1849   1.111   .     S
C1847  H1848   1.111   .     S
C1847  C1850   1.526   .     S
C1850  H1852   1.110   .     S
C1850  H1853   1.111   .     S
C1850  H1851   1.111   .     S
O1854  C1855   1.413   .     S
C1855  H1857   1.115   .     S
C1855  H1856   1.113   .     S
C1855  C1858   1.530   .     S
C1858  H1859   1.112   .     S
C1858  H1860   1.112   .     S
C1858  C1861   1.525   .     S
C1861  H1862   1.110   .     S
C1861  H1864   1.108   .     S
C1861  H1863   1.108   .     S
O1865  C1866   1.414   .     S
C1866  H1868   1.114   .     S
C1866  C1869   1.530   .     S
C1866  H1867   1.113   .     S
C1869  H1871   1.112   .     S
C1869  C1872   1.529   .     S
C1869  H1870   1.111   .     S
C1872  H1875   1.111   .     S
C1872  H1873   1.110   .     S
C1872  H1874   1.110   .     S
O1876  C1877   1.414   .     S
C1877  H1879   1.114   .     S
C1877  C1880   1.528   .     S
C1877  H1878   1.116   .     S
C1880  H1881   1.111   .     S
C1880  C1883   1.526   .     S
C1880  H1882   1.110   .     S
C1883  H1884   1.111   .     S
C1883  H1886   1.111   .     S
C1883  H1885   1.111   .     S
O1887  C1888   1.414   .     S
C1888  H1889   1.114   .     S
C1888  H1890   1.113   .     S
C1888  C1891   1.528   .     S
C1891  H1892   1.112   .     S
C1891  C1894   1.526   .     S
C1891  H1893   1.111   .     S
C1894  H1897   1.111   .     S
C1894  H1895   1.111   .     S
C1894  H1896   1.110   .     S
O1898  C1899   1.413   .     S
C1899  C1902   1.528   .     S
C1899  H1900   1.114   .     S
C1899  H1901   1.116   .     S
C1902  H1903   1.112   .     S
C1902  C1905   1.526   .     S
C1902  H1904   1.111   .     S
C1905  H1908   1.111   .     S
C1905  H1907   1.110   .     S
C1905  H1906   1.111   .     S
O1909  C1910   1.415   .     S
C1910  H1911   1.114   .     S
C1910  H1912   1.114   .     S
C1910  C385    1.527   1_565 S
C1913  H1915   1.110   .     S
C1913  H1914   1.110   .     S
C1913  C1916   1.527   .     S
C1916  H1917   1.111   .     S
C1916  H1919   1.111   .     S
C1916  H1918   1.111   .     S
O1920  C1921   1.420   .     S
C1921  H1922   1.109   .     S
C1921  C1924   1.533   .     S
C1921  H1923   1.116   .     S
C1924  H1926   1.111   .     S
C1924  C1927   1.525   .     S
C1924  H1925   1.107   .     S
C1927  H1929   1.110   .     S
C1927  H1930   1.111   .     S
C1927  H1928   1.108   .     S
O1931  C1932   1.419   .     S
C1932  H1933   1.111   .     S
C1932  C1935   1.530   .     S
C1932  H1934   1.117   .     S
C1935  C1938   1.526   .     S
C1935  H1936   1.109   .     S
C1935  H1937   1.109   .     S
C1938  H1939   1.109   .     S
C1938  H1940   1.110   .     S
C1938  H2705   1.109   1_455 S
H1941  C2702   1.109   .     S
O1942  C1943   1.412   .     S
C1943  H1945   1.114   .     S
C1943  H1944   1.116   .     S
C1943  C1946   1.528   .     S
C1946  H1948   1.111   .     S
C1946  C1949   1.524   .     S
C1946  H1947   1.111   .     S
C1949  H1950   1.111   .     S
C1949  H1952   1.110   .     S
C1949  H1951   1.111   .     S
O1953  C1954   1.418   .     S
C1954  H1955   1.110   .     S
C1954  H1956   1.117   .     S
C1954  C1957   1.533   .     S
C1957  H1958   1.111   .     S
C1957  C1960   1.526   .     S
C1957  H1959   1.110   .     S
C1960  H1961   1.110   .     S
C1960  H1962   1.110   .     S
H1963  C432    1.110   1_565 S
O1964  C1965   1.415   .     S
C1965  H1967   1.113   .     S
C1965  H1966   1.117   .     S
C1965  C1968   1.529   .     S
C1968  C1971   1.526   .     S
C1968  H1970   1.111   .     S
C1968  H441    1.111   1_565 S
C1971  H1972   1.111   .     S
C1971  H1974   1.111   .     S
C1971  H445    1.110   1_565 S
O1975  C1976   1.417   .     S
C1976  H1977   1.112   .     S
C1976  C1979   1.528   .     S
C1976  H1978   1.119   .     S
C1979  H1981   1.110   .     S
C1979  H2744   1.110   .     S
C1979  C2746   1.526   .     S
H1980  C2743   1.110   1_455 S
C1982  H1985   1.111   .     S
C1982  H1984   1.110   .     S
C1982  C2743   1.526   1_455 S
C1982  H2747   1.111   1_455 S
H1983  C2746   1.111   .     S
O1986  C1987   1.415   .     S
C1987  H1988   1.114   .     S
C1987  H1989   1.115   .     S
C1987  C1990   1.525   .     S
C1990  H1992   1.112   .     S
C1990  C1993   1.527   .     S
C1990  H2755   1.111   1_455 S
H1991  C2754   1.111   .     S
C1993  H1996   1.111   .     S
C1993  H1994   1.110   .     S
C1993  H2759   1.108   1_455 S
H1995  C2757   1.108   .     S
O1997  C1998   1.417   .     S
C1998  H1999   1.112   .     S
C1998  C2001   1.528   .     S
C1998  H2000   1.119   .     S
C2001  H2003   1.110   .     S
H2002  C473    1.110   1_565 S
C2004  H2006   1.110   .     S
C2004  H2007   1.111   .     S
C2004  C473    1.526   1_565 S
C2004  H477    1.111   1_565 S
O2008  C2009   1.415   .     S
C2009  H2010   1.114   .     S
C2009  C2012   1.525   .     S
C2009  H2011   1.115   .     S
C2012  H2014   1.112   .     S
C2012  C2015   1.527   .     S
C2012  H485    1.111   1_565 S
C2015  H2018   1.111   .     S
C2015  H2016   1.110   .     S
C2015  H489    1.107   1_565 S
O2019  C2020   1.415   .     S
C2020  H2021   1.114   .     S
C2020  H2022   1.114   .     S
C2020  C2787   1.527   1_455 S
C2023  H2024   1.110   .     S
C2023  C2026   1.526   .     S
C2023  H2025   1.110   .     S
C2023  C2784   1.527   .     S
C2026  H2027   1.110   .     S
C2026  H2028   1.111   .     S
C2026  H2029   1.111   .     S
O2030  C2031   1.420   .     S
C2031  H2033   1.117   .     S
C2031  H2032   1.109   .     S
C2031  C2034   1.533   .     S
C2034  H2035   1.107   .     S
C2034  H2036   1.111   .     S
C2034  C2037   1.528   .     S
C2037  H2038   1.109   .     S
C2037  H2039   1.110   .     S
C2037  H2040   1.110   .     S
O2041  C2042   1.419   .     S
C2042  H2043   1.111   .     S
C2042  H2044   1.117   .     S
C2042  C2045   1.530   .     S
C2045  H2047   1.110   .     S
C2045  H2046   1.110   .     S
C2045  C2048   1.526   .     S
C2048  H2049   1.109   .     S
C2048  H522    1.110   1_565 S
C2048  H523    1.109   1_565 S
O2052  C2053   1.412   .     S
C2053  C2056   1.528   .     S
C2053  H2055   1.114   .     S
C2053  H2054   1.116   .     S
C2056  H2057   1.111   .     S
C2056  H2058   1.111   .     S
C2056  C2059   1.524   .     S
C2059  H2061   1.111   .     S
C2059  H2060   1.111   .     S
C2059  H2062   1.110   .     S
O2063  C2064   1.418   .     S
C2064  H2066   1.117   .     S
C2064  C2067   1.532   .     S
C2064  H2065   1.110   .     S
C2067  H2069   1.110   .     S
C2067  H2068   1.111   .     S
C2067  C2070   1.526   .     S
C2070  H2071   1.111   .     S
C2070  H2072   1.110   .     S
C2070  H2837   1.110   .     S
H2073  C2834   1.110   1_455 S
O2074  C2075   1.415   .     S
C2075  C2078   1.529   .     S
C2075  H2077   1.113   .     S
C2075  H2076   1.117   .     S
C2078  C2081   1.526   .     S
C2078  H2080   1.111   .     S
C2078  H2843   1.111   1_455 S
H2079  C2842   1.111   .     S
C2081  H2082   1.111   .     S
C2081  H2084   1.111   .     S
C2081  H2847   1.110   1_455 S
H2083  C2845   1.110   .     S
O2085  C2086   1.415   .     S
C2086  C2089   1.526   .     S
C2086  H2087   1.116   .     S
C2086  H2088   1.113   .     S
C2089  H2091   1.107   .     S
C2089  H2090   1.108   .     S
C2089  C2092   1.526   .     S
C2092  H2094   1.111   .     S
C2092  H2095   1.111   .     S
C2092  H2093   1.110   .     S
O2096  C2097   1.420   .     S
C2097  C2100   1.533   .     S
C2097  H2099   1.117   .     S
C2097  H2098   1.109   .     S
C2100  H2101   1.107   .     S
C2100  C2103   1.528   .     S
C2100  H2102   1.111   .     S
C2103  H2105   1.110   .     S
C2103  H2106   1.110   .     S
C2103  H2104   1.109   .     S
O2107  C2108   1.422   .     S
C2108  C2111   1.535   .     S
C2108  H2109   1.110   .     S
C2108  H2110   1.118   .     S
C2111  C2114   1.527   .     S
C2111  H2113   1.108   .     S
C2111  H2112   1.110   .     S
C2114  H2116   1.111   .     S
C2114  H2117   1.109   .     S
C2114  H2115   1.109   .     S
O2118  C2119   1.412   .     S
C2119  C2122   1.528   .     S
C2119  H2121   1.114   .     S
C2119  H2120   1.115   .     S
C2122  H2123   1.111   .     S
C2122  H2124   1.111   .     S
C2122  C2125   1.524   .     S
C2125  H2128   1.110   .     S
C2125  H2126   1.111   .     S
C2125  H2127   1.111   .     S
O2129  C2130   1.419   .     S
C2130  H2132   1.117   .     S
C2130  C2133   1.531   .     S
C2130  H2131   1.110   .     S
C2133  H2134   1.108   .     S
C2133  C2136   1.525   .     S
C2133  H2135   1.111   .     S
C2136  H2137   1.110   .     S
C2136  H2139   1.111   .     S
C2136  H2138   1.110   .     S
O2140  C2141   1.415   .     S
C2141  H2143   1.113   .     S
C2141  H2142   1.117   .     S
C2141  C2144   1.529   .     S
C2144  C2147   1.525   .     S
C2144  H2146   1.111   .     S
C2144  H2145   1.111   .     S
C2147  H2149   1.110   .     S
C2147  H2150   1.110   .     S
C2147  H2148   1.111   .     S
O2151  C2152   1.418   .     S
C2152  C2155   1.529   .     S
C2152  H2153   1.112   .     S
C2152  H2154   1.119   .     S
C2155  C2158   1.526   .     S
C2155  H2156   1.110   .     S
C2155  H2157   1.110   .     S
C2158  H2161   1.111   .     S
C2158  H2159   1.111   .     S
C2158  H2160   1.110   .     S
O2162  C2163   1.415   .     S
C2163  H2165   1.115   .     S
C2163  C2166   1.525   .     S
C2163  H2164   1.114   .     S
C2166  H2167   1.111   .     S
C2166  C2169   1.527   .     S
C2166  H2168   1.112   .     S
C2169  H2172   1.111   .     S
C2169  H2170   1.110   .     S
C2169  H2171   1.107   .     S
O2173  C2174   1.418   .     S
C2174  C2177   1.529   .     S
C2174  H2176   1.119   .     S
C2174  H2175   1.112   .     S
C2177  C2180   1.526   .     S
C2177  H2179   1.110   .     S
C2177  H2178   1.110   .     S
C2180  H2182   1.110   .     S
C2180  H2181   1.111   .     S
C2180  H2183   1.111   .     S
O2184  C2185   1.415   .     S
C2185  H2187   1.113   .     S
C2185  H2186   1.116   .     S
C2185  C2188   1.526   .     S
C2188  C2191   1.525   .     S
C2188  H2190   1.110   .     S
C2188  H2189   1.111   .     S
C2191  H2193   1.111   .     S
C2191  H2192   1.111   .     S
C2191  H2194   1.111   .     S
O2195  C2196   1.415   .     S
C2196  H2197   1.114   .     S
C2196  C2199   1.527   .     S
C2196  H2198   1.114   .     S
C2199  C2202   1.527   .     S
C2199  H2201   1.110   .     S
C2199  H2200   1.110   .     S
C2202  H2203   1.110   .     S
C2202  H2204   1.111   .     S
C2202  H2205   1.111   .     S
O2206  C2207   1.417   .     S
C2207  H2209   1.115   .     S
C2207  H2208   1.116   .     S
C2207  C2210   1.526   .     S
C2210  H2212   1.108   .     S
C2210  C2213   1.523   .     S
C2210  H2211   1.111   .     S
C2213  H2216   1.110   .     S
C2213  H2215   1.110   .     S
C2213  H2214   1.111   .     S
O2217  C2218   1.419   .     S
C2218  H2219   1.111   .     S
C2218  H2220   1.117   .     S
C2218  C2221   1.530   .     S
C2221  C2224   1.526   .     S
C2221  H2223   1.109   .     S
C2221  H2222   1.109   .     S
C2224  H2226   1.110   .     S
C2224  H2225   1.109   .     S
C2224  H2227   1.109   .     S
O2228  C2229   1.412   .     S
C2229  H2231   1.114   .     S
C2229  H2230   1.116   .     S
C2229  C2232   1.528   .     S
C2232  C2235   1.525   .     S
C2232  H2234   1.112   .     S
C2232  H2233   1.111   .     S
C2235  H2237   1.111   .     S
C2235  H2238   1.110   .     S
C2235  H2236   1.111   .     S
O2239  C2240   1.418   .     S
C2240  H2241   1.110   .     S
C2240  H2242   1.117   .     S
C2240  C2243   1.533   .     S
C2243  H2245   1.110   .     S
C2243  H2244   1.111   .     S
C2243  C2246   1.526   .     S
C2246  H2248   1.110   .     S
C2246  H2249   1.110   .     S
C2246  H2247   1.110   .     S
O2250  C2251   1.415   .     S
C2251  H2253   1.113   .     S
C2251  C2254   1.528   .     S
C2251  H2252   1.117   .     S
C2254  H2256   1.111   .     S
C2254  H2255   1.111   .     S
C2254  C2257   1.526   .     S
C2257  H2260   1.111   .     S
C2257  H2259   1.110   .     S
C2257  H2258   1.111   .     S
O2261  H2262   0.988   .     S
O2263  H2264   0.989   .     S
O2265  H2266   0.988   .     S
O2267  H2268   0.989   .     S
O2269  H2270   0.989   .     S
O2271  H2272   0.989   .     S
O2273  H2274   0.989   .     S
O2275  H2276   0.988   .     S
O2277  H2278   0.988   .     S
O2279  H2280   0.989   .     S
O2281  H2282   0.989   .     S
O2283  H2284   0.989   .     S
O2285  H2286   0.989   .     S
O2287  H2288   0.988   .     S
O2289  H2290   0.989   .     S
O2291  H2292   0.988   .     S
C2293  O3025   1.387   .     S
C2293  C2393   1.411   .     A
C2294  C2394   1.408   .     A
C2294  O3027   1.385   .     S
C2294  C2310   1.409   .     A
C2295  O3029   1.387   .     S
C2295  C2395   1.408   .     A
C2295  C783    1.408   1_565 S
C2296  C2396   1.407   .     A
C2296  C2312   1.409   .     A
C2296  O3031   1.387   .     S
C2297  C2389   1.406   .     A
C2297  C2309   1.409   .     A
C2297  O3033   1.387   .     S
C2298  O3035   1.386   .     S
C2298  C2390   1.408   .     A
C2299  C2391   1.409   .     A
C2299  C2311   1.410   .     A
C2299  O3037   1.386   .     S
C2300  C2392   1.410   .     A
C2300  O3039   1.387   .     S
C2300  C784    1.412   1_565 S
C2301  O3041   1.387   .     S
C2301  C2313   1.410   .     A
C2301  C2401   1.410   .     A
C2302  O3043   1.386   .     S
C2302  C2402   1.408   .     A
C2302  C786    1.409   1_565 S
C2303  O3045   1.386   .     S
C2303  C2315   1.410   .     A
C2303  C2403   1.409   .     A
C2304  O3047   1.387   .     S
C2304  C2404   1.406   .     A
C2305  C2397   1.407   .     A
C2305  O3049   1.387   .     S
C2305  C785    1.409   1_565 S
C2306  O3051   1.387   .     S
C2306  C2314   1.409   .     A
C2306  C2398   1.408   .     A
C2307  O3053   1.386   .     S
C2307  C2399   1.407   .     A
C2308  O3055   1.387   .     S
C2308  C2316   1.410   .     A
C2308  C2400   1.411   .     A
C2309  C2335   1.449   .     S
C2309  C1529   1.410   1_655 S
C2310  C2336   1.450   .     S
C2310  C1534   1.409   1_655 S
C2311  C2333   1.449   .     S
C2313  C2339   1.448   .     S
C2314  C2340   1.449   .     S
C2315  C2337   1.449   .     S
C2315  C1543   1.408   1_655 S
C2316  C2338   1.448   .     S
C2316  C1540   1.408   1_655 S
C2317  C2389   1.413   .     A
C2317  O2497   1.384   .     S
C2317  C2322   1.394   .     A
C2318  O2508   1.386   .     S
C2318  C2390   1.415   .     A
C2318  C2321   1.398   .     A
C2319  C2391   1.416   .     A
C2319  O2519   1.385   .     S
C2319  C2324   1.397   .     A
C2320  O2530   1.386   .     S
C2320  C2323   1.398   .     A
C2320  C2392   1.417   .     A
C2321  O2541   1.385   .     S
C2321  C2393   1.417   .     A
C2322  C2394   1.417   .     A
C2322  O2552   1.387   .     S
C2323  O2563   1.385   .     S
C2323  C2395   1.413   .     A
C2324  C2396   1.414   .     A
C2324  O2574   1.385   .     S
C2325  C2397   1.414   .     A
C2325  O2585   1.384   .     S
C2325  C2330   1.395   1_556 S
C2326  O2596   1.385   .     S
C2326  C2398   1.414   .     A
C2326  C2329   1.397   1_554 S
C2327  C2399   1.414   .     A
C2327  O2607   1.385   .     S
C2327  C2332   1.394   1_556 S
C2328  C2400   1.417   .     A
C2328  O2618   1.385   .     S
C2328  C2331   1.398   1_554 S
C2329  C2401   1.416   .     A
C2329  O2629   1.385   .     S
C2329  C2326   1.397   1_556 S
C2330  C2402   1.415   .     A
C2330  O2640   1.385   .     S
C2330  C2325   1.395   1_554 S
C2331  C2403   1.416   .     A
C2331  O2651   1.386   .     S
C2331  C2328   1.398   1_556 S
C2332  C2404   1.413   .     A
C2332  O2662   1.384   .     S
C2332  C2327   1.394   1_554 S
C2333  O2437   1.273   .     A
C2334  O2438   1.277   .     A
C2334  C784    1.450   1_565 S
C2334  O906    1.275   1_565 S
C2335  O2439   1.274   .     A
C2335  O1671   1.279   1_655 S
C2336  O2436   1.276   .     A
C2336  O1676   1.278   1_655 S
C2337  O1677   1.276   1_655 S
C2337  O1681   1.276   1_655 S
C2338  O1678   1.274   1_655 S
C2338  O1682   1.277   1_655 S
C2339  O2443   1.278   .     A
C2339  O2447   1.275   .     A
C2340  O2448   1.278   .     A
C2340  O2444   1.276   .     A
C2341  C2407   1.459   .     S
C2341  O2449   1.279   .     A
C2341  O2475   1.279   .     A
C2342  O2476   1.280   .     A
C2342  O2450   1.281   .     A
C2342  C2408   1.464   .     S
C2343  O2473   1.280   .     A
C2343  C2409   1.459   .     S
C2343  O2451   1.284   .     A
C2344  O2474   1.277   .     A
C2344  O2452   1.281   .     A
C2344  C2410   1.449   .     S
C2345  C2411   1.468   .     S
C2345  O2479   1.283   .     A
C2345  O2453   1.284   .     A
C2346  O2454   1.280   .     A
C2346  O2480   1.281   .     A
C2346  C2412   1.456   .     S
C2347  O2455   1.281   .     A
C2347  C2405   1.460   .     S
C2347  O2477   1.286   .     A
C2348  O2456   1.279   .     A
C2348  O2478   1.281   .     A
C2348  C2406   1.449   .     S
C2349  C2415   1.459   .     S
C2349  O2457   1.282   .     A
C2349  O2467   1.283   .     A
C2350  O2458   1.279   .     A
C2350  O2468   1.279   .     A
C2350  C2416   1.449   .     S
C2351  O2459   1.280   .     A
C2351  C2417   1.459   .     S
C2351  O2465   1.278   .     A
C2352  O2466   1.281   .     A
C2352  O2460   1.280   .     A
C2352  C2418   1.463   .     S
C2353  O2471   1.281   .     A
C2353  O2461   1.285   .     A
C2353  C2419   1.460   .     S
C2354  O2462   1.280   .     A
C2354  O2472   1.280   .     A
C2354  C2420   1.449   .     S
C2355  O2463   1.284   .     A
C2355  C2413   1.468   .     S
C2355  O2469   1.283   .     A
C2356  O2464   1.280   .     A
C2356  O2470   1.280   .     A
C2356  C2414   1.456   .     S
C2357  O2673   1.385   .     S
C2357  C2420   1.408   .     A
C2357  C2372   1.396   .     A
C2358  C2371   1.387   .     A
C2358  C2419   1.413   .     A
C2358  O2684   1.383   .     S
C2359  O2695   1.386   .     S
C2359  C2418   1.412   .     A
C2359  C2370   1.393   .     A
C2360  C2369   1.393   .     A
C2360  O2706   1.383   .     S
C2360  C2417   1.409   .     A
C2361  C2368   1.387   .     A
C2361  C2416   1.406   .     A
C2361  O2717   1.386   .     S
C2362  O2728   1.384   .     S
C2362  C2415   1.412   .     A
C2362  C2367   1.397   .     A
C2363  C2414   1.405   .     A
C2363  O2739   1.385   .     S
C2363  C2366   1.398   .     A
C2364  O2750   1.384   .     S
C2364  C2365   1.397   .     A
C2364  C2413   1.412   .     A
C2365  C2412   1.405   .     A
C2365  O2761   1.385   .     S
C2366  O2772   1.384   .     S
C2366  C2411   1.412   .     A
C2367  O2783   1.385   .     S
C2367  C2410   1.409   .     A
C2368  O2794   1.384   .     S
C2368  C2409   1.414   .     A
C2369  O2805   1.387   .     S
C2369  C2408   1.414   .     A
C2370  C2407   1.409   .     A
C2370  O2816   1.383   .     S
C2371  O2827   1.386   .     S
C2371  C2406   1.404   .     A
C2372  O2838   1.385   .     S
C2372  C2405   1.412   .     A
C2373  C2406   1.407   .     A
C2373  C2388   1.397   .     A
C2373  O2849   1.384   .     S
C2374  C2387   1.387   .     A
C2374  C2405   1.414   .     A
C2374  O2860   1.384   .     S
C2375  O2871   1.385   .     S
C2375  C2386   1.390   .     A
C2375  C2408   1.413   .     A
C2376  O2882   1.383   .     S
C2376  C2385   1.393   .     A
C2376  C2407   1.408   .     A
C2377  C2410   1.404   .     A
C2377  C2384   1.386   .     A
C2377  O2893   1.384   .     S
C2378  C2409   1.412   .     A
C2378  O2904   1.385   .     S
C2378  C2383   1.396   .     A
C2379  O2915   1.385   .     S
C2379  C2382   1.399   .     A
C2379  C2412   1.406   .     A
C2380  C2411   1.412   .     A
C2380  O2926   1.384   .     S
C2380  C2381   1.398   .     A
C2381  O2937   1.385   .     S
C2381  C2414   1.405   .     A
C2382  C2413   1.413   .     A
C2382  O2948   1.384   .     S
C2383  O2959   1.385   .     S
C2383  C2416   1.408   .     A
C2384  C2415   1.411   .     A
C2384  O2970   1.383   .     S
C2385  O2981   1.386   .     S
C2385  C2418   1.413   .     A
C2386  C2417   1.408   .     A
C2386  O2992   1.382   .     S
C2387  C2420   1.405   .     A
C2387  O3003   1.386   .     S
C2388  C2419   1.411   .     A
C2388  O3014   1.385   .     S
C2389  C2421   1.420   .     A
C2391  C2423   1.422   .     A
C2392  C896    1.423   1_565 S
C2394  C2422   1.423   .     A
C2395  C895    1.420   1_565 S
C2396  C2424   1.421   .     A
C2397  C897    1.421   1_565 S
C2398  C2426   1.420   .     A
C2400  C2428   1.423   .     A
C2401  C2425   1.423   .     A
C2402  C898    1.422   1_565 S
C2403  C2427   1.420   .     A
C2421  C2422   1.416   .     A
C2421  C1629   1.423   1_655 S
C2422  C1626   1.420   1_655 S
C2423  C2424   1.416   .     A
C2425  C2426   1.417   1_556 S
C2426  C2425   1.417   1_554 S
C2427  C1635   1.422   1_655 S
C2427  C2428   1.416   1_556 S
C2428  C1640   1.421   1_655 S
C2428  C2427   1.416   1_554 S
O2429  Zn2492  1.945   .     S
O2429  Zn2481  1.948   .     S
O2429  Zn2485  1.951   .     S
O2430  Zn2486  1.951   .     S
O2430  Zn2495  1.950   .     S
O2430  Zn2482  1.948   .     S
O2431  Zn2490  1.948   .     S
O2431  Zn2483  1.945   .     S
O2431  Zn2487  1.950   .     S
O2432  Zn2493  1.951   .     S
O2432  Zn2488  1.950   .     S
O2432  Zn2484  1.945   .     S
O2433  Zn2496  1.944   .     S
O2433  C805    1.278   1_565 S
O2434  Zn2495  1.944   .     S
O2435  Zn2490  1.946   .     S
O2436  Zn2489  1.946   .     S
O2437  Zn2492  1.947   .     S
O2438  Zn2491  1.947   .     S
O2439  Zn2494  1.945   .     S
O2440  Zn2493  1.945   .     S
O2441  Zn2488  1.944   .     S
O2442  Zn2487  1.944   .     S
O2443  Zn2482  1.946   .     S
O2444  Zn2481  1.946   .     S
O2445  Zn2484  1.947   .     S
O2446  Zn2483  1.947   .     S
O2447  Zn2486  1.945   .     S
O2448  Zn2485  1.945   .     S
O2449  Zn2492  1.945   .     S
O2450  Zn2491  1.945   .     S
O2451  Zn2494  1.932   .     S
O2452  Zn2493  1.932   .     S
O2453  Zn2496  1.945   .     S
O2454  Zn2495  1.945   .     S
O2455  Zn2490  1.934   .     S
O2456  Zn2489  1.934   .     S
O2457  Zn2491  1.935   .     S
O2458  Zn2492  1.935   .     S
O2459  Zn2489  1.943   .     S
O2460  Zn2490  1.943   .     S
O2461  Zn2495  1.933   .     S
O2462  Zn2496  1.933   .     S
O2463  Zn2493  1.944   .     S
O2464  Zn2494  1.944   .     S
O2465  Zn1720  1.945   1_655 S
O2466  Zn2483  1.945   .     S
O2467  Zn958   1.932   1_565 S
O2468  Zn2485  1.932   .     S
O2469  Zn2488  1.945   .     S
O2470  Zn1723  1.945   1_655 S
O2471  Zn2482  1.934   .     S
O2472  Zn953   1.934   1_565 S
O2473  Zn1719  1.935   1_655 S
O2474  Zn2484  1.935   .     S
O2475  Zn2481  1.943   .     S
O2476  Zn954   1.943   1_565 S
O2477  Zn2487  1.933   .     S
O2478  Zn1724  1.933   1_655 S
O2479  Zn957   1.944   1_565 S
O2480  Zn2486  1.944   .     S
Zn2489 O1668   1.948   1_655 S
Zn2491 O902    1.945   1_565 S
Zn2494 O1667   1.951   1_655 S
Zn2496 O901    1.950   1_565 S
O2497  C2498   1.413   .     S
C2498  H2499   1.113   .     S
C2498  H2500   1.116   .     S
C2498  C2501   1.528   .     S
C2501  H2503   1.111   .     S
C2501  C2504   1.526   .     S
C2501  H2502   1.112   .     S
C2504  H2507   1.110   .     S
C2504  H2505   1.111   .     S
C2504  H2506   1.111   .     S
C2509  H2510   1.114   .     S
C2509  H2511   1.113   .     S
C2509  O1744   1.414   1_655 S
C2509  C1748   1.528   1_655 S
C2512  H2513   1.112   .     S
C2512  H2514   1.110   .     S
C2515  H2518   1.111   .     S
C2515  H2516   1.111   .     S
C2515  H2517   1.110   .     S
C2515  C1748   1.526   1_655 S
O2519  C2520   1.414   .     S
C2520  H2522   1.114   .     S
C2520  C2523   1.528   .     S
H2521  C992    1.115   1_565 S
C2523  C2526   1.526   .     S
C2523  H2525   1.111   .     S
C2523  H2524   1.111   .     S
C2526  H2528   1.111   .     S
H2527  C998    1.111   1_565 S
H2529  C998    1.111   1_565 S
O2530  C2531   1.414   .     S
C2531  H2533   1.112   .     S
C2531  H2532   1.110   .     S
C2531  C2534   1.530   .     S
C2534  H2536   1.112   .     S
C2534  C2537   1.527   .     S
C2534  H2535   1.111   .     S
C2537  H2539   1.110   .     S
C2537  H2538   1.110   .     S
C2537  H2540   1.110   .     S
O2541  C2542   1.413   .     S
C2542  H2544   1.115   .     S
C2542  C2545   1.531   .     S
C2542  H2543   1.113   .     S
C2545  C2548   1.525   .     S
C2545  H2546   1.112   .     S
C2545  H2547   1.112   .     S
C2548  H2551   1.108   .     S
C2548  H2550   1.109   .     S
C2548  H2549   1.110   .     S
O2552  C2553   1.419   .     S
C2553  C2556   1.533   .     S
C2553  H2554   1.111   .     S
C2553  H1791   1.118   1_655 S
C2556  H2558   1.110   .     S
C2556  H2557   1.111   .     S
C2556  C1795   1.526   1_655 S
C2559  H2560   1.111   .     S
C2559  H2561   1.111   .     S
H2562  C1795   1.111   1_655 S
O2563  C1036   1.413   1_565 S
C2564  C2567   1.529   .     S
C2564  H2566   1.113   .     S
C2564  H2565   1.114   .     S
C2567  C2570   1.526   .     S
H2568  C1039   1.112   1_565 S
H2569  C1039   1.111   1_565 S
C2570  H2573   1.111   .     S
C2570  H2571   1.111   .     S
C2570  H2572   1.111   .     S
O2574  C2575   1.413   .     S
C2575  H2576   1.115   .     S
C2575  C2578   1.528   .     S
C2575  H2577   1.115   .     S
C2578  C2581   1.526   .     S
C2578  H2580   1.111   .     S
C2578  H2579   1.112   .     S
C2581  H2584   1.111   .     S
C2581  H2582   1.110   .     S
C2581  H2583   1.110   .     S
O2585  C2586   1.413   .     S
C2586  H2587   1.114   .     S
C2586  H2588   1.115   .     S
C2586  C2589   1.528   .     S
C2589  H2591   1.111   .     S
C2589  H2590   1.112   .     S
C2589  C2592   1.526   .     S
C2592  H2593   1.111   .     S
C2592  H2595   1.111   .     S
C2592  H2594   1.111   .     S
O2596  C2597   1.414   .     S
C2597  H2599   1.113   .     S
C2597  H2598   1.114   .     S
C2597  C2600   1.529   .     S
C2600  C2603   1.526   .     S
C2600  H2601   1.112   .     S
C2600  H2602   1.111   .     S
C2603  H2605   1.110   .     S
C2603  H2604   1.111   .     S
C2603  H2606   1.111   .     S
O2607  C2608   1.414   .     S
C2608  H2609   1.116   .     S
C2608  C2611   1.528   .     S
C2608  H2610   1.114   .     S
C2611  H2613   1.111   .     S
C2611  H2612   1.111   .     S
C2611  C2614   1.526   .     S
C2614  H2616   1.110   .     S
C2614  H2617   1.111   .     S
C2614  H2615   1.111   .     S
O2618  C2619   1.413   .     S
C2619  H2621   1.115   .     S
C2619  H2620   1.113   .     S
C2619  C2622   1.530   .     S
C2622  H2623   1.112   .     S
C2622  H2624   1.112   .     S
C2622  C2625   1.525   .     S
C2625  H2626   1.110   .     S
C2625  H2628   1.108   .     S
C2625  H2627   1.108   .     S
O2629  C2630   1.414   .     S
C2630  H2632   1.114   .     S
C2630  C2633   1.530   .     S
C2630  H2631   1.113   .     S
C2633  H2635   1.112   .     S
C2633  C2636   1.529   .     S
C2633  H2634   1.111   .     S
C2636  H2639   1.111   .     S
C2636  H2637   1.110   .     S
C2636  H2638   1.110   .     S
O2640  C2641   1.414   .     S
C2641  H2643   1.114   .     S
C2641  C2644   1.528   .     S
C2641  H2642   1.116   .     S
C2644  H2645   1.111   .     S
C2644  C2647   1.526   .     S
C2644  H2646   1.110   .     S
C2647  H2648   1.111   .     S
C2647  H2650   1.111   .     S
C2647  H2649   1.111   .     S
O2651  C2652   1.414   .     S
C2652  H2653   1.114   .     S
C2652  H2654   1.113   .     S
C2652  C2655   1.528   .     S
C2655  H2656   1.112   .     S
C2655  C2658   1.526   .     S
C2655  H2657   1.111   .     S
C2658  H2661   1.111   .     S
C2658  H2659   1.111   .     S
C2658  H2660   1.110   .     S
O2662  C2663   1.413   .     S
C2663  C2666   1.528   .     S
C2663  H2664   1.114   .     S
C2663  H2665   1.116   .     S
C2666  H2667   1.112   .     S
C2666  C2669   1.526   .     S
C2666  H2668   1.111   .     S
C2669  H2672   1.111   .     S
C2669  H2671   1.110   .     S
C2669  H2670   1.111   .     S
O2673  C2674   1.415   .     S
C2674  H2675   1.114   .     S
C2674  H2676   1.114   .     S
C2674  C1149   1.527   1_565 S
C2677  H2679   1.110   .     S
C2677  H2678   1.110   .     S
C2677  C2680   1.527   .     S
C2680  H2681   1.111   .     S
C2680  H2683   1.111   .     S
C2680  H2682   1.111   .     S
O2684  C2685   1.420   .     S
C2685  H2686   1.109   .     S
C2685  C2688   1.533   .     S
C2685  H2687   1.116   .     S
C2688  H2690   1.111   .     S
C2688  C2691   1.525   .     S
C2688  H2689   1.107   .     S
C2691  H2693   1.110   .     S
C2691  H2694   1.111   .     S
C2691  H2692   1.108   .     S
O2695  C2696   1.419   .     S
C2696  H2697   1.111   .     S
C2696  C2699   1.530   .     S
C2696  H2698   1.117   .     S
C2699  C2702   1.526   .     S
C2699  H2700   1.109   .     S
C2699  H2701   1.109   .     S
C2702  H2703   1.109   .     S
C2702  H2704   1.110   .     S
H2705  C1938   1.109   1_655 S
O2706  C2707   1.412   .     S
C2707  H2709   1.114   .     S
C2707  H2708   1.116   .     S
C2707  C2710   1.528   .     S
C2710  H2712   1.111   .     S
C2710  C2713   1.524   .     S
C2710  H2711   1.111   .     S
C2713  H2714   1.111   .     S
C2713  H2716   1.110   .     S
C2713  H2715   1.111   .     S
O2717  C2718   1.418   .     S
C2718  H2719   1.110   .     S
C2718  H2720   1.117   .     S
C2718  C2721   1.533   .     S
C2721  H2722   1.111   .     S
C2721  C2724   1.526   .     S
C2721  H2723   1.110   .     S
C2724  H2725   1.110   .     S
C2724  H2726   1.110   .     S
H2727  C1196   1.110   1_565 S
O2728  C2729   1.415   .     S
C2729  H2731   1.113   .     S
C2729  H2730   1.117   .     S
C2729  C2732   1.529   .     S
C2732  C2735   1.526   .     S
C2732  H2734   1.111   .     S
C2732  H1205   1.111   1_565 S
C2735  H2736   1.111   .     S
C2735  H2738   1.111   .     S
C2735  H1209   1.110   1_565 S
O2739  C2740   1.417   .     S
C2740  H2741   1.112   .     S
C2740  C2743   1.528   .     S
C2740  H2742   1.119   .     S
C2743  H2745   1.110   .     S
C2743  H1980   1.110   1_655 S
C2743  C1982   1.526   1_655 S
C2746  H2749   1.111   .     S
C2746  H2748   1.110   .     S
H2747  C1982   1.111   1_655 S
O2750  C2751   1.415   .     S
C2751  H2752   1.114   .     S
C2751  H2753   1.115   .     S
C2751  C2754   1.525   .     S
C2754  H2756   1.112   .     S
C2754  C2757   1.527   .     S
H2755  C1990   1.111   1_655 S
C2757  H2760   1.111   .     S
C2757  H2758   1.110   .     S
H2759  C1993   1.108   1_655 S
O2761  C2762   1.417   .     S
C2762  H2763   1.112   .     S
C2762  C2765   1.528   .     S
C2762  H2764   1.119   .     S
C2765  H2767   1.110   .     S
H2766  C1237   1.110   1_565 S
C2768  H2770   1.110   .     S
C2768  H2771   1.111   .     S
C2768  C1237   1.526   1_565 S
C2768  H1241   1.111   1_565 S
O2772  C2773   1.415   .     S
C2773  H2774   1.114   .     S
C2773  C2776   1.525   .     S
C2773  H2775   1.115   .     S
C2776  H2778   1.112   .     S
C2776  C2779   1.527   .     S
C2776  H1249   1.111   1_565 S
C2779  H2782   1.111   .     S
C2779  H2780   1.110   .     S
C2779  H1253   1.107   1_565 S
O2783  C2784   1.415   .     S
C2784  H2785   1.114   .     S
C2784  H2786   1.114   .     S
C2787  H2788   1.110   .     S
C2787  C2790   1.526   .     S
C2787  H2789   1.110   .     S
C2787  C2020   1.527   1_655 S
C2790  H2791   1.110   .     S
C2790  H2792   1.111   .     S
C2790  H2793   1.111   .     S
O2794  C2795   1.420   .     S
C2795  H2797   1.117   .     S
C2795  H2796   1.109   .     S
C2795  C2798   1.533   .     S
C2798  H2799   1.107   .     S
C2798  H2800   1.111   .     S
C2798  C2801   1.528   .     S
C2801  H2802   1.109   .     S
C2801  H2803   1.110   .     S
C2801  H2804   1.110   .     S
O2805  C2806   1.419   .     S
C2806  H2807   1.111   .     S
C2806  H2808   1.117   .     S
C2806  C2809   1.530   .     S
C2809  H2811   1.110   .     S
C2809  H2810   1.110   .     S
C2809  C2812   1.526   .     S
C2812  H2813   1.109   .     S
C2812  H1286   1.110   1_565 S
C2812  H1287   1.109   1_565 S
O2816  C2817   1.412   .     S
C2817  C2820   1.528   .     S
C2817  H2819   1.114   .     S
C2817  H2818   1.116   .     S
C2820  H2821   1.111   .     S
C2820  H2822   1.111   .     S
C2820  C2823   1.524   .     S
C2823  H2825   1.111   .     S
C2823  H2824   1.111   .     S
C2823  H2826   1.110   .     S
O2827  C2828   1.418   .     S
C2828  H2830   1.117   .     S
C2828  C2831   1.532   .     S
C2828  H2829   1.110   .     S
C2831  H2833   1.110   .     S
C2831  H2832   1.111   .     S
C2831  C2834   1.526   .     S
C2834  H2835   1.111   .     S
C2834  H2836   1.110   .     S
C2834  H2073   1.110   1_655 S
O2838  C2839   1.415   .     S
C2839  C2842   1.529   .     S
C2839  H2841   1.113   .     S
C2839  H2840   1.117   .     S
C2842  C2845   1.526   .     S
C2842  H2844   1.111   .     S
H2843  C2078   1.111   1_655 S
C2845  H2846   1.111   .     S
C2845  H2848   1.111   .     S
H2847  C2081   1.110   1_655 S
O2849  C2850   1.415   .     S
C2850  C2853   1.526   .     S
C2850  H2851   1.116   .     S
C2850  H2852   1.113   .     S
C2853  H2855   1.107   .     S
C2853  H2854   1.108   .     S
C2853  C2856   1.526   .     S
C2856  H2858   1.111   .     S
C2856  H2859   1.111   .     S
C2856  H2857   1.110   .     S
O2860  C2861   1.420   .     S
C2861  C2864   1.533   .     S
C2861  H2863   1.117   .     S
C2861  H2862   1.109   .     S
C2864  H2865   1.107   .     S
C2864  C2867   1.528   .     S
C2864  H2866   1.111   .     S
C2867  H2869   1.110   .     S
C2867  H2870   1.110   .     S
C2867  H2868   1.109   .     S
O2871  C2872   1.422   .     S
C2872  C2875   1.535   .     S
C2872  H2873   1.110   .     S
C2872  H2874   1.118   .     S
C2875  C2878   1.527   .     S
C2875  H2877   1.108   .     S
C2875  H2876   1.110   .     S
C2878  H2880   1.111   .     S
C2878  H2881   1.109   .     S
C2878  H2879   1.109   .     S
O2882  C2883   1.412   .     S
C2883  C2886   1.528   .     S
C2883  H2885   1.114   .     S
C2883  H2884   1.115   .     S
C2886  H2887   1.111   .     S
C2886  H2888   1.111   .     S
C2886  C2889   1.524   .     S
C2889  H2892   1.110   .     S
C2889  H2890   1.111   .     S
C2889  H2891   1.111   .     S
O2893  C2894   1.419   .     S
C2894  H2896   1.117   .     S
C2894  C2897   1.531   .     S
C2894  H2895   1.110   .     S
C2897  H2898   1.108   .     S
C2897  C2900   1.525   .     S
C2897  H2899   1.111   .     S
C2900  H2901   1.110   .     S
C2900  H2903   1.111   .     S
C2900  H2902   1.110   .     S
O2904  C2905   1.415   .     S
C2905  H2907   1.113   .     S
C2905  H2906   1.117   .     S
C2905  C2908   1.529   .     S
C2908  C2911   1.525   .     S
C2908  H2910   1.111   .     S
C2908  H2909   1.111   .     S
C2911  H2913   1.110   .     S
C2911  H2914   1.110   .     S
C2911  H2912   1.111   .     S
O2915  C2916   1.418   .     S
C2916  C2919   1.529   .     S
C2916  H2917   1.112   .     S
C2916  H2918   1.119   .     S
C2919  C2922   1.526   .     S
C2919  H2920   1.110   .     S
C2919  H2921   1.110   .     S
C2922  H2925   1.111   .     S
C2922  H2923   1.111   .     S
C2922  H2924   1.110   .     S
O2926  C2927   1.415   .     S
C2927  H2929   1.115   .     S
C2927  C2930   1.525   .     S
C2927  H2928   1.114   .     S
C2930  H2931   1.111   .     S
C2930  C2933   1.527   .     S
C2930  H2932   1.112   .     S
C2933  H2936   1.111   .     S
C2933  H2934   1.110   .     S
C2933  H2935   1.107   .     S
O2937  C2938   1.418   .     S
C2938  C2941   1.529   .     S
C2938  H2940   1.119   .     S
C2938  H2939   1.112   .     S
C2941  C2944   1.526   .     S
C2941  H2943   1.110   .     S
C2941  H2942   1.110   .     S
C2944  H2946   1.110   .     S
C2944  H2945   1.111   .     S
C2944  H2947   1.111   .     S
O2948  C2949   1.415   .     S
C2949  H2951   1.113   .     S
C2949  H2950   1.116   .     S
C2949  C2952   1.526   .     S
C2952  C2955   1.525   .     S
C2952  H2954   1.110   .     S
C2952  H2953   1.111   .     S
C2955  H2957   1.111   .     S
C2955  H2956   1.111   .     S
C2955  H2958   1.111   .     S
O2959  C2960   1.415   .     S
C2960  H2961   1.114   .     S
C2960  C2963   1.527   .     S
C2960  H2962   1.114   .     S
C2963  C2966   1.527   .     S
C2963  H2965   1.110   .     S
C2963  H2964   1.110   .     S
C2966  H2967   1.110   .     S
C2966  H2968   1.111   .     S
C2966  H2969   1.111   .     S
O2970  C2971   1.417   .     S
C2971  H2973   1.115   .     S
C2971  H2972   1.116   .     S
C2971  C2974   1.526   .     S
C2974  H2976   1.108   .     S
C2974  C2977   1.523   .     S
C2974  H2975   1.111   .     S
C2977  H2980   1.110   .     S
C2977  H2979   1.110   .     S
C2977  H2978   1.111   .     S
O2981  C2982   1.419   .     S
C2982  H2983   1.111   .     S
C2982  H2984   1.117   .     S
C2982  C2985   1.530   .     S
C2985  C2988   1.526   .     S
C2985  H2987   1.109   .     S
C2985  H2986   1.109   .     S
C2988  H2990   1.110   .     S
C2988  H2989   1.109   .     S
C2988  H2991   1.109   .     S
O2992  C2993   1.412   .     S
C2993  H2995   1.114   .     S
C2993  H2994   1.116   .     S
C2993  C2996   1.528   .     S
C2996  C2999   1.525   .     S
C2996  H2998   1.112   .     S
C2996  H2997   1.111   .     S
C2999  H3001   1.111   .     S
C2999  H3002   1.110   .     S
C2999  H3000   1.111   .     S
O3003  C3004   1.418   .     S
C3004  H3005   1.110   .     S
C3004  H3006   1.117   .     S
C3004  C3007   1.533   .     S
C3007  H3009   1.110   .     S
C3007  H3008   1.111   .     S
C3007  C3010   1.526   .     S
C3010  H3012   1.110   .     S
C3010  H3013   1.110   .     S
C3010  H3011   1.110   .     S
O3014  C3015   1.415   .     S
C3015  H3017   1.113   .     S
C3015  C3018   1.528   .     S
C3015  H3016   1.117   .     S
C3018  H3020   1.111   .     S
C3018  H3019   1.111   .     S
C3018  C3021   1.526   .     S
C3021  H3024   1.111   .     S
C3021  H3023   1.110   .     S
C3021  H3022   1.111   .     S
O3025  H3026   0.988   .     S
O3027  H3028   0.989   .     S
O3029  H3030   0.988   .     S
O3031  H3032   0.989   .     S
O3033  H3034   0.989   .     S
O3035  H3036   0.989   .     S
O3037  H3038   0.989   .     S
O3039  H3040   0.988   .     S
O3041  H3042   0.988   .     S
O3043  H3044   0.989   .     S
O3045  H3046   0.989   .     S
O3047  H3048   0.989   .     S
O3049  H3050   0.989   .     S
O3051  H3052   0.988   .     S
O3053  H3054   0.989   .     S
O3055  H3056   0.988   .     S
