data_str_m2_o5_o17_pcu_sym.45
_audit_creation_date              2020-01-03
_audit_creation_method            'Materials Studio'
_symmetry_space_group_name_H-M    'P1'
_symmetry_Int_Tables_number       1
_symmetry_cell_setting            triclinic
loop_
_symmetry_equiv_pos_as_xyz
  x,y,z
_cell_length_a                    30.2537
_cell_length_b                    27.4109
_cell_length_c                    23.3721
_cell_angle_alpha                 90.0123
_cell_angle_beta                  89.9340
_cell_angle_gamma                 89.8504
loop_
_atom_site_label
_atom_site_type_symbol
_atom_site_fract_x
_atom_site_fract_y
_atom_site_fract_z
_atom_site_U_iso_or_equiv
_atom_site_adp_type
_atom_site_occupancy
O1     O     0.25000   0.09613   0.21425   0.00000  Uiso   1.00
O2     O     0.25000   0.23720   0.11908   0.00000  Uiso   1.00
O3     O     0.25000   0.23720   0.21425   0.00000  Uiso   1.00
O4     O     0.25000   0.09613   0.11908   0.00000  Uiso   1.00
C5     C     0.25031   0.07333   0.16669   0.00000  Uiso   1.00
C6     C     0.24961   0.26000   0.16670   0.00000  Uiso   1.00
O7     O     0.18513   0.16667   0.21427   0.00000  Uiso   1.00
O8     O     0.31487   0.16667   0.11907   0.00000  Uiso   1.00
O9     O     0.31487   0.16667   0.21427   0.00000  Uiso   1.00
O10    O     0.18513   0.16667   0.11907   0.00000  Uiso   1.00
C11    C     0.16435   0.16679   0.16669   0.00000  Uiso   1.00
C12    C     0.33565   0.16663   0.16661   0.00000  Uiso   1.00
Cu13   Cu    0.25000   0.16667   0.22303   0.00000  Uiso   1.00
Cu14   Cu    0.25000   0.16667   0.11031   0.00000  Uiso   1.00
N15    N     0.25000   0.16667   0.02561   0.00000  Uiso   1.00
N16    N     0.25000   0.16667   0.30773   0.00000  Uiso   1.00
C17    C     0.40659   0.21157   0.17050   0.00000  Uiso   1.00
C18    C     0.09333   0.12251   0.17414   0.00000  Uiso   1.00
C19    C     0.40711   0.12247   0.16172   0.00000  Uiso   1.00
C20    C     0.09305   0.21105   0.15930   0.00000  Uiso   1.00
C21    C     0.38390   0.16687   0.16649   0.00000  Uiso   1.00
C22    C     0.11611   0.16681   0.16683   0.00000  Uiso   1.00
C23    C     0.45347   0.12235   0.16646   0.00000  Uiso   1.00
C24    C     0.04659   0.21146   0.16301   0.00000  Uiso   1.00
C25    C     0.45319   0.21180   0.16847   0.00000  Uiso   1.00
C26    C     0.04676   0.12229   0.17247   0.00000  Uiso   1.00
C27    C     0.47661   0.16705   0.16827   0.00000  Uiso   1.00
C28    C     0.02340   0.16696   0.16836   0.00000  Uiso   1.00
C29    C     0.47724   0.07839   0.16962   0.00000  Uiso   1.00
C30    C     0.02272   0.25547   0.16174   0.00000  Uiso   1.00
C31    C     0.47697   0.25566   0.16508   0.00000  Uiso   1.00
C32    C     0.02294   0.07835   0.17331   0.00000  Uiso   1.00
C33    C     0.25019   0.02176   0.16679   0.00000  Uiso   1.00
C34    C     0.24973   0.31158   0.16681   0.00000  Uiso   1.00
H35    H     0.46064   0.04354   0.17036   0.00000  Uiso   1.00
H36    H     0.03919   0.29032   0.15897   0.00000  Uiso   1.00
H37    H     0.46048   0.29061   0.16340   0.00000  Uiso   1.00
H38    H     0.03932   0.04335   0.17543   0.00000  Uiso   1.00
C39    C     0.38115   0.25779   0.17414   0.00000  Uiso   1.00
O40    O     0.38690   0.28567   0.21429   0.00000  Uiso   1.00
O41    O     0.35060   0.26909   0.13146   0.00000  Uiso   1.00
H42    H     0.33531   0.30135   0.13866   0.00000  Uiso   1.00
C43    C     0.11868   0.07647   0.18052   0.00000  Uiso   1.00
O44    O     0.11386   0.05117   0.22316   0.00000  Uiso   1.00
O45    O     0.14802   0.06237   0.13748   0.00000  Uiso   1.00
H46    H     0.16300   0.03026   0.14641   0.00000  Uiso   1.00
C47    C     0.38333   0.07706   0.14646   0.00000  Uiso   1.00
O48    O     0.35339   0.06191   0.17670   0.00000  Uiso   1.00
O49    O     0.39541   0.05221   0.09657   0.00000  Uiso   1.00
H50    H     0.37587   0.02321   0.08822   0.00000  Uiso   1.00
C51    C     0.11751   0.25609   0.14426   0.00000  Uiso   1.00
O52    O     0.14604   0.27184   0.17623   0.00000  Uiso   1.00
O53    O     0.10790   0.27986   0.09282   0.00000  Uiso   1.00
H54    H     0.12771   0.30888   0.08544   0.00000  Uiso   1.00
O55    O     0.75000   0.09613   0.21425   0.00000  Uiso   1.00
O56    O     0.75000   0.23720   0.11908   0.00000  Uiso   1.00
O57    O     0.75000   0.23720   0.21425   0.00000  Uiso   1.00
O58    O     0.75000   0.09613   0.11908   0.00000  Uiso   1.00
C59    C     0.75031   0.07333   0.16669   0.00000  Uiso   1.00
C60    C     0.74961   0.26000   0.16670   0.00000  Uiso   1.00
O61    O     0.68513   0.16667   0.21427   0.00000  Uiso   1.00
O62    O     0.81487   0.16667   0.11907   0.00000  Uiso   1.00
O63    O     0.81487   0.16667   0.21427   0.00000  Uiso   1.00
O64    O     0.68513   0.16667   0.11907   0.00000  Uiso   1.00
C65    C     0.66435   0.16679   0.16669   0.00000  Uiso   1.00
C66    C     0.83565   0.16663   0.16661   0.00000  Uiso   1.00
Cu67   Cu    0.75000   0.16667   0.22303   0.00000  Uiso   1.00
Cu68   Cu    0.75000   0.16667   0.11031   0.00000  Uiso   1.00
N69    N     0.75000   0.16667   0.02561   0.00000  Uiso   1.00
N70    N     0.75000   0.16667   0.30773   0.00000  Uiso   1.00
C71    C     0.90659   0.21157   0.17050   0.00000  Uiso   1.00
C72    C     0.59333   0.12251   0.17414   0.00000  Uiso   1.00
C73    C     0.90711   0.12247   0.16172   0.00000  Uiso   1.00
C74    C     0.59305   0.21105   0.15930   0.00000  Uiso   1.00
C75    C     0.88390   0.16687   0.16649   0.00000  Uiso   1.00
C76    C     0.61611   0.16681   0.16683   0.00000  Uiso   1.00
C77    C     0.95347   0.12235   0.16646   0.00000  Uiso   1.00
C78    C     0.54659   0.21146   0.16301   0.00000  Uiso   1.00
C79    C     0.95319   0.21180   0.16847   0.00000  Uiso   1.00
C80    C     0.54676   0.12229   0.17247   0.00000  Uiso   1.00
C81    C     0.97661   0.16705   0.16827   0.00000  Uiso   1.00
C82    C     0.52340   0.16696   0.16836   0.00000  Uiso   1.00
C83    C     0.97724   0.07839   0.16962   0.00000  Uiso   1.00
C84    C     0.52272   0.25547   0.16174   0.00000  Uiso   1.00
C85    C     0.97697   0.25566   0.16508   0.00000  Uiso   1.00
C86    C     0.52294   0.07835   0.17331   0.00000  Uiso   1.00
C87    C     0.75019   0.02176   0.16679   0.00000  Uiso   1.00
C88    C     0.74973   0.31158   0.16681   0.00000  Uiso   1.00
H89    H     0.96064   0.04354   0.17036   0.00000  Uiso   1.00
H90    H     0.53919   0.29032   0.15897   0.00000  Uiso   1.00
H91    H     0.96048   0.29061   0.16340   0.00000  Uiso   1.00
H92    H     0.53932   0.04335   0.17543   0.00000  Uiso   1.00
C93    C     0.88115   0.25779   0.17414   0.00000  Uiso   1.00
O94    O     0.88690   0.28567   0.21429   0.00000  Uiso   1.00
O95    O     0.85060   0.26909   0.13146   0.00000  Uiso   1.00
H96    H     0.83531   0.30135   0.13866   0.00000  Uiso   1.00
C97    C     0.61868   0.07647   0.18052   0.00000  Uiso   1.00
O98    O     0.61386   0.05117   0.22316   0.00000  Uiso   1.00
O99    O     0.64802   0.06237   0.13748   0.00000  Uiso   1.00
H100   H     0.66300   0.03026   0.14641   0.00000  Uiso   1.00
C101   C     0.88333   0.07706   0.14646   0.00000  Uiso   1.00
O102   O     0.85339   0.06191   0.17670   0.00000  Uiso   1.00
O103   O     0.89541   0.05221   0.09657   0.00000  Uiso   1.00
H104   H     0.87587   0.02321   0.08822   0.00000  Uiso   1.00
C105   C     0.61751   0.25609   0.14426   0.00000  Uiso   1.00
O106   O     0.64604   0.27184   0.17623   0.00000  Uiso   1.00
O107   O     0.60790   0.27986   0.09282   0.00000  Uiso   1.00
H108   H     0.62771   0.30888   0.08544   0.00000  Uiso   1.00
O109   O     0.25000   0.42946   0.21425   0.00000  Uiso   1.00
O110   O     0.25000   0.57054   0.11908   0.00000  Uiso   1.00
O111   O     0.25000   0.57054   0.21425   0.00000  Uiso   1.00
O112   O     0.25000   0.42946   0.11908   0.00000  Uiso   1.00
C113   C     0.25031   0.40666   0.16669   0.00000  Uiso   1.00
C114   C     0.24961   0.59334   0.16670   0.00000  Uiso   1.00
O115   O     0.18513   0.50000   0.21427   0.00000  Uiso   1.00
O116   O     0.31487   0.50000   0.11907   0.00000  Uiso   1.00
O117   O     0.31487   0.50000   0.21427   0.00000  Uiso   1.00
O118   O     0.18513   0.50000   0.11907   0.00000  Uiso   1.00
C119   C     0.16435   0.50013   0.16669   0.00000  Uiso   1.00
C120   C     0.33565   0.49996   0.16661   0.00000  Uiso   1.00
Cu121  Cu    0.25000   0.50000   0.22303   0.00000  Uiso   1.00
Cu122  Cu    0.25000   0.50000   0.11031   0.00000  Uiso   1.00
N123   N     0.25000   0.50000   0.02561   0.00000  Uiso   1.00
N124   N     0.25000   0.50000   0.30773   0.00000  Uiso   1.00
C125   C     0.40659   0.54490   0.17050   0.00000  Uiso   1.00
C126   C     0.09333   0.45584   0.17414   0.00000  Uiso   1.00
C127   C     0.40711   0.45581   0.16172   0.00000  Uiso   1.00
C128   C     0.09305   0.54438   0.15930   0.00000  Uiso   1.00
C129   C     0.38390   0.50020   0.16649   0.00000  Uiso   1.00
C130   C     0.11611   0.50015   0.16683   0.00000  Uiso   1.00
C131   C     0.45347   0.45569   0.16646   0.00000  Uiso   1.00
C132   C     0.04659   0.54480   0.16301   0.00000  Uiso   1.00
C133   C     0.45319   0.54513   0.16847   0.00000  Uiso   1.00
C134   C     0.04676   0.45562   0.17247   0.00000  Uiso   1.00
C135   C     0.47661   0.50038   0.16827   0.00000  Uiso   1.00
C136   C     0.02340   0.50029   0.16836   0.00000  Uiso   1.00
C137   C     0.47724   0.41172   0.16962   0.00000  Uiso   1.00
C138   C     0.02272   0.58880   0.16174   0.00000  Uiso   1.00
C139   C     0.47697   0.58899   0.16508   0.00000  Uiso   1.00
C140   C     0.02294   0.41169   0.17331   0.00000  Uiso   1.00
C141   C     0.25019   0.35509   0.16679   0.00000  Uiso   1.00
C142   C     0.24973   0.64491   0.16681   0.00000  Uiso   1.00
H143   H     0.46064   0.37687   0.17036   0.00000  Uiso   1.00
H144   H     0.03919   0.62366   0.15897   0.00000  Uiso   1.00
H145   H     0.46048   0.62395   0.16340   0.00000  Uiso   1.00
H146   H     0.03932   0.37668   0.17543   0.00000  Uiso   1.00
C147   C     0.38115   0.59112   0.17414   0.00000  Uiso   1.00
O148   O     0.38690   0.61900   0.21429   0.00000  Uiso   1.00
O149   O     0.35060   0.60242   0.13146   0.00000  Uiso   1.00
H150   H     0.33531   0.63468   0.13866   0.00000  Uiso   1.00
C151   C     0.11868   0.40981   0.18052   0.00000  Uiso   1.00
O152   O     0.11386   0.38450   0.22316   0.00000  Uiso   1.00
O153   O     0.14802   0.39570   0.13748   0.00000  Uiso   1.00
H154   H     0.16300   0.36360   0.14641   0.00000  Uiso   1.00
C155   C     0.38333   0.41040   0.14646   0.00000  Uiso   1.00
O156   O     0.35339   0.39525   0.17670   0.00000  Uiso   1.00
O157   O     0.39541   0.38554   0.09657   0.00000  Uiso   1.00
H158   H     0.37587   0.35655   0.08822   0.00000  Uiso   1.00
C159   C     0.11751   0.58942   0.14426   0.00000  Uiso   1.00
O160   O     0.14604   0.60517   0.17623   0.00000  Uiso   1.00
O161   O     0.10790   0.61319   0.09282   0.00000  Uiso   1.00
H162   H     0.12771   0.64221   0.08544   0.00000  Uiso   1.00
O163   O     0.75000   0.42946   0.21425   0.00000  Uiso   1.00
O164   O     0.75000   0.57054   0.11908   0.00000  Uiso   1.00
O165   O     0.75000   0.57054   0.21425   0.00000  Uiso   1.00
O166   O     0.75000   0.42946   0.11908   0.00000  Uiso   1.00
C167   C     0.75031   0.40666   0.16669   0.00000  Uiso   1.00
C168   C     0.74961   0.59334   0.16670   0.00000  Uiso   1.00
O169   O     0.68513   0.50000   0.21427   0.00000  Uiso   1.00
O170   O     0.81487   0.50000   0.11907   0.00000  Uiso   1.00
O171   O     0.81487   0.50000   0.21427   0.00000  Uiso   1.00
O172   O     0.68513   0.50000   0.11907   0.00000  Uiso   1.00
C173   C     0.66435   0.50013   0.16669   0.00000  Uiso   1.00
C174   C     0.83565   0.49996   0.16661   0.00000  Uiso   1.00
Cu175  Cu    0.75000   0.50000   0.22303   0.00000  Uiso   1.00
Cu176  Cu    0.75000   0.50000   0.11031   0.00000  Uiso   1.00
N177   N     0.75000   0.50000   0.02561   0.00000  Uiso   1.00
N178   N     0.75000   0.50000   0.30773   0.00000  Uiso   1.00
C179   C     0.90659   0.54490   0.17050   0.00000  Uiso   1.00
C180   C     0.59333   0.45584   0.17414   0.00000  Uiso   1.00
C181   C     0.90711   0.45581   0.16172   0.00000  Uiso   1.00
C182   C     0.59305   0.54438   0.15930   0.00000  Uiso   1.00
C183   C     0.88390   0.50020   0.16649   0.00000  Uiso   1.00
C184   C     0.61611   0.50015   0.16683   0.00000  Uiso   1.00
C185   C     0.95347   0.45569   0.16646   0.00000  Uiso   1.00
C186   C     0.54659   0.54480   0.16301   0.00000  Uiso   1.00
C187   C     0.95319   0.54513   0.16847   0.00000  Uiso   1.00
C188   C     0.54676   0.45562   0.17247   0.00000  Uiso   1.00
C189   C     0.97661   0.50038   0.16827   0.00000  Uiso   1.00
C190   C     0.52340   0.50029   0.16836   0.00000  Uiso   1.00
C191   C     0.97724   0.41172   0.16962   0.00000  Uiso   1.00
C192   C     0.52272   0.58880   0.16174   0.00000  Uiso   1.00
C193   C     0.97697   0.58899   0.16508   0.00000  Uiso   1.00
C194   C     0.52294   0.41169   0.17331   0.00000  Uiso   1.00
C195   C     0.75019   0.35509   0.16679   0.00000  Uiso   1.00
C196   C     0.74973   0.64491   0.16681   0.00000  Uiso   1.00
H197   H     0.96064   0.37687   0.17036   0.00000  Uiso   1.00
H198   H     0.53919   0.62366   0.15897   0.00000  Uiso   1.00
H199   H     0.96048   0.62395   0.16340   0.00000  Uiso   1.00
H200   H     0.53932   0.37668   0.17543   0.00000  Uiso   1.00
C201   C     0.88115   0.59112   0.17414   0.00000  Uiso   1.00
O202   O     0.88690   0.61900   0.21429   0.00000  Uiso   1.00
O203   O     0.85060   0.60242   0.13146   0.00000  Uiso   1.00
H204   H     0.83531   0.63468   0.13866   0.00000  Uiso   1.00
C205   C     0.61868   0.40981   0.18052   0.00000  Uiso   1.00
O206   O     0.61386   0.38450   0.22316   0.00000  Uiso   1.00
O207   O     0.64802   0.39570   0.13748   0.00000  Uiso   1.00
H208   H     0.66300   0.36360   0.14641   0.00000  Uiso   1.00
C209   C     0.88333   0.41040   0.14646   0.00000  Uiso   1.00
O210   O     0.85339   0.39525   0.17670   0.00000  Uiso   1.00
O211   O     0.89541   0.38554   0.09657   0.00000  Uiso   1.00
H212   H     0.87587   0.35655   0.08822   0.00000  Uiso   1.00
C213   C     0.61751   0.58942   0.14426   0.00000  Uiso   1.00
O214   O     0.64604   0.60517   0.17623   0.00000  Uiso   1.00
O215   O     0.60790   0.61319   0.09282   0.00000  Uiso   1.00
H216   H     0.62771   0.64221   0.08544   0.00000  Uiso   1.00
O217   O     0.25000   0.76280   0.21425   0.00000  Uiso   1.00
O218   O     0.25000   0.90387   0.11908   0.00000  Uiso   1.00
O219   O     0.25000   0.90387   0.21425   0.00000  Uiso   1.00
O220   O     0.25000   0.76280   0.11908   0.00000  Uiso   1.00
C221   C     0.25031   0.74000   0.16669   0.00000  Uiso   1.00
C222   C     0.24961   0.92667   0.16670   0.00000  Uiso   1.00
O223   O     0.18513   0.83333   0.21427   0.00000  Uiso   1.00
O224   O     0.31487   0.83333   0.11907   0.00000  Uiso   1.00
O225   O     0.31487   0.83333   0.21427   0.00000  Uiso   1.00
O226   O     0.18513   0.83333   0.11907   0.00000  Uiso   1.00
C227   C     0.16435   0.83346   0.16669   0.00000  Uiso   1.00
C228   C     0.33565   0.83329   0.16661   0.00000  Uiso   1.00
Cu229  Cu    0.25000   0.83333   0.22303   0.00000  Uiso   1.00
Cu230  Cu    0.25000   0.83333   0.11031   0.00000  Uiso   1.00
N231   N     0.25000   0.83333   0.02561   0.00000  Uiso   1.00
N232   N     0.25000   0.83333   0.30773   0.00000  Uiso   1.00
C233   C     0.40659   0.87824   0.17050   0.00000  Uiso   1.00
C234   C     0.09333   0.78918   0.17414   0.00000  Uiso   1.00
C235   C     0.40711   0.78914   0.16172   0.00000  Uiso   1.00
C236   C     0.09305   0.87771   0.15930   0.00000  Uiso   1.00
C237   C     0.38390   0.83354   0.16649   0.00000  Uiso   1.00
C238   C     0.11611   0.83348   0.16683   0.00000  Uiso   1.00
C239   C     0.45347   0.78902   0.16646   0.00000  Uiso   1.00
C240   C     0.04659   0.87813   0.16301   0.00000  Uiso   1.00
C241   C     0.45319   0.87846   0.16847   0.00000  Uiso   1.00
C242   C     0.04676   0.78895   0.17247   0.00000  Uiso   1.00
C243   C     0.47661   0.83372   0.16827   0.00000  Uiso   1.00
C244   C     0.02340   0.83363   0.16836   0.00000  Uiso   1.00
C245   C     0.47724   0.74505   0.16962   0.00000  Uiso   1.00
C246   C     0.02272   0.92213   0.16174   0.00000  Uiso   1.00
C247   C     0.47697   0.92233   0.16508   0.00000  Uiso   1.00
C248   C     0.02294   0.74502   0.17331   0.00000  Uiso   1.00
C249   C     0.25019   0.68843   0.16679   0.00000  Uiso   1.00
C250   C     0.24973   0.97824   0.16681   0.00000  Uiso   1.00
H251   H     0.46064   0.71020   0.17036   0.00000  Uiso   1.00
H252   H     0.03919   0.95699   0.15897   0.00000  Uiso   1.00
H253   H     0.46048   0.95728   0.16340   0.00000  Uiso   1.00
H254   H     0.03932   0.71002   0.17543   0.00000  Uiso   1.00
C255   C     0.38115   0.92445   0.17414   0.00000  Uiso   1.00
O256   O     0.38690   0.95233   0.21429   0.00000  Uiso   1.00
O257   O     0.35060   0.93576   0.13146   0.00000  Uiso   1.00
H258   H     0.33531   0.96801   0.13866   0.00000  Uiso   1.00
C259   C     0.11868   0.74314   0.18052   0.00000  Uiso   1.00
O260   O     0.11386   0.71784   0.22316   0.00000  Uiso   1.00
O261   O     0.14802   0.72903   0.13748   0.00000  Uiso   1.00
H262   H     0.16300   0.69693   0.14641   0.00000  Uiso   1.00
C263   C     0.38333   0.74373   0.14646   0.00000  Uiso   1.00
O264   O     0.35339   0.72858   0.17670   0.00000  Uiso   1.00
O265   O     0.39541   0.71887   0.09657   0.00000  Uiso   1.00
H266   H     0.37587   0.68988   0.08822   0.00000  Uiso   1.00
C267   C     0.11751   0.92275   0.14426   0.00000  Uiso   1.00
O268   O     0.14604   0.93851   0.17623   0.00000  Uiso   1.00
O269   O     0.10790   0.94652   0.09282   0.00000  Uiso   1.00
H270   H     0.12771   0.97554   0.08544   0.00000  Uiso   1.00
O271   O     0.75000   0.76280   0.21425   0.00000  Uiso   1.00
O272   O     0.75000   0.90387   0.11908   0.00000  Uiso   1.00
O273   O     0.75000   0.90387   0.21425   0.00000  Uiso   1.00
O274   O     0.75000   0.76280   0.11908   0.00000  Uiso   1.00
C275   C     0.75031   0.74000   0.16669   0.00000  Uiso   1.00
C276   C     0.74961   0.92667   0.16670   0.00000  Uiso   1.00
O277   O     0.68513   0.83333   0.21427   0.00000  Uiso   1.00
O278   O     0.81487   0.83333   0.11907   0.00000  Uiso   1.00
O279   O     0.81487   0.83333   0.21427   0.00000  Uiso   1.00
O280   O     0.68513   0.83333   0.11907   0.00000  Uiso   1.00
C281   C     0.66435   0.83346   0.16669   0.00000  Uiso   1.00
C282   C     0.83565   0.83329   0.16661   0.00000  Uiso   1.00
Cu283  Cu    0.75000   0.83333   0.22303   0.00000  Uiso   1.00
Cu284  Cu    0.75000   0.83333   0.11031   0.00000  Uiso   1.00
N285   N     0.75000   0.83333   0.02561   0.00000  Uiso   1.00
N286   N     0.75000   0.83333   0.30773   0.00000  Uiso   1.00
C287   C     0.90659   0.87824   0.17050   0.00000  Uiso   1.00
C288   C     0.59333   0.78918   0.17414   0.00000  Uiso   1.00
C289   C     0.90711   0.78914   0.16172   0.00000  Uiso   1.00
C290   C     0.59305   0.87771   0.15930   0.00000  Uiso   1.00
C291   C     0.88390   0.83354   0.16649   0.00000  Uiso   1.00
C292   C     0.61611   0.83348   0.16683   0.00000  Uiso   1.00
C293   C     0.95347   0.78902   0.16646   0.00000  Uiso   1.00
C294   C     0.54659   0.87813   0.16301   0.00000  Uiso   1.00
C295   C     0.95319   0.87846   0.16847   0.00000  Uiso   1.00
C296   C     0.54676   0.78895   0.17247   0.00000  Uiso   1.00
C297   C     0.97661   0.83372   0.16827   0.00000  Uiso   1.00
C298   C     0.52340   0.83363   0.16836   0.00000  Uiso   1.00
C299   C     0.97724   0.74505   0.16962   0.00000  Uiso   1.00
C300   C     0.52272   0.92213   0.16174   0.00000  Uiso   1.00
C301   C     0.97697   0.92233   0.16508   0.00000  Uiso   1.00
C302   C     0.52294   0.74502   0.17331   0.00000  Uiso   1.00
C303   C     0.75019   0.68843   0.16679   0.00000  Uiso   1.00
C304   C     0.74973   0.97824   0.16681   0.00000  Uiso   1.00
H305   H     0.96064   0.71020   0.17036   0.00000  Uiso   1.00
H306   H     0.53919   0.95699   0.15897   0.00000  Uiso   1.00
H307   H     0.96048   0.95728   0.16340   0.00000  Uiso   1.00
H308   H     0.53932   0.71002   0.17543   0.00000  Uiso   1.00
C309   C     0.88115   0.92445   0.17414   0.00000  Uiso   1.00
O310   O     0.88690   0.95233   0.21429   0.00000  Uiso   1.00
O311   O     0.85060   0.93576   0.13146   0.00000  Uiso   1.00
H312   H     0.83531   0.96801   0.13866   0.00000  Uiso   1.00
C313   C     0.61868   0.74314   0.18052   0.00000  Uiso   1.00
O314   O     0.61386   0.71784   0.22316   0.00000  Uiso   1.00
O315   O     0.64802   0.72903   0.13748   0.00000  Uiso   1.00
H316   H     0.66300   0.69693   0.14641   0.00000  Uiso   1.00
C317   C     0.88333   0.74373   0.14646   0.00000  Uiso   1.00
O318   O     0.85339   0.72858   0.17670   0.00000  Uiso   1.00
O319   O     0.89541   0.71887   0.09657   0.00000  Uiso   1.00
H320   H     0.87587   0.68988   0.08822   0.00000  Uiso   1.00
C321   C     0.61751   0.92275   0.14426   0.00000  Uiso   1.00
O322   O     0.64604   0.93851   0.17623   0.00000  Uiso   1.00
O323   O     0.60790   0.94652   0.09282   0.00000  Uiso   1.00
H324   H     0.62771   0.97554   0.08544   0.00000  Uiso   1.00
O325   O     0.25000   0.09613   0.54759   0.00000  Uiso   1.00
O326   O     0.25000   0.23720   0.45241   0.00000  Uiso   1.00
O327   O     0.25000   0.23720   0.54759   0.00000  Uiso   1.00
O328   O     0.25000   0.09613   0.45241   0.00000  Uiso   1.00
C329   C     0.25031   0.07333   0.50002   0.00000  Uiso   1.00
C330   C     0.24961   0.26000   0.50003   0.00000  Uiso   1.00
O331   O     0.18513   0.16667   0.54760   0.00000  Uiso   1.00
O332   O     0.31487   0.16667   0.45240   0.00000  Uiso   1.00
O333   O     0.31487   0.16667   0.54760   0.00000  Uiso   1.00
O334   O     0.18513   0.16667   0.45240   0.00000  Uiso   1.00
C335   C     0.16435   0.16679   0.50002   0.00000  Uiso   1.00
C336   C     0.33565   0.16663   0.49994   0.00000  Uiso   1.00
Cu337  Cu    0.25000   0.16667   0.55636   0.00000  Uiso   1.00
Cu338  Cu    0.25000   0.16667   0.44364   0.00000  Uiso   1.00
N339   N     0.25000   0.16667   0.35894   0.00000  Uiso   1.00
N340   N     0.25000   0.16667   0.64106   0.00000  Uiso   1.00
C341   C     0.40659   0.21157   0.50383   0.00000  Uiso   1.00
C342   C     0.09333   0.12251   0.50748   0.00000  Uiso   1.00
C343   C     0.40711   0.12247   0.49506   0.00000  Uiso   1.00
C344   C     0.09305   0.21105   0.49263   0.00000  Uiso   1.00
C345   C     0.38390   0.16687   0.49982   0.00000  Uiso   1.00
C346   C     0.11611   0.16681   0.50016   0.00000  Uiso   1.00
C347   C     0.45347   0.12235   0.49979   0.00000  Uiso   1.00
C348   C     0.04659   0.21146   0.49634   0.00000  Uiso   1.00
C349   C     0.45319   0.21180   0.50180   0.00000  Uiso   1.00
C350   C     0.04676   0.12229   0.50581   0.00000  Uiso   1.00
C351   C     0.47661   0.16705   0.50160   0.00000  Uiso   1.00
C352   C     0.02340   0.16696   0.50169   0.00000  Uiso   1.00
C353   C     0.47724   0.07839   0.50295   0.00000  Uiso   1.00
C354   C     0.02272   0.25547   0.49507   0.00000  Uiso   1.00
C355   C     0.47697   0.25566   0.49842   0.00000  Uiso   1.00
C356   C     0.02294   0.07835   0.50665   0.00000  Uiso   1.00
C357   C     0.25019   0.02176   0.50012   0.00000  Uiso   1.00
C358   C     0.24973   0.31158   0.50014   0.00000  Uiso   1.00
H359   H     0.46064   0.04354   0.50370   0.00000  Uiso   1.00
H360   H     0.03919   0.29032   0.49231   0.00000  Uiso   1.00
H361   H     0.46048   0.29061   0.49673   0.00000  Uiso   1.00
H362   H     0.03932   0.04335   0.50876   0.00000  Uiso   1.00
C363   C     0.38115   0.25779   0.50747   0.00000  Uiso   1.00
O364   O     0.38690   0.28567   0.54763   0.00000  Uiso   1.00
O365   O     0.35060   0.26909   0.46479   0.00000  Uiso   1.00
H366   H     0.33531   0.30135   0.47200   0.00000  Uiso   1.00
C367   C     0.11868   0.07647   0.51386   0.00000  Uiso   1.00
O368   O     0.11386   0.05117   0.55649   0.00000  Uiso   1.00
O369   O     0.14802   0.06237   0.47082   0.00000  Uiso   1.00
H370   H     0.16300   0.03026   0.47974   0.00000  Uiso   1.00
C371   C     0.38333   0.07706   0.47980   0.00000  Uiso   1.00
O372   O     0.35339   0.06191   0.51003   0.00000  Uiso   1.00
O373   O     0.39541   0.05221   0.42991   0.00000  Uiso   1.00
H374   H     0.37587   0.02321   0.42155   0.00000  Uiso   1.00
C375   C     0.11751   0.25609   0.47760   0.00000  Uiso   1.00
O376   O     0.14604   0.27184   0.50956   0.00000  Uiso   1.00
O377   O     0.10790   0.27986   0.42615   0.00000  Uiso   1.00
H378   H     0.12771   0.30888   0.41878   0.00000  Uiso   1.00
O379   O     0.75000   0.09613   0.54759   0.00000  Uiso   1.00
O380   O     0.75000   0.23720   0.45241   0.00000  Uiso   1.00
O381   O     0.75000   0.23720   0.54759   0.00000  Uiso   1.00
O382   O     0.75000   0.09613   0.45241   0.00000  Uiso   1.00
C383   C     0.75031   0.07333   0.50002   0.00000  Uiso   1.00
C384   C     0.74961   0.26000   0.50003   0.00000  Uiso   1.00
O385   O     0.68513   0.16667   0.54760   0.00000  Uiso   1.00
O386   O     0.81487   0.16667   0.45240   0.00000  Uiso   1.00
O387   O     0.81487   0.16667   0.54760   0.00000  Uiso   1.00
O388   O     0.68513   0.16667   0.45240   0.00000  Uiso   1.00
C389   C     0.66435   0.16679   0.50002   0.00000  Uiso   1.00
C390   C     0.83565   0.16663   0.49994   0.00000  Uiso   1.00
Cu391  Cu    0.75000   0.16667   0.55636   0.00000  Uiso   1.00
Cu392  Cu    0.75000   0.16667   0.44364   0.00000  Uiso   1.00
N393   N     0.75000   0.16667   0.35894   0.00000  Uiso   1.00
N394   N     0.75000   0.16667   0.64106   0.00000  Uiso   1.00
C395   C     0.90659   0.21157   0.50383   0.00000  Uiso   1.00
C396   C     0.59333   0.12251   0.50748   0.00000  Uiso   1.00
C397   C     0.90711   0.12247   0.49506   0.00000  Uiso   1.00
C398   C     0.59305   0.21105   0.49263   0.00000  Uiso   1.00
C399   C     0.88390   0.16687   0.49982   0.00000  Uiso   1.00
C400   C     0.61611   0.16681   0.50016   0.00000  Uiso   1.00
C401   C     0.95347   0.12235   0.49979   0.00000  Uiso   1.00
C402   C     0.54659   0.21146   0.49634   0.00000  Uiso   1.00
C403   C     0.95319   0.21180   0.50180   0.00000  Uiso   1.00
C404   C     0.54676   0.12229   0.50581   0.00000  Uiso   1.00
C405   C     0.97661   0.16705   0.50160   0.00000  Uiso   1.00
C406   C     0.52340   0.16696   0.50169   0.00000  Uiso   1.00
C407   C     0.97724   0.07839   0.50295   0.00000  Uiso   1.00
C408   C     0.52272   0.25547   0.49507   0.00000  Uiso   1.00
C409   C     0.97697   0.25566   0.49842   0.00000  Uiso   1.00
C410   C     0.52294   0.07835   0.50665   0.00000  Uiso   1.00
C411   C     0.75019   0.02176   0.50012   0.00000  Uiso   1.00
C412   C     0.74973   0.31158   0.50014   0.00000  Uiso   1.00
H413   H     0.96064   0.04354   0.50370   0.00000  Uiso   1.00
H414   H     0.53919   0.29032   0.49231   0.00000  Uiso   1.00
H415   H     0.96048   0.29061   0.49673   0.00000  Uiso   1.00
H416   H     0.53932   0.04335   0.50876   0.00000  Uiso   1.00
C417   C     0.88115   0.25779   0.50747   0.00000  Uiso   1.00
O418   O     0.88690   0.28567   0.54763   0.00000  Uiso   1.00
O419   O     0.85060   0.26909   0.46479   0.00000  Uiso   1.00
H420   H     0.83531   0.30135   0.47200   0.00000  Uiso   1.00
C421   C     0.61868   0.07647   0.51386   0.00000  Uiso   1.00
O422   O     0.61386   0.05117   0.55649   0.00000  Uiso   1.00
O423   O     0.64802   0.06237   0.47082   0.00000  Uiso   1.00
H424   H     0.66300   0.03026   0.47974   0.00000  Uiso   1.00
C425   C     0.88333   0.07706   0.47980   0.00000  Uiso   1.00
O426   O     0.85339   0.06191   0.51003   0.00000  Uiso   1.00
O427   O     0.89541   0.05221   0.42991   0.00000  Uiso   1.00
H428   H     0.87587   0.02321   0.42155   0.00000  Uiso   1.00
C429   C     0.61751   0.25609   0.47760   0.00000  Uiso   1.00
O430   O     0.64604   0.27184   0.50956   0.00000  Uiso   1.00
O431   O     0.60790   0.27986   0.42615   0.00000  Uiso   1.00
H432   H     0.62771   0.30888   0.41878   0.00000  Uiso   1.00
O433   O     0.25000   0.42946   0.54759   0.00000  Uiso   1.00
O434   O     0.25000   0.57054   0.45241   0.00000  Uiso   1.00
O435   O     0.25000   0.57054   0.54759   0.00000  Uiso   1.00
O436   O     0.25000   0.42946   0.45241   0.00000  Uiso   1.00
C437   C     0.25031   0.40666   0.50002   0.00000  Uiso   1.00
C438   C     0.24961   0.59334   0.50003   0.00000  Uiso   1.00
O439   O     0.18513   0.50000   0.54760   0.00000  Uiso   1.00
O440   O     0.31487   0.50000   0.45240   0.00000  Uiso   1.00
O441   O     0.31487   0.50000   0.54760   0.00000  Uiso   1.00
O442   O     0.18513   0.50000   0.45240   0.00000  Uiso   1.00
C443   C     0.16435   0.50013   0.50002   0.00000  Uiso   1.00
C444   C     0.33565   0.49996   0.49994   0.00000  Uiso   1.00
Cu445  Cu    0.25000   0.50000   0.55636   0.00000  Uiso   1.00
Cu446  Cu    0.25000   0.50000   0.44364   0.00000  Uiso   1.00
N447   N     0.25000   0.50000   0.35894   0.00000  Uiso   1.00
N448   N     0.25000   0.50000   0.64106   0.00000  Uiso   1.00
C449   C     0.40659   0.54490   0.50383   0.00000  Uiso   1.00
C450   C     0.09333   0.45584   0.50748   0.00000  Uiso   1.00
C451   C     0.40711   0.45581   0.49506   0.00000  Uiso   1.00
C452   C     0.09305   0.54438   0.49263   0.00000  Uiso   1.00
C453   C     0.38390   0.50020   0.49982   0.00000  Uiso   1.00
C454   C     0.11611   0.50015   0.50016   0.00000  Uiso   1.00
C455   C     0.45347   0.45569   0.49979   0.00000  Uiso   1.00
C456   C     0.04659   0.54480   0.49634   0.00000  Uiso   1.00
C457   C     0.45319   0.54513   0.50180   0.00000  Uiso   1.00
C458   C     0.04676   0.45562   0.50581   0.00000  Uiso   1.00
C459   C     0.47661   0.50038   0.50160   0.00000  Uiso   1.00
C460   C     0.02340   0.50029   0.50169   0.00000  Uiso   1.00
C461   C     0.47724   0.41172   0.50295   0.00000  Uiso   1.00
C462   C     0.02272   0.58880   0.49507   0.00000  Uiso   1.00
C463   C     0.47697   0.58899   0.49842   0.00000  Uiso   1.00
C464   C     0.02294   0.41169   0.50665   0.00000  Uiso   1.00
C465   C     0.25019   0.35509   0.50012   0.00000  Uiso   1.00
C466   C     0.24973   0.64491   0.50014   0.00000  Uiso   1.00
H467   H     0.46064   0.37687   0.50370   0.00000  Uiso   1.00
H468   H     0.03919   0.62366   0.49231   0.00000  Uiso   1.00
H469   H     0.46048   0.62395   0.49673   0.00000  Uiso   1.00
H470   H     0.03932   0.37668   0.50876   0.00000  Uiso   1.00
C471   C     0.38115   0.59112   0.50747   0.00000  Uiso   1.00
O472   O     0.38690   0.61900   0.54763   0.00000  Uiso   1.00
O473   O     0.35060   0.60242   0.46479   0.00000  Uiso   1.00
H474   H     0.33531   0.63468   0.47200   0.00000  Uiso   1.00
C475   C     0.11868   0.40981   0.51386   0.00000  Uiso   1.00
O476   O     0.11386   0.38450   0.55649   0.00000  Uiso   1.00
O477   O     0.14802   0.39570   0.47082   0.00000  Uiso   1.00
H478   H     0.16300   0.36360   0.47974   0.00000  Uiso   1.00
C479   C     0.38333   0.41040   0.47980   0.00000  Uiso   1.00
O480   O     0.35339   0.39525   0.51003   0.00000  Uiso   1.00
O481   O     0.39541   0.38554   0.42991   0.00000  Uiso   1.00
H482   H     0.37587   0.35655   0.42155   0.00000  Uiso   1.00
C483   C     0.11751   0.58942   0.47760   0.00000  Uiso   1.00
O484   O     0.14604   0.60517   0.50956   0.00000  Uiso   1.00
O485   O     0.10790   0.61319   0.42615   0.00000  Uiso   1.00
H486   H     0.12771   0.64221   0.41878   0.00000  Uiso   1.00
O487   O     0.75000   0.42946   0.54759   0.00000  Uiso   1.00
O488   O     0.75000   0.57054   0.45241   0.00000  Uiso   1.00
O489   O     0.75000   0.57054   0.54759   0.00000  Uiso   1.00
O490   O     0.75000   0.42946   0.45241   0.00000  Uiso   1.00
C491   C     0.75031   0.40666   0.50002   0.00000  Uiso   1.00
C492   C     0.74961   0.59334   0.50003   0.00000  Uiso   1.00
O493   O     0.68513   0.50000   0.54760   0.00000  Uiso   1.00
O494   O     0.81487   0.50000   0.45240   0.00000  Uiso   1.00
O495   O     0.81487   0.50000   0.54760   0.00000  Uiso   1.00
O496   O     0.68513   0.50000   0.45240   0.00000  Uiso   1.00
C497   C     0.66435   0.50013   0.50002   0.00000  Uiso   1.00
C498   C     0.83565   0.49996   0.49994   0.00000  Uiso   1.00
Cu499  Cu    0.75000   0.50000   0.55636   0.00000  Uiso   1.00
Cu500  Cu    0.75000   0.50000   0.44364   0.00000  Uiso   1.00
N501   N     0.75000   0.50000   0.35894   0.00000  Uiso   1.00
N502   N     0.75000   0.50000   0.64106   0.00000  Uiso   1.00
C503   C     0.90659   0.54490   0.50383   0.00000  Uiso   1.00
C504   C     0.59333   0.45584   0.50748   0.00000  Uiso   1.00
C505   C     0.90711   0.45581   0.49506   0.00000  Uiso   1.00
C506   C     0.59305   0.54438   0.49263   0.00000  Uiso   1.00
C507   C     0.88390   0.50020   0.49982   0.00000  Uiso   1.00
C508   C     0.61611   0.50015   0.50016   0.00000  Uiso   1.00
C509   C     0.95347   0.45569   0.49979   0.00000  Uiso   1.00
C510   C     0.54659   0.54480   0.49634   0.00000  Uiso   1.00
C511   C     0.95319   0.54513   0.50180   0.00000  Uiso   1.00
C512   C     0.54676   0.45562   0.50581   0.00000  Uiso   1.00
C513   C     0.97661   0.50038   0.50160   0.00000  Uiso   1.00
C514   C     0.52340   0.50029   0.50169   0.00000  Uiso   1.00
C515   C     0.97724   0.41172   0.50295   0.00000  Uiso   1.00
C516   C     0.52272   0.58880   0.49507   0.00000  Uiso   1.00
C517   C     0.97697   0.58899   0.49842   0.00000  Uiso   1.00
C518   C     0.52294   0.41169   0.50665   0.00000  Uiso   1.00
C519   C     0.75019   0.35509   0.50012   0.00000  Uiso   1.00
C520   C     0.74973   0.64491   0.50014   0.00000  Uiso   1.00
H521   H     0.96064   0.37687   0.50370   0.00000  Uiso   1.00
H522   H     0.53919   0.62366   0.49231   0.00000  Uiso   1.00
H523   H     0.96048   0.62395   0.49673   0.00000  Uiso   1.00
H524   H     0.53932   0.37668   0.50876   0.00000  Uiso   1.00
C525   C     0.88115   0.59112   0.50747   0.00000  Uiso   1.00
O526   O     0.88690   0.61900   0.54763   0.00000  Uiso   1.00
O527   O     0.85060   0.60242   0.46479   0.00000  Uiso   1.00
H528   H     0.83531   0.63468   0.47200   0.00000  Uiso   1.00
C529   C     0.61868   0.40981   0.51386   0.00000  Uiso   1.00
O530   O     0.61386   0.38450   0.55649   0.00000  Uiso   1.00
O531   O     0.64802   0.39570   0.47082   0.00000  Uiso   1.00
H532   H     0.66300   0.36360   0.47974   0.00000  Uiso   1.00
C533   C     0.88333   0.41040   0.47980   0.00000  Uiso   1.00
O534   O     0.85339   0.39525   0.51003   0.00000  Uiso   1.00
O535   O     0.89541   0.38554   0.42991   0.00000  Uiso   1.00
H536   H     0.87587   0.35655   0.42155   0.00000  Uiso   1.00
C537   C     0.61751   0.58942   0.47760   0.00000  Uiso   1.00
O538   O     0.64604   0.60517   0.50956   0.00000  Uiso   1.00
O539   O     0.60790   0.61319   0.42615   0.00000  Uiso   1.00
H540   H     0.62771   0.64221   0.41878   0.00000  Uiso   1.00
O541   O     0.25000   0.76280   0.54759   0.00000  Uiso   1.00
O542   O     0.25000   0.90387   0.45241   0.00000  Uiso   1.00
O543   O     0.25000   0.90387   0.54759   0.00000  Uiso   1.00
O544   O     0.25000   0.76280   0.45241   0.00000  Uiso   1.00
C545   C     0.25031   0.74000   0.50002   0.00000  Uiso   1.00
C546   C     0.24961   0.92667   0.50003   0.00000  Uiso   1.00
O547   O     0.18513   0.83333   0.54760   0.00000  Uiso   1.00
O548   O     0.31487   0.83333   0.45240   0.00000  Uiso   1.00
O549   O     0.31487   0.83333   0.54760   0.00000  Uiso   1.00
O550   O     0.18513   0.83333   0.45240   0.00000  Uiso   1.00
C551   C     0.16435   0.83346   0.50002   0.00000  Uiso   1.00
C552   C     0.33565   0.83329   0.49994   0.00000  Uiso   1.00
Cu553  Cu    0.25000   0.83333   0.55636   0.00000  Uiso   1.00
Cu554  Cu    0.25000   0.83333   0.44364   0.00000  Uiso   1.00
N555   N     0.25000   0.83333   0.35894   0.00000  Uiso   1.00
N556   N     0.25000   0.83333   0.64106   0.00000  Uiso   1.00
C557   C     0.40659   0.87824   0.50383   0.00000  Uiso   1.00
C558   C     0.09333   0.78918   0.50748   0.00000  Uiso   1.00
C559   C     0.40711   0.78914   0.49506   0.00000  Uiso   1.00
C560   C     0.09305   0.87771   0.49263   0.00000  Uiso   1.00
C561   C     0.38390   0.83354   0.49982   0.00000  Uiso   1.00
C562   C     0.11611   0.83348   0.50016   0.00000  Uiso   1.00
C563   C     0.45347   0.78902   0.49979   0.00000  Uiso   1.00
C564   C     0.04659   0.87813   0.49634   0.00000  Uiso   1.00
C565   C     0.45319   0.87846   0.50180   0.00000  Uiso   1.00
C566   C     0.04676   0.78895   0.50581   0.00000  Uiso   1.00
C567   C     0.47661   0.83372   0.50160   0.00000  Uiso   1.00
C568   C     0.02340   0.83363   0.50169   0.00000  Uiso   1.00
C569   C     0.47724   0.74505   0.50295   0.00000  Uiso   1.00
C570   C     0.02272   0.92213   0.49507   0.00000  Uiso   1.00
C571   C     0.47697   0.92233   0.49842   0.00000  Uiso   1.00
C572   C     0.02294   0.74502   0.50665   0.00000  Uiso   1.00
C573   C     0.25019   0.68843   0.50012   0.00000  Uiso   1.00
C574   C     0.24973   0.97824   0.50014   0.00000  Uiso   1.00
H575   H     0.46064   0.71020   0.50370   0.00000  Uiso   1.00
H576   H     0.03919   0.95699   0.49231   0.00000  Uiso   1.00
H577   H     0.46048   0.95728   0.49673   0.00000  Uiso   1.00
H578   H     0.03932   0.71002   0.50876   0.00000  Uiso   1.00
C579   C     0.38115   0.92445   0.50747   0.00000  Uiso   1.00
O580   O     0.38690   0.95233   0.54763   0.00000  Uiso   1.00
O581   O     0.35060   0.93576   0.46479   0.00000  Uiso   1.00
H582   H     0.33531   0.96801   0.47200   0.00000  Uiso   1.00
C583   C     0.11868   0.74314   0.51386   0.00000  Uiso   1.00
O584   O     0.11386   0.71784   0.55649   0.00000  Uiso   1.00
O585   O     0.14802   0.72903   0.47082   0.00000  Uiso   1.00
H586   H     0.16300   0.69693   0.47974   0.00000  Uiso   1.00
C587   C     0.38333   0.74373   0.47980   0.00000  Uiso   1.00
O588   O     0.35339   0.72858   0.51003   0.00000  Uiso   1.00
O589   O     0.39541   0.71887   0.42991   0.00000  Uiso   1.00
H590   H     0.37587   0.68988   0.42155   0.00000  Uiso   1.00
C591   C     0.11751   0.92275   0.47760   0.00000  Uiso   1.00
O592   O     0.14604   0.93851   0.50956   0.00000  Uiso   1.00
O593   O     0.10790   0.94652   0.42615   0.00000  Uiso   1.00
H594   H     0.12771   0.97554   0.41878   0.00000  Uiso   1.00
O595   O     0.75000   0.76280   0.54759   0.00000  Uiso   1.00
O596   O     0.75000   0.90387   0.45241   0.00000  Uiso   1.00
O597   O     0.75000   0.90387   0.54759   0.00000  Uiso   1.00
O598   O     0.75000   0.76280   0.45241   0.00000  Uiso   1.00
C599   C     0.75031   0.74000   0.50002   0.00000  Uiso   1.00
C600   C     0.74961   0.92667   0.50003   0.00000  Uiso   1.00
O601   O     0.68513   0.83333   0.54760   0.00000  Uiso   1.00
O602   O     0.81487   0.83333   0.45240   0.00000  Uiso   1.00
O603   O     0.81487   0.83333   0.54760   0.00000  Uiso   1.00
O604   O     0.68513   0.83333   0.45240   0.00000  Uiso   1.00
C605   C     0.66435   0.83346   0.50002   0.00000  Uiso   1.00
C606   C     0.83565   0.83329   0.49994   0.00000  Uiso   1.00
Cu607  Cu    0.75000   0.83333   0.55636   0.00000  Uiso   1.00
Cu608  Cu    0.75000   0.83333   0.44364   0.00000  Uiso   1.00
N609   N     0.75000   0.83333   0.35894   0.00000  Uiso   1.00
N610   N     0.75000   0.83333   0.64106   0.00000  Uiso   1.00
C611   C     0.90659   0.87824   0.50383   0.00000  Uiso   1.00
C612   C     0.59333   0.78918   0.50748   0.00000  Uiso   1.00
C613   C     0.90711   0.78914   0.49506   0.00000  Uiso   1.00
C614   C     0.59305   0.87771   0.49263   0.00000  Uiso   1.00
C615   C     0.88390   0.83354   0.49982   0.00000  Uiso   1.00
C616   C     0.61611   0.83348   0.50016   0.00000  Uiso   1.00
C617   C     0.95347   0.78902   0.49979   0.00000  Uiso   1.00
C618   C     0.54659   0.87813   0.49634   0.00000  Uiso   1.00
C619   C     0.95319   0.87846   0.50180   0.00000  Uiso   1.00
C620   C     0.54676   0.78895   0.50581   0.00000  Uiso   1.00
C621   C     0.97661   0.83372   0.50160   0.00000  Uiso   1.00
C622   C     0.52340   0.83363   0.50169   0.00000  Uiso   1.00
C623   C     0.97724   0.74505   0.50295   0.00000  Uiso   1.00
C624   C     0.52272   0.92213   0.49507   0.00000  Uiso   1.00
C625   C     0.97697   0.92233   0.49842   0.00000  Uiso   1.00
C626   C     0.52294   0.74502   0.50665   0.00000  Uiso   1.00
C627   C     0.75019   0.68843   0.50012   0.00000  Uiso   1.00
C628   C     0.74973   0.97824   0.50014   0.00000  Uiso   1.00
H629   H     0.96064   0.71020   0.50370   0.00000  Uiso   1.00
H630   H     0.53919   0.95699   0.49231   0.00000  Uiso   1.00
H631   H     0.96048   0.95728   0.49673   0.00000  Uiso   1.00
H632   H     0.53932   0.71002   0.50876   0.00000  Uiso   1.00
C633   C     0.88115   0.92445   0.50747   0.00000  Uiso   1.00
O634   O     0.88690   0.95233   0.54763   0.00000  Uiso   1.00
O635   O     0.85060   0.93576   0.46479   0.00000  Uiso   1.00
H636   H     0.83531   0.96801   0.47200   0.00000  Uiso   1.00
C637   C     0.61868   0.74314   0.51386   0.00000  Uiso   1.00
O638   O     0.61386   0.71784   0.55649   0.00000  Uiso   1.00
O639   O     0.64802   0.72903   0.47082   0.00000  Uiso   1.00
H640   H     0.66300   0.69693   0.47974   0.00000  Uiso   1.00
C641   C     0.88333   0.74373   0.47980   0.00000  Uiso   1.00
O642   O     0.85339   0.72858   0.51003   0.00000  Uiso   1.00
O643   O     0.89541   0.71887   0.42991   0.00000  Uiso   1.00
H644   H     0.87587   0.68988   0.42155   0.00000  Uiso   1.00
C645   C     0.61751   0.92275   0.47760   0.00000  Uiso   1.00
O646   O     0.64604   0.93851   0.50956   0.00000  Uiso   1.00
O647   O     0.60790   0.94652   0.42615   0.00000  Uiso   1.00
H648   H     0.62771   0.97554   0.41878   0.00000  Uiso   1.00
O649   O     0.25000   0.09613   0.88092   0.00000  Uiso   1.00
O650   O     0.25000   0.23720   0.78575   0.00000  Uiso   1.00
O651   O     0.25000   0.23720   0.88092   0.00000  Uiso   1.00
O652   O     0.25000   0.09613   0.78575   0.00000  Uiso   1.00
C653   C     0.25031   0.07333   0.83335   0.00000  Uiso   1.00
C654   C     0.24961   0.26000   0.83337   0.00000  Uiso   1.00
O655   O     0.18513   0.16667   0.88093   0.00000  Uiso   1.00
O656   O     0.31487   0.16667   0.78573   0.00000  Uiso   1.00
O657   O     0.31487   0.16667   0.88093   0.00000  Uiso   1.00
O658   O     0.18513   0.16667   0.78573   0.00000  Uiso   1.00
C659   C     0.16435   0.16679   0.83336   0.00000  Uiso   1.00
C660   C     0.33565   0.16663   0.83328   0.00000  Uiso   1.00
Cu661  Cu    0.25000   0.16667   0.88969   0.00000  Uiso   1.00
Cu662  Cu    0.25000   0.16667   0.77697   0.00000  Uiso   1.00
N663   N     0.25000   0.16667   0.69227   0.00000  Uiso   1.00
N664   N     0.25000   0.16667   0.97439   0.00000  Uiso   1.00
C665   C     0.40659   0.21157   0.83717   0.00000  Uiso   1.00
C666   C     0.09333   0.12251   0.84081   0.00000  Uiso   1.00
C667   C     0.40711   0.12247   0.82839   0.00000  Uiso   1.00
C668   C     0.09305   0.21105   0.82597   0.00000  Uiso   1.00
C669   C     0.38390   0.16687   0.83316   0.00000  Uiso   1.00
C670   C     0.11611   0.16681   0.83350   0.00000  Uiso   1.00
C671   C     0.45347   0.12235   0.83313   0.00000  Uiso   1.00
C672   C     0.04659   0.21146   0.82968   0.00000  Uiso   1.00
C673   C     0.45319   0.21180   0.83514   0.00000  Uiso   1.00
C674   C     0.04676   0.12229   0.83914   0.00000  Uiso   1.00
C675   C     0.47661   0.16705   0.83494   0.00000  Uiso   1.00
C676   C     0.02340   0.16696   0.83503   0.00000  Uiso   1.00
C677   C     0.47724   0.07839   0.83628   0.00000  Uiso   1.00
C678   C     0.02272   0.25547   0.82840   0.00000  Uiso   1.00
C679   C     0.47697   0.25566   0.83175   0.00000  Uiso   1.00
C680   C     0.02294   0.07835   0.83998   0.00000  Uiso   1.00
C681   C     0.25019   0.02176   0.83345   0.00000  Uiso   1.00
C682   C     0.24973   0.31158   0.83348   0.00000  Uiso   1.00
H683   H     0.46064   0.04354   0.83703   0.00000  Uiso   1.00
H684   H     0.03919   0.29032   0.82564   0.00000  Uiso   1.00
H685   H     0.46048   0.29061   0.83006   0.00000  Uiso   1.00
H686   H     0.03932   0.04335   0.84210   0.00000  Uiso   1.00
C687   C     0.38115   0.25779   0.84080   0.00000  Uiso   1.00
O688   O     0.38690   0.28567   0.88096   0.00000  Uiso   1.00
O689   O     0.35060   0.26909   0.79812   0.00000  Uiso   1.00
H690   H     0.33531   0.30135   0.80533   0.00000  Uiso   1.00
C691   C     0.11868   0.07647   0.84719   0.00000  Uiso   1.00
O692   O     0.11386   0.05117   0.88983   0.00000  Uiso   1.00
O693   O     0.14802   0.06237   0.80415   0.00000  Uiso   1.00
H694   H     0.16300   0.03026   0.81308   0.00000  Uiso   1.00
C695   C     0.38333   0.07706   0.81313   0.00000  Uiso   1.00
O696   O     0.35339   0.06191   0.84336   0.00000  Uiso   1.00
O697   O     0.39541   0.05221   0.76324   0.00000  Uiso   1.00
H698   H     0.37587   0.02321   0.75489   0.00000  Uiso   1.00
C699   C     0.11751   0.25609   0.81093   0.00000  Uiso   1.00
O700   O     0.14604   0.27184   0.84290   0.00000  Uiso   1.00
O701   O     0.10790   0.27986   0.75949   0.00000  Uiso   1.00
H702   H     0.12771   0.30888   0.75211   0.00000  Uiso   1.00
O703   O     0.75000   0.09613   0.88092   0.00000  Uiso   1.00
O704   O     0.75000   0.23720   0.78575   0.00000  Uiso   1.00
O705   O     0.75000   0.23720   0.88092   0.00000  Uiso   1.00
O706   O     0.75000   0.09613   0.78575   0.00000  Uiso   1.00
C707   C     0.75031   0.07333   0.83335   0.00000  Uiso   1.00
C708   C     0.74961   0.26000   0.83337   0.00000  Uiso   1.00
O709   O     0.68513   0.16667   0.88093   0.00000  Uiso   1.00
O710   O     0.81487   0.16667   0.78573   0.00000  Uiso   1.00
O711   O     0.81487   0.16667   0.88093   0.00000  Uiso   1.00
O712   O     0.68513   0.16667   0.78573   0.00000  Uiso   1.00
C713   C     0.66435   0.16679   0.83336   0.00000  Uiso   1.00
C714   C     0.83565   0.16663   0.83328   0.00000  Uiso   1.00
Cu715  Cu    0.75000   0.16667   0.88969   0.00000  Uiso   1.00
Cu716  Cu    0.75000   0.16667   0.77697   0.00000  Uiso   1.00
N717   N     0.75000   0.16667   0.69227   0.00000  Uiso   1.00
N718   N     0.75000   0.16667   0.97439   0.00000  Uiso   1.00
C719   C     0.90659   0.21157   0.83717   0.00000  Uiso   1.00
C720   C     0.59333   0.12251   0.84081   0.00000  Uiso   1.00
C721   C     0.90711   0.12247   0.82839   0.00000  Uiso   1.00
C722   C     0.59305   0.21105   0.82597   0.00000  Uiso   1.00
C723   C     0.88390   0.16687   0.83316   0.00000  Uiso   1.00
C724   C     0.61611   0.16681   0.83350   0.00000  Uiso   1.00
C725   C     0.95347   0.12235   0.83313   0.00000  Uiso   1.00
C726   C     0.54659   0.21146   0.82968   0.00000  Uiso   1.00
C727   C     0.95319   0.21180   0.83514   0.00000  Uiso   1.00
C728   C     0.54676   0.12229   0.83914   0.00000  Uiso   1.00
C729   C     0.97661   0.16705   0.83494   0.00000  Uiso   1.00
C730   C     0.52340   0.16696   0.83503   0.00000  Uiso   1.00
C731   C     0.97724   0.07839   0.83628   0.00000  Uiso   1.00
C732   C     0.52272   0.25547   0.82840   0.00000  Uiso   1.00
C733   C     0.97697   0.25566   0.83175   0.00000  Uiso   1.00
C734   C     0.52294   0.07835   0.83998   0.00000  Uiso   1.00
C735   C     0.75019   0.02176   0.83345   0.00000  Uiso   1.00
C736   C     0.74973   0.31158   0.83348   0.00000  Uiso   1.00
H737   H     0.96064   0.04354   0.83703   0.00000  Uiso   1.00
H738   H     0.53919   0.29032   0.82564   0.00000  Uiso   1.00
H739   H     0.96048   0.29061   0.83006   0.00000  Uiso   1.00
H740   H     0.53932   0.04335   0.84210   0.00000  Uiso   1.00
C741   C     0.88115   0.25779   0.84080   0.00000  Uiso   1.00
O742   O     0.88690   0.28567   0.88096   0.00000  Uiso   1.00
O743   O     0.85060   0.26909   0.79812   0.00000  Uiso   1.00
H744   H     0.83531   0.30135   0.80533   0.00000  Uiso   1.00
C745   C     0.61868   0.07647   0.84719   0.00000  Uiso   1.00
O746   O     0.61386   0.05117   0.88983   0.00000  Uiso   1.00
O747   O     0.64802   0.06237   0.80415   0.00000  Uiso   1.00
H748   H     0.66300   0.03026   0.81308   0.00000  Uiso   1.00
C749   C     0.88333   0.07706   0.81313   0.00000  Uiso   1.00
O750   O     0.85339   0.06191   0.84336   0.00000  Uiso   1.00
O751   O     0.89541   0.05221   0.76324   0.00000  Uiso   1.00
H752   H     0.87587   0.02321   0.75489   0.00000  Uiso   1.00
C753   C     0.61751   0.25609   0.81093   0.00000  Uiso   1.00
O754   O     0.64604   0.27184   0.84290   0.00000  Uiso   1.00
O755   O     0.60790   0.27986   0.75949   0.00000  Uiso   1.00
H756   H     0.62771   0.30888   0.75211   0.00000  Uiso   1.00
O757   O     0.25000   0.42946   0.88092   0.00000  Uiso   1.00
O758   O     0.25000   0.57054   0.78575   0.00000  Uiso   1.00
O759   O     0.25000   0.57054   0.88092   0.00000  Uiso   1.00
O760   O     0.25000   0.42946   0.78575   0.00000  Uiso   1.00
C761   C     0.25031   0.40666   0.83335   0.00000  Uiso   1.00
C762   C     0.24961   0.59334   0.83337   0.00000  Uiso   1.00
O763   O     0.18513   0.50000   0.88093   0.00000  Uiso   1.00
O764   O     0.31487   0.50000   0.78573   0.00000  Uiso   1.00
O765   O     0.31487   0.50000   0.88093   0.00000  Uiso   1.00
O766   O     0.18513   0.50000   0.78573   0.00000  Uiso   1.00
C767   C     0.16435   0.50013   0.83336   0.00000  Uiso   1.00
C768   C     0.33565   0.49996   0.83328   0.00000  Uiso   1.00
Cu769  Cu    0.25000   0.50000   0.88969   0.00000  Uiso   1.00
Cu770  Cu    0.25000   0.50000   0.77697   0.00000  Uiso   1.00
N771   N     0.25000   0.50000   0.69227   0.00000  Uiso   1.00
N772   N     0.25000   0.50000   0.97439   0.00000  Uiso   1.00
C773   C     0.40659   0.54490   0.83717   0.00000  Uiso   1.00
C774   C     0.09333   0.45584   0.84081   0.00000  Uiso   1.00
C775   C     0.40711   0.45581   0.82839   0.00000  Uiso   1.00
C776   C     0.09305   0.54438   0.82597   0.00000  Uiso   1.00
C777   C     0.38390   0.50020   0.83316   0.00000  Uiso   1.00
C778   C     0.11611   0.50015   0.83350   0.00000  Uiso   1.00
C779   C     0.45347   0.45569   0.83313   0.00000  Uiso   1.00
C780   C     0.04659   0.54480   0.82968   0.00000  Uiso   1.00
C781   C     0.45319   0.54513   0.83514   0.00000  Uiso   1.00
C782   C     0.04676   0.45562   0.83914   0.00000  Uiso   1.00
C783   C     0.47661   0.50038   0.83494   0.00000  Uiso   1.00
C784   C     0.02340   0.50029   0.83503   0.00000  Uiso   1.00
C785   C     0.47724   0.41172   0.83628   0.00000  Uiso   1.00
C786   C     0.02272   0.58880   0.82840   0.00000  Uiso   1.00
C787   C     0.47697   0.58899   0.83175   0.00000  Uiso   1.00
C788   C     0.02294   0.41169   0.83998   0.00000  Uiso   1.00
C789   C     0.25019   0.35509   0.83345   0.00000  Uiso   1.00
C790   C     0.24973   0.64491   0.83348   0.00000  Uiso   1.00
H791   H     0.46064   0.37687   0.83703   0.00000  Uiso   1.00
H792   H     0.03919   0.62366   0.82564   0.00000  Uiso   1.00
H793   H     0.46048   0.62395   0.83006   0.00000  Uiso   1.00
H794   H     0.03932   0.37668   0.84210   0.00000  Uiso   1.00
C795   C     0.38115   0.59112   0.84080   0.00000  Uiso   1.00
O796   O     0.38690   0.61900   0.88096   0.00000  Uiso   1.00
O797   O     0.35060   0.60242   0.79812   0.00000  Uiso   1.00
H798   H     0.33531   0.63468   0.80533   0.00000  Uiso   1.00
C799   C     0.11868   0.40981   0.84719   0.00000  Uiso   1.00
O800   O     0.11386   0.38450   0.88983   0.00000  Uiso   1.00
O801   O     0.14802   0.39570   0.80415   0.00000  Uiso   1.00
H802   H     0.16300   0.36360   0.81308   0.00000  Uiso   1.00
C803   C     0.38333   0.41040   0.81313   0.00000  Uiso   1.00
O804   O     0.35339   0.39525   0.84336   0.00000  Uiso   1.00
O805   O     0.39541   0.38554   0.76324   0.00000  Uiso   1.00
H806   H     0.37587   0.35655   0.75489   0.00000  Uiso   1.00
C807   C     0.11751   0.58942   0.81093   0.00000  Uiso   1.00
O808   O     0.14604   0.60517   0.84290   0.00000  Uiso   1.00
O809   O     0.10790   0.61319   0.75949   0.00000  Uiso   1.00
H810   H     0.12771   0.64221   0.75211   0.00000  Uiso   1.00
O811   O     0.75000   0.42946   0.88092   0.00000  Uiso   1.00
O812   O     0.75000   0.57054   0.78575   0.00000  Uiso   1.00
O813   O     0.75000   0.57054   0.88092   0.00000  Uiso   1.00
O814   O     0.75000   0.42946   0.78575   0.00000  Uiso   1.00
C815   C     0.75031   0.40666   0.83335   0.00000  Uiso   1.00
C816   C     0.74961   0.59334   0.83337   0.00000  Uiso   1.00
O817   O     0.68513   0.50000   0.88093   0.00000  Uiso   1.00
O818   O     0.81487   0.50000   0.78573   0.00000  Uiso   1.00
O819   O     0.81487   0.50000   0.88093   0.00000  Uiso   1.00
O820   O     0.68513   0.50000   0.78573   0.00000  Uiso   1.00
C821   C     0.66435   0.50013   0.83336   0.00000  Uiso   1.00
C822   C     0.83565   0.49996   0.83328   0.00000  Uiso   1.00
Cu823  Cu    0.75000   0.50000   0.88969   0.00000  Uiso   1.00
Cu824  Cu    0.75000   0.50000   0.77697   0.00000  Uiso   1.00
N825   N     0.75000   0.50000   0.69227   0.00000  Uiso   1.00
N826   N     0.75000   0.50000   0.97439   0.00000  Uiso   1.00
C827   C     0.90659   0.54490   0.83717   0.00000  Uiso   1.00
C828   C     0.59333   0.45584   0.84081   0.00000  Uiso   1.00
C829   C     0.90711   0.45581   0.82839   0.00000  Uiso   1.00
C830   C     0.59305   0.54438   0.82597   0.00000  Uiso   1.00
C831   C     0.88390   0.50020   0.83316   0.00000  Uiso   1.00
C832   C     0.61611   0.50015   0.83350   0.00000  Uiso   1.00
C833   C     0.95347   0.45569   0.83313   0.00000  Uiso   1.00
C834   C     0.54659   0.54480   0.82968   0.00000  Uiso   1.00
C835   C     0.95319   0.54513   0.83514   0.00000  Uiso   1.00
C836   C     0.54676   0.45562   0.83914   0.00000  Uiso   1.00
C837   C     0.97661   0.50038   0.83494   0.00000  Uiso   1.00
C838   C     0.52340   0.50029   0.83503   0.00000  Uiso   1.00
C839   C     0.97724   0.41172   0.83628   0.00000  Uiso   1.00
C840   C     0.52272   0.58880   0.82840   0.00000  Uiso   1.00
C841   C     0.97697   0.58899   0.83175   0.00000  Uiso   1.00
C842   C     0.52294   0.41169   0.83998   0.00000  Uiso   1.00
C843   C     0.75019   0.35509   0.83345   0.00000  Uiso   1.00
C844   C     0.74973   0.64491   0.83348   0.00000  Uiso   1.00
H845   H     0.96064   0.37687   0.83703   0.00000  Uiso   1.00
H846   H     0.53919   0.62366   0.82564   0.00000  Uiso   1.00
H847   H     0.96048   0.62395   0.83006   0.00000  Uiso   1.00
H848   H     0.53932   0.37668   0.84210   0.00000  Uiso   1.00
C849   C     0.88115   0.59112   0.84080   0.00000  Uiso   1.00
O850   O     0.88690   0.61900   0.88096   0.00000  Uiso   1.00
O851   O     0.85060   0.60242   0.79812   0.00000  Uiso   1.00
H852   H     0.83531   0.63468   0.80533   0.00000  Uiso   1.00
C853   C     0.61868   0.40981   0.84719   0.00000  Uiso   1.00
O854   O     0.61386   0.38450   0.88983   0.00000  Uiso   1.00
O855   O     0.64802   0.39570   0.80415   0.00000  Uiso   1.00
H856   H     0.66300   0.36360   0.81308   0.00000  Uiso   1.00
C857   C     0.88333   0.41040   0.81313   0.00000  Uiso   1.00
O858   O     0.85339   0.39525   0.84336   0.00000  Uiso   1.00
O859   O     0.89541   0.38554   0.76324   0.00000  Uiso   1.00
H860   H     0.87587   0.35655   0.75489   0.00000  Uiso   1.00
C861   C     0.61751   0.58942   0.81093   0.00000  Uiso   1.00
O862   O     0.64604   0.60517   0.84290   0.00000  Uiso   1.00
O863   O     0.60790   0.61319   0.75949   0.00000  Uiso   1.00
H864   H     0.62771   0.64221   0.75211   0.00000  Uiso   1.00
O865   O     0.25000   0.76280   0.88092   0.00000  Uiso   1.00
O866   O     0.25000   0.90387   0.78575   0.00000  Uiso   1.00
O867   O     0.25000   0.90387   0.88092   0.00000  Uiso   1.00
O868   O     0.25000   0.76280   0.78575   0.00000  Uiso   1.00
C869   C     0.25031   0.74000   0.83335   0.00000  Uiso   1.00
C870   C     0.24961   0.92667   0.83337   0.00000  Uiso   1.00
O871   O     0.18513   0.83333   0.88093   0.00000  Uiso   1.00
O872   O     0.31487   0.83333   0.78573   0.00000  Uiso   1.00
O873   O     0.31487   0.83333   0.88093   0.00000  Uiso   1.00
O874   O     0.18513   0.83333   0.78573   0.00000  Uiso   1.00
C875   C     0.16435   0.83346   0.83336   0.00000  Uiso   1.00
C876   C     0.33565   0.83329   0.83328   0.00000  Uiso   1.00
Cu877  Cu    0.25000   0.83333   0.88969   0.00000  Uiso   1.00
Cu878  Cu    0.25000   0.83333   0.77697   0.00000  Uiso   1.00
N879   N     0.25000   0.83333   0.69227   0.00000  Uiso   1.00
N880   N     0.25000   0.83333   0.97439   0.00000  Uiso   1.00
C881   C     0.40659   0.87824   0.83717   0.00000  Uiso   1.00
C882   C     0.09333   0.78918   0.84081   0.00000  Uiso   1.00
C883   C     0.40711   0.78914   0.82839   0.00000  Uiso   1.00
C884   C     0.09305   0.87771   0.82597   0.00000  Uiso   1.00
C885   C     0.38390   0.83354   0.83316   0.00000  Uiso   1.00
C886   C     0.11611   0.83348   0.83350   0.00000  Uiso   1.00
C887   C     0.45347   0.78902   0.83313   0.00000  Uiso   1.00
C888   C     0.04659   0.87813   0.82968   0.00000  Uiso   1.00
C889   C     0.45319   0.87846   0.83514   0.00000  Uiso   1.00
C890   C     0.04676   0.78895   0.83914   0.00000  Uiso   1.00
C891   C     0.47661   0.83372   0.83494   0.00000  Uiso   1.00
C892   C     0.02340   0.83363   0.83503   0.00000  Uiso   1.00
C893   C     0.47724   0.74505   0.83628   0.00000  Uiso   1.00
C894   C     0.02272   0.92213   0.82840   0.00000  Uiso   1.00
C895   C     0.47697   0.92233   0.83175   0.00000  Uiso   1.00
C896   C     0.02294   0.74502   0.83998   0.00000  Uiso   1.00
C897   C     0.25019   0.68843   0.83345   0.00000  Uiso   1.00
C898   C     0.24973   0.97824   0.83348   0.00000  Uiso   1.00
H899   H     0.46064   0.71020   0.83703   0.00000  Uiso   1.00
H900   H     0.03919   0.95699   0.82564   0.00000  Uiso   1.00
H901   H     0.46048   0.95728   0.83006   0.00000  Uiso   1.00
H902   H     0.03932   0.71002   0.84210   0.00000  Uiso   1.00
C903   C     0.38115   0.92445   0.84080   0.00000  Uiso   1.00
O904   O     0.38690   0.95233   0.88096   0.00000  Uiso   1.00
O905   O     0.35060   0.93576   0.79812   0.00000  Uiso   1.00
H906   H     0.33531   0.96801   0.80533   0.00000  Uiso   1.00
C907   C     0.11868   0.74314   0.84719   0.00000  Uiso   1.00
O908   O     0.11386   0.71784   0.88983   0.00000  Uiso   1.00
O909   O     0.14802   0.72903   0.80415   0.00000  Uiso   1.00
H910   H     0.16300   0.69693   0.81308   0.00000  Uiso   1.00
C911   C     0.38333   0.74373   0.81313   0.00000  Uiso   1.00
O912   O     0.35339   0.72858   0.84336   0.00000  Uiso   1.00
O913   O     0.39541   0.71887   0.76324   0.00000  Uiso   1.00
H914   H     0.37587   0.68988   0.75489   0.00000  Uiso   1.00
C915   C     0.11751   0.92275   0.81093   0.00000  Uiso   1.00
O916   O     0.14604   0.93851   0.84290   0.00000  Uiso   1.00
O917   O     0.10790   0.94652   0.75949   0.00000  Uiso   1.00
H918   H     0.12771   0.97554   0.75211   0.00000  Uiso   1.00
O919   O     0.75000   0.76280   0.88092   0.00000  Uiso   1.00
O920   O     0.75000   0.90387   0.78575   0.00000  Uiso   1.00
O921   O     0.75000   0.90387   0.88092   0.00000  Uiso   1.00
O922   O     0.75000   0.76280   0.78575   0.00000  Uiso   1.00
C923   C     0.75031   0.74000   0.83335   0.00000  Uiso   1.00
C924   C     0.74961   0.92667   0.83337   0.00000  Uiso   1.00
O925   O     0.68513   0.83333   0.88093   0.00000  Uiso   1.00
O926   O     0.81487   0.83333   0.78573   0.00000  Uiso   1.00
O927   O     0.81487   0.83333   0.88093   0.00000  Uiso   1.00
O928   O     0.68513   0.83333   0.78573   0.00000  Uiso   1.00
C929   C     0.66435   0.83346   0.83336   0.00000  Uiso   1.00
C930   C     0.83565   0.83329   0.83328   0.00000  Uiso   1.00
Cu931  Cu    0.75000   0.83333   0.88969   0.00000  Uiso   1.00
Cu932  Cu    0.75000   0.83333   0.77697   0.00000  Uiso   1.00
N933   N     0.75000   0.83333   0.69227   0.00000  Uiso   1.00
N934   N     0.75000   0.83333   0.97439   0.00000  Uiso   1.00
C935   C     0.90659   0.87824   0.83717   0.00000  Uiso   1.00
C936   C     0.59333   0.78918   0.84081   0.00000  Uiso   1.00
C937   C     0.90711   0.78914   0.82839   0.00000  Uiso   1.00
C938   C     0.59305   0.87771   0.82597   0.00000  Uiso   1.00
C939   C     0.88390   0.83354   0.83316   0.00000  Uiso   1.00
C940   C     0.61611   0.83348   0.83350   0.00000  Uiso   1.00
C941   C     0.95347   0.78902   0.83313   0.00000  Uiso   1.00
C942   C     0.54659   0.87813   0.82968   0.00000  Uiso   1.00
C943   C     0.95319   0.87846   0.83514   0.00000  Uiso   1.00
C944   C     0.54676   0.78895   0.83914   0.00000  Uiso   1.00
C945   C     0.97661   0.83372   0.83494   0.00000  Uiso   1.00
C946   C     0.52340   0.83363   0.83503   0.00000  Uiso   1.00
C947   C     0.97724   0.74505   0.83628   0.00000  Uiso   1.00
C948   C     0.52272   0.92213   0.82840   0.00000  Uiso   1.00
C949   C     0.97697   0.92233   0.83175   0.00000  Uiso   1.00
C950   C     0.52294   0.74502   0.83998   0.00000  Uiso   1.00
C951   C     0.75019   0.68843   0.83345   0.00000  Uiso   1.00
C952   C     0.74973   0.97824   0.83348   0.00000  Uiso   1.00
H953   H     0.96064   0.71020   0.83703   0.00000  Uiso   1.00
H954   H     0.53919   0.95699   0.82564   0.00000  Uiso   1.00
H955   H     0.96048   0.95728   0.83006   0.00000  Uiso   1.00
H956   H     0.53932   0.71002   0.84210   0.00000  Uiso   1.00
C957   C     0.88115   0.92445   0.84080   0.00000  Uiso   1.00
O958   O     0.88690   0.95233   0.88096   0.00000  Uiso   1.00
O959   O     0.85060   0.93576   0.79812   0.00000  Uiso   1.00
H960   H     0.83531   0.96801   0.80533   0.00000  Uiso   1.00
C961   C     0.61868   0.74314   0.84719   0.00000  Uiso   1.00
O962   O     0.61386   0.71784   0.88983   0.00000  Uiso   1.00
O963   O     0.64802   0.72903   0.80415   0.00000  Uiso   1.00
H964   H     0.66300   0.69693   0.81308   0.00000  Uiso   1.00
C965   C     0.88333   0.74373   0.81313   0.00000  Uiso   1.00
O966   O     0.85339   0.72858   0.84336   0.00000  Uiso   1.00
O967   O     0.89541   0.71887   0.76324   0.00000  Uiso   1.00
H968   H     0.87587   0.68988   0.75489   0.00000  Uiso   1.00
C969   C     0.61751   0.92275   0.81093   0.00000  Uiso   1.00
O970   O     0.64604   0.93851   0.84290   0.00000  Uiso   1.00
O971   O     0.60790   0.94652   0.75949   0.00000  Uiso   1.00
H972   H     0.62771   0.97554   0.75211   0.00000  Uiso   1.00
loop_
_geom_bond_atom_site_label_1
_geom_bond_atom_site_label_2
_geom_bond_distance
_geom_bond_site_symmetry_2
_ccdc_geom_bond_type
O1     C5      1.275   .     A
O1     Cu13    1.944   .     S
O2     C6      1.276   .     A
O2     Cu14    1.944   .     S
O3     Cu13    1.944   .     S
O3     C6      1.275   .     A
O4     Cu14    1.944   .     S
O4     C5      1.276   .     A
C5     C33     1.414   .     S
C6     C34     1.414   .     S
O7     C11     1.278   .     A
O7     Cu13    1.973   .     S
O8     C12     1.277   .     A
O8     Cu14    1.973   .     S
O9     C12     1.278   .     A
O9     Cu13    1.973   .     S
O10    C11     1.278   .     A
O10    Cu14    1.973   .     S
C11    C22     1.460   .     S
C12    C21     1.460   .     S
Cu13   N16     1.980   .     S
Cu13   Cu14    2.635   .     S
Cu14   N15     1.980   .     S
N15    N664    1.197   1_554 S
N16    N339    1.197   .     S
C17    C25     1.411   .     A
C17    C39     1.483   .     S
C17    C21     1.409   .     A
C18    C43     1.483   .     S
C18    C22     1.408   .     A
C18    C26     1.409   .     A
C19    C23     1.407   .     A
C19    C21     1.408   .     A
C19    C47     1.483   .     S
C20    C51     1.483   .     S
C20    C22     1.408   .     A
C20    C24     1.408   .     A
C23    C29     1.404   .     A
C23    C27     1.413   .     A
C24    C30     1.405   .     A
C24    C28     1.414   .     A
C25    C31     1.405   .     A
C25    C27     1.415   .     A
C26    C32     1.405   .     A
C26    C28     1.416   .     A
C27    C82     1.415   .     S
C28    C81     1.415   1_455 S
C29    H35     1.081   .     S
C29    C86     1.385   .     S
C30    H36     1.081   .     S
C30    C85     1.386   1_455 S
C31    H37     1.080   .     S
C31    C84     1.386   .     S
C32    H38     1.080   .     S
C32    C83     1.385   1_455 S
C33    C250    1.193   1_545 S
C34    C141    1.193   .     S
C39    O41     1.395   .     S
C39    O40     1.223   .     D
O41    H42     1.011   .     S
C43    O44     1.223   .     D
C43    O45     1.395   .     S
O45    H46     1.011   .     S
C47    O48     1.222   .     D
C47    O49     1.398   .     S
O49    H50     1.011   .     S
C51    O52     1.222   .     D
C51    O53     1.398   .     S
O53    H54     1.012   .     S
O55    C59     1.275   .     A
O55    Cu67    1.944   .     S
O56    C60     1.276   .     A
O56    Cu68    1.944   .     S
O57    Cu67    1.944   .     S
O57    C60     1.275   .     A
O58    Cu68    1.944   .     S
O58    C59     1.276   .     A
C59    C87     1.414   .     S
C60    C88     1.414   .     S
O61    C65     1.278   .     A
O61    Cu67    1.973   .     S
O62    C66     1.277   .     A
O62    Cu68    1.973   .     S
O63    C66     1.278   .     A
O63    Cu67    1.973   .     S
O64    C65     1.278   .     A
O64    Cu68    1.973   .     S
C65    C76     1.460   .     S
C66    C75     1.460   .     S
Cu67   N70     1.980   .     S
Cu67   Cu68    2.635   .     S
Cu68   N69     1.980   .     S
N69    N718    1.197   1_554 S
N70    N393    1.197   .     S
C71    C79     1.411   .     A
C71    C93     1.483   .     S
C71    C75     1.409   .     A
C72    C97     1.483   .     S
C72    C76     1.408   .     A
C72    C80     1.409   .     A
C73    C77     1.407   .     A
C73    C75     1.408   .     A
C73    C101    1.483   .     S
C74    C105    1.483   .     S
C74    C76     1.408   .     A
C74    C78     1.408   .     A
C77    C83     1.404   .     A
C77    C81     1.413   .     A
C78    C84     1.405   .     A
C78    C82     1.414   .     A
C79    C85     1.405   .     A
C79    C81     1.415   .     A
C80    C86     1.405   .     A
C80    C82     1.416   .     A
C81    C28     1.415   1_655 S
C83    H89     1.081   .     S
C83    C32     1.385   1_655 S
C84    H90     1.081   .     S
C85    H91     1.080   .     S
C85    C30     1.386   1_655 S
C86    H92     1.080   .     S
C87    C304    1.193   1_545 S
C88    C195    1.193   .     S
C93    O95     1.395   .     S
C93    O94     1.223   .     D
O95    H96     1.011   .     S
C97    O98     1.223   .     D
C97    O99     1.395   .     S
O99    H100    1.011   .     S
C101   O102    1.222   .     D
C101   O103    1.398   .     S
O103   H104    1.011   .     S
C105   O106    1.222   .     D
C105   O107    1.398   .     S
O107   H108    1.012   .     S
O109   C113    1.275   .     A
O109   Cu121   1.944   .     S
O110   C114    1.276   .     A
O110   Cu122   1.944   .     S
O111   Cu121   1.944   .     S
O111   C114    1.275   .     A
O112   Cu122   1.944   .     S
O112   C113    1.276   .     A
C113   C141    1.414   .     S
C114   C142    1.414   .     S
O115   C119    1.278   .     A
O115   Cu121   1.973   .     S
O116   C120    1.277   .     A
O116   Cu122   1.973   .     S
O117   C120    1.278   .     A
O117   Cu121   1.973   .     S
O118   C119    1.278   .     A
O118   Cu122   1.973   .     S
C119   C130    1.460   .     S
C120   C129    1.460   .     S
Cu121  N124    1.980   .     S
Cu121  Cu122   2.635   .     S
Cu122  N123    1.980   .     S
N123   N772    1.197   1_554 S
N124   N447    1.197   .     S
C125   C133    1.411   .     A
C125   C147    1.483   .     S
C125   C129    1.409   .     A
C126   C151    1.483   .     S
C126   C130    1.408   .     A
C126   C134    1.409   .     A
C127   C131    1.407   .     A
C127   C129    1.408   .     A
C127   C155    1.483   .     S
C128   C159    1.483   .     S
C128   C130    1.408   .     A
C128   C132    1.408   .     A
C131   C137    1.404   .     A
C131   C135    1.413   .     A
C132   C138    1.405   .     A
C132   C136    1.414   .     A
C133   C139    1.405   .     A
C133   C135    1.415   .     A
C134   C140    1.405   .     A
C134   C136    1.416   .     A
C135   C190    1.415   .     S
C136   C189    1.415   1_455 S
C137   H143    1.081   .     S
C137   C194    1.385   .     S
C138   H144    1.081   .     S
C138   C193    1.386   1_455 S
C139   H145    1.080   .     S
C139   C192    1.386   .     S
C140   H146    1.080   .     S
C140   C191    1.385   1_455 S
C142   C249    1.193   .     S
C147   O149    1.395   .     S
C147   O148    1.223   .     D
O149   H150    1.011   .     S
C151   O152    1.223   .     D
C151   O153    1.395   .     S
O153   H154    1.011   .     S
C155   O156    1.222   .     D
C155   O157    1.398   .     S
O157   H158    1.011   .     S
C159   O160    1.222   .     D
C159   O161    1.398   .     S
O161   H162    1.012   .     S
O163   C167    1.275   .     A
O163   Cu175   1.944   .     S
O164   C168    1.276   .     A
O164   Cu176   1.944   .     S
O165   Cu175   1.944   .     S
O165   C168    1.275   .     A
O166   Cu176   1.944   .     S
O166   C167    1.276   .     A
C167   C195    1.414   .     S
C168   C196    1.414   .     S
O169   C173    1.278   .     A
O169   Cu175   1.973   .     S
O170   C174    1.277   .     A
O170   Cu176   1.973   .     S
O171   C174    1.278   .     A
O171   Cu175   1.973   .     S
O172   C173    1.278   .     A
O172   Cu176   1.973   .     S
C173   C184    1.460   .     S
C174   C183    1.460   .     S
Cu175  N178    1.980   .     S
Cu175  Cu176   2.635   .     S
Cu176  N177    1.980   .     S
N177   N826    1.197   1_554 S
N178   N501    1.197   .     S
C179   C187    1.411   .     A
C179   C201    1.483   .     S
C179   C183    1.409   .     A
C180   C205    1.483   .     S
C180   C184    1.408   .     A
C180   C188    1.409   .     A
C181   C185    1.407   .     A
C181   C183    1.408   .     A
C181   C209    1.483   .     S
C182   C213    1.483   .     S
C182   C184    1.408   .     A
C182   C186    1.408   .     A
C185   C191    1.404   .     A
C185   C189    1.413   .     A
C186   C192    1.405   .     A
C186   C190    1.414   .     A
C187   C193    1.405   .     A
C187   C189    1.415   .     A
C188   C194    1.405   .     A
C188   C190    1.416   .     A
C189   C136    1.415   1_655 S
C191   H197    1.081   .     S
C191   C140    1.385   1_655 S
C192   H198    1.081   .     S
C193   H199    1.080   .     S
C193   C138    1.386   1_655 S
C194   H200    1.080   .     S
C196   C303    1.193   .     S
C201   O203    1.395   .     S
C201   O202    1.223   .     D
O203   H204    1.011   .     S
C205   O206    1.223   .     D
C205   O207    1.395   .     S
O207   H208    1.011   .     S
C209   O210    1.222   .     D
C209   O211    1.398   .     S
O211   H212    1.011   .     S
C213   O214    1.222   .     D
C213   O215    1.398   .     S
O215   H216    1.012   .     S
O217   C221    1.275   .     A
O217   Cu229   1.944   .     S
O218   C222    1.276   .     A
O218   Cu230   1.944   .     S
O219   Cu229   1.944   .     S
O219   C222    1.275   .     A
O220   Cu230   1.944   .     S
O220   C221    1.276   .     A
C221   C249    1.414   .     S
C222   C250    1.414   .     S
O223   C227    1.278   .     A
O223   Cu229   1.973   .     S
O224   C228    1.277   .     A
O224   Cu230   1.973   .     S
O225   C228    1.278   .     A
O225   Cu229   1.973   .     S
O226   C227    1.278   .     A
O226   Cu230   1.973   .     S
C227   C238    1.460   .     S
C228   C237    1.460   .     S
Cu229  N232    1.980   .     S
Cu229  Cu230   2.635   .     S
Cu230  N231    1.980   .     S
N231   N880    1.197   1_554 S
N232   N555    1.197   .     S
C233   C241    1.411   .     A
C233   C255    1.483   .     S
C233   C237    1.409   .     A
C234   C259    1.483   .     S
C234   C238    1.408   .     A
C234   C242    1.409   .     A
C235   C239    1.407   .     A
C235   C237    1.408   .     A
C235   C263    1.483   .     S
C236   C267    1.483   .     S
C236   C238    1.408   .     A
C236   C240    1.408   .     A
C239   C245    1.404   .     A
C239   C243    1.413   .     A
C240   C246    1.405   .     A
C240   C244    1.414   .     A
C241   C247    1.405   .     A
C241   C243    1.415   .     A
C242   C248    1.405   .     A
C242   C244    1.416   .     A
C243   C298    1.415   .     S
C244   C297    1.415   1_455 S
C245   H251    1.081   .     S
C245   C302    1.385   .     S
C246   H252    1.081   .     S
C246   C301    1.386   1_455 S
C247   H253    1.080   .     S
C247   C300    1.386   .     S
C248   H254    1.080   .     S
C248   C299    1.385   1_455 S
C250   C33     1.193   1_565 S
C255   O257    1.395   .     S
C255   O256    1.223   .     D
O257   H258    1.011   .     S
C259   O260    1.223   .     D
C259   O261    1.395   .     S
O261   H262    1.011   .     S
C263   O264    1.222   .     D
C263   O265    1.398   .     S
O265   H266    1.011   .     S
C267   O268    1.222   .     D
C267   O269    1.398   .     S
O269   H270    1.012   .     S
O271   C275    1.275   .     A
O271   Cu283   1.944   .     S
O272   C276    1.276   .     A
O272   Cu284   1.944   .     S
O273   Cu283   1.944   .     S
O273   C276    1.275   .     A
O274   Cu284   1.944   .     S
O274   C275    1.276   .     A
C275   C303    1.414   .     S
C276   C304    1.414   .     S
O277   C281    1.278   .     A
O277   Cu283   1.973   .     S
O278   C282    1.277   .     A
O278   Cu284   1.973   .     S
O279   C282    1.278   .     A
O279   Cu283   1.973   .     S
O280   C281    1.278   .     A
O280   Cu284   1.973   .     S
C281   C292    1.460   .     S
C282   C291    1.460   .     S
Cu283  N286    1.980   .     S
Cu283  Cu284   2.635   .     S
Cu284  N285    1.980   .     S
N285   N934    1.197   1_554 S
N286   N609    1.197   .     S
C287   C295    1.411   .     A
C287   C309    1.483   .     S
C287   C291    1.409   .     A
C288   C313    1.483   .     S
C288   C292    1.408   .     A
C288   C296    1.409   .     A
C289   C293    1.407   .     A
C289   C291    1.408   .     A
C289   C317    1.483   .     S
C290   C321    1.483   .     S
C290   C292    1.408   .     A
C290   C294    1.408   .     A
C293   C299    1.404   .     A
C293   C297    1.413   .     A
C294   C300    1.405   .     A
C294   C298    1.414   .     A
C295   C301    1.405   .     A
C295   C297    1.415   .     A
C296   C302    1.405   .     A
C296   C298    1.416   .     A
C297   C244    1.415   1_655 S
C299   H305    1.081   .     S
C299   C248    1.385   1_655 S
C300   H306    1.081   .     S
C301   H307    1.080   .     S
C301   C246    1.386   1_655 S
C302   H308    1.080   .     S
C304   C87     1.193   1_565 S
C309   O311    1.395   .     S
C309   O310    1.223   .     D
O311   H312    1.011   .     S
C313   O314    1.223   .     D
C313   O315    1.395   .     S
O315   H316    1.011   .     S
C317   O318    1.222   .     D
C317   O319    1.398   .     S
O319   H320    1.011   .     S
C321   O322    1.222   .     D
C321   O323    1.398   .     S
O323   H324    1.012   .     S
O325   C329    1.275   .     A
O325   Cu337   1.944   .     S
O326   C330    1.276   .     A
O326   Cu338   1.944   .     S
O327   Cu337   1.944   .     S
O327   C330    1.275   .     A
O328   Cu338   1.944   .     S
O328   C329    1.276   .     A
C329   C357    1.414   .     S
C330   C358    1.414   .     S
O331   C335    1.278   .     A
O331   Cu337   1.973   .     S
O332   C336    1.277   .     A
O332   Cu338   1.973   .     S
O333   C336    1.278   .     A
O333   Cu337   1.973   .     S
O334   C335    1.278   .     A
O334   Cu338   1.973   .     S
C335   C346    1.460   .     S
C336   C345    1.460   .     S
Cu337  N340    1.980   .     S
Cu337  Cu338   2.635   .     S
Cu338  N339    1.980   .     S
N340   N663    1.197   .     S
C341   C349    1.411   .     A
C341   C363    1.483   .     S
C341   C345    1.409   .     A
C342   C367    1.483   .     S
C342   C346    1.408   .     A
C342   C350    1.409   .     A
C343   C347    1.407   .     A
C343   C345    1.408   .     A
C343   C371    1.483   .     S
C344   C375    1.483   .     S
C344   C346    1.408   .     A
C344   C348    1.408   .     A
C347   C353    1.404   .     A
C347   C351    1.413   .     A
C348   C354    1.405   .     A
C348   C352    1.414   .     A
C349   C355    1.405   .     A
C349   C351    1.415   .     A
C350   C356    1.405   .     A
C350   C352    1.416   .     A
C351   C406    1.415   .     S
C352   C405    1.415   1_455 S
C353   H359    1.081   .     S
C353   C410    1.385   .     S
C354   H360    1.081   .     S
C354   C409    1.386   1_455 S
C355   H361    1.080   .     S
C355   C408    1.386   .     S
C356   H362    1.080   .     S
C356   C407    1.385   1_455 S
C357   C574    1.193   1_545 S
C358   C465    1.193   .     S
C363   O365    1.395   .     S
C363   O364    1.223   .     D
O365   H366    1.011   .     S
C367   O368    1.223   .     D
C367   O369    1.395   .     S
O369   H370    1.011   .     S
C371   O372    1.222   .     D
C371   O373    1.398   .     S
O373   H374    1.011   .     S
C375   O376    1.222   .     D
C375   O377    1.398   .     S
O377   H378    1.012   .     S
O379   C383    1.275   .     A
O379   Cu391   1.944   .     S
O380   C384    1.276   .     A
O380   Cu392   1.944   .     S
O381   Cu391   1.944   .     S
O381   C384    1.275   .     A
O382   Cu392   1.944   .     S
O382   C383    1.276   .     A
C383   C411    1.414   .     S
C384   C412    1.414   .     S
O385   C389    1.278   .     A
O385   Cu391   1.973   .     S
O386   C390    1.277   .     A
O386   Cu392   1.973   .     S
O387   C390    1.278   .     A
O387   Cu391   1.973   .     S
O388   C389    1.278   .     A
O388   Cu392   1.973   .     S
C389   C400    1.460   .     S
C390   C399    1.460   .     S
Cu391  N394    1.980   .     S
Cu391  Cu392   2.635   .     S
Cu392  N393    1.980   .     S
N394   N717    1.197   .     S
C395   C403    1.411   .     A
C395   C417    1.483   .     S
C395   C399    1.409   .     A
C396   C421    1.483   .     S
C396   C400    1.408   .     A
C396   C404    1.409   .     A
C397   C401    1.407   .     A
C397   C399    1.408   .     A
C397   C425    1.483   .     S
C398   C429    1.483   .     S
C398   C400    1.408   .     A
C398   C402    1.408   .     A
C401   C407    1.404   .     A
C401   C405    1.413   .     A
C402   C408    1.405   .     A
C402   C406    1.414   .     A
C403   C409    1.405   .     A
C403   C405    1.415   .     A
C404   C410    1.405   .     A
C404   C406    1.416   .     A
C405   C352    1.415   1_655 S
C407   H413    1.081   .     S
C407   C356    1.385   1_655 S
C408   H414    1.081   .     S
C409   H415    1.080   .     S
C409   C354    1.386   1_655 S
C410   H416    1.080   .     S
C411   C628    1.193   1_545 S
C412   C519    1.193   .     S
C417   O419    1.395   .     S
C417   O418    1.223   .     D
O419   H420    1.011   .     S
C421   O422    1.223   .     D
C421   O423    1.395   .     S
O423   H424    1.011   .     S
C425   O426    1.222   .     D
C425   O427    1.398   .     S
O427   H428    1.011   .     S
C429   O430    1.222   .     D
C429   O431    1.398   .     S
O431   H432    1.012   .     S
O433   C437    1.275   .     A
O433   Cu445   1.944   .     S
O434   C438    1.276   .     A
O434   Cu446   1.944   .     S
O435   Cu445   1.944   .     S
O435   C438    1.275   .     A
O436   Cu446   1.944   .     S
O436   C437    1.276   .     A
C437   C465    1.414   .     S
C438   C466    1.414   .     S
O439   C443    1.278   .     A
O439   Cu445   1.973   .     S
O440   C444    1.277   .     A
O440   Cu446   1.973   .     S
O441   C444    1.278   .     A
O441   Cu445   1.973   .     S
O442   C443    1.278   .     A
O442   Cu446   1.973   .     S
C443   C454    1.460   .     S
C444   C453    1.460   .     S
Cu445  N448    1.980   .     S
Cu445  Cu446   2.635   .     S
Cu446  N447    1.980   .     S
N448   N771    1.197   .     S
C449   C457    1.411   .     A
C449   C471    1.483   .     S
C449   C453    1.409   .     A
C450   C475    1.483   .     S
C450   C454    1.408   .     A
C450   C458    1.409   .     A
C451   C455    1.407   .     A
C451   C453    1.408   .     A
C451   C479    1.483   .     S
C452   C483    1.483   .     S
C452   C454    1.408   .     A
C452   C456    1.408   .     A
C455   C461    1.404   .     A
C455   C459    1.413   .     A
C456   C462    1.405   .     A
C456   C460    1.414   .     A
C457   C463    1.405   .     A
C457   C459    1.415   .     A
C458   C464    1.405   .     A
C458   C460    1.416   .     A
C459   C514    1.415   .     S
C460   C513    1.415   1_455 S
C461   H467    1.081   .     S
C461   C518    1.385   .     S
C462   H468    1.081   .     S
C462   C517    1.386   1_455 S
C463   H469    1.080   .     S
C463   C516    1.386   .     S
C464   H470    1.080   .     S
C464   C515    1.385   1_455 S
C466   C573    1.193   .     S
C471   O473    1.395   .     S
C471   O472    1.223   .     D
O473   H474    1.011   .     S
C475   O476    1.223   .     D
C475   O477    1.395   .     S
O477   H478    1.011   .     S
C479   O480    1.222   .     D
C479   O481    1.398   .     S
O481   H482    1.011   .     S
C483   O484    1.222   .     D
C483   O485    1.398   .     S
O485   H486    1.012   .     S
O487   C491    1.275   .     A
O487   Cu499   1.944   .     S
O488   C492    1.276   .     A
O488   Cu500   1.944   .     S
O489   Cu499   1.944   .     S
O489   C492    1.275   .     A
O490   Cu500   1.944   .     S
O490   C491    1.276   .     A
C491   C519    1.414   .     S
C492   C520    1.414   .     S
O493   C497    1.278   .     A
O493   Cu499   1.973   .     S
O494   C498    1.277   .     A
O494   Cu500   1.973   .     S
O495   C498    1.278   .     A
O495   Cu499   1.973   .     S
O496   C497    1.278   .     A
O496   Cu500   1.973   .     S
C497   C508    1.460   .     S
C498   C507    1.460   .     S
Cu499  N502    1.980   .     S
Cu499  Cu500   2.635   .     S
Cu500  N501    1.980   .     S
N502   N825    1.197   .     S
C503   C511    1.411   .     A
C503   C525    1.483   .     S
C503   C507    1.409   .     A
C504   C529    1.483   .     S
C504   C508    1.408   .     A
C504   C512    1.409   .     A
C505   C509    1.407   .     A
C505   C507    1.408   .     A
C505   C533    1.483   .     S
C506   C537    1.483   .     S
C506   C508    1.408   .     A
C506   C510    1.408   .     A
C509   C515    1.404   .     A
C509   C513    1.413   .     A
C510   C516    1.405   .     A
C510   C514    1.414   .     A
C511   C517    1.405   .     A
C511   C513    1.415   .     A
C512   C518    1.405   .     A
C512   C514    1.416   .     A
C513   C460    1.415   1_655 S
C515   H521    1.081   .     S
C515   C464    1.385   1_655 S
C516   H522    1.081   .     S
C517   H523    1.080   .     S
C517   C462    1.386   1_655 S
C518   H524    1.080   .     S
C520   C627    1.193   .     S
C525   O527    1.395   .     S
C525   O526    1.223   .     D
O527   H528    1.011   .     S
C529   O530    1.223   .     D
C529   O531    1.395   .     S
O531   H532    1.011   .     S
C533   O534    1.222   .     D
C533   O535    1.398   .     S
O535   H536    1.011   .     S
C537   O538    1.222   .     D
C537   O539    1.398   .     S
O539   H540    1.012   .     S
O541   C545    1.275   .     A
O541   Cu553   1.944   .     S
O542   C546    1.276   .     A
O542   Cu554   1.944   .     S
O543   Cu553   1.944   .     S
O543   C546    1.275   .     A
O544   Cu554   1.944   .     S
O544   C545    1.276   .     A
C545   C573    1.414   .     S
C546   C574    1.414   .     S
O547   C551    1.278   .     A
O547   Cu553   1.973   .     S
O548   C552    1.277   .     A
O548   Cu554   1.973   .     S
O549   C552    1.278   .     A
O549   Cu553   1.973   .     S
O550   C551    1.278   .     A
O550   Cu554   1.973   .     S
C551   C562    1.460   .     S
C552   C561    1.460   .     S
Cu553  N556    1.980   .     S
Cu553  Cu554   2.635   .     S
Cu554  N555    1.980   .     S
N556   N879    1.197   .     S
C557   C565    1.411   .     A
C557   C579    1.483   .     S
C557   C561    1.409   .     A
C558   C583    1.483   .     S
C558   C562    1.408   .     A
C558   C566    1.409   .     A
C559   C563    1.407   .     A
C559   C561    1.408   .     A
C559   C587    1.483   .     S
C560   C591    1.483   .     S
C560   C562    1.408   .     A
C560   C564    1.408   .     A
C563   C569    1.404   .     A
C563   C567    1.413   .     A
C564   C570    1.405   .     A
C564   C568    1.414   .     A
C565   C571    1.405   .     A
C565   C567    1.415   .     A
C566   C572    1.405   .     A
C566   C568    1.416   .     A
C567   C622    1.415   .     S
C568   C621    1.415   1_455 S
C569   H575    1.081   .     S
C569   C626    1.385   .     S
C570   H576    1.081   .     S
C570   C625    1.386   1_455 S
C571   H577    1.080   .     S
C571   C624    1.386   .     S
C572   H578    1.080   .     S
C572   C623    1.385   1_455 S
C574   C357    1.193   1_565 S
C579   O581    1.395   .     S
C579   O580    1.223   .     D
O581   H582    1.011   .     S
C583   O584    1.223   .     D
C583   O585    1.395   .     S
O585   H586    1.011   .     S
C587   O588    1.222   .     D
C587   O589    1.398   .     S
O589   H590    1.011   .     S
C591   O592    1.222   .     D
C591   O593    1.398   .     S
O593   H594    1.012   .     S
O595   C599    1.275   .     A
O595   Cu607   1.944   .     S
O596   C600    1.276   .     A
O596   Cu608   1.944   .     S
O597   Cu607   1.944   .     S
O597   C600    1.275   .     A
O598   Cu608   1.944   .     S
O598   C599    1.276   .     A
C599   C627    1.414   .     S
C600   C628    1.414   .     S
O601   C605    1.278   .     A
O601   Cu607   1.973   .     S
O602   C606    1.277   .     A
O602   Cu608   1.973   .     S
O603   C606    1.278   .     A
O603   Cu607   1.973   .     S
O604   C605    1.278   .     A
O604   Cu608   1.973   .     S
C605   C616    1.460   .     S
C606   C615    1.460   .     S
Cu607  N610    1.980   .     S
Cu607  Cu608   2.635   .     S
Cu608  N609    1.980   .     S
N610   N933    1.197   .     S
C611   C619    1.411   .     A
C611   C633    1.483   .     S
C611   C615    1.409   .     A
C612   C637    1.483   .     S
C612   C616    1.408   .     A
C612   C620    1.409   .     A
C613   C617    1.407   .     A
C613   C615    1.408   .     A
C613   C641    1.483   .     S
C614   C645    1.483   .     S
C614   C616    1.408   .     A
C614   C618    1.408   .     A
C617   C623    1.404   .     A
C617   C621    1.413   .     A
C618   C624    1.405   .     A
C618   C622    1.414   .     A
C619   C625    1.405   .     A
C619   C621    1.415   .     A
C620   C626    1.405   .     A
C620   C622    1.416   .     A
C621   C568    1.415   1_655 S
C623   H629    1.081   .     S
C623   C572    1.385   1_655 S
C624   H630    1.081   .     S
C625   H631    1.080   .     S
C625   C570    1.386   1_655 S
C626   H632    1.080   .     S
C628   C411    1.193   1_565 S
C633   O635    1.395   .     S
C633   O634    1.223   .     D
O635   H636    1.011   .     S
C637   O638    1.223   .     D
C637   O639    1.395   .     S
O639   H640    1.011   .     S
C641   O642    1.222   .     D
C641   O643    1.398   .     S
O643   H644    1.011   .     S
C645   O646    1.222   .     D
C645   O647    1.398   .     S
O647   H648    1.012   .     S
O649   C653    1.275   .     A
O649   Cu661   1.944   .     S
O650   C654    1.276   .     A
O650   Cu662   1.944   .     S
O651   Cu661   1.944   .     S
O651   C654    1.275   .     A
O652   Cu662   1.944   .     S
O652   C653    1.276   .     A
C653   C681    1.414   .     S
C654   C682    1.414   .     S
O655   C659    1.278   .     A
O655   Cu661   1.973   .     S
O656   C660    1.277   .     A
O656   Cu662   1.973   .     S
O657   C660    1.278   .     A
O657   Cu661   1.973   .     S
O658   C659    1.278   .     A
O658   Cu662   1.973   .     S
C659   C670    1.460   .     S
C660   C669    1.460   .     S
Cu661  N664    1.980   .     S
Cu661  Cu662   2.635   .     S
Cu662  N663    1.980   .     S
N664   N15     1.197   1_556 S
C665   C673    1.411   .     A
C665   C687    1.483   .     S
C665   C669    1.409   .     A
C666   C691    1.483   .     S
C666   C670    1.408   .     A
C666   C674    1.409   .     A
C667   C671    1.407   .     A
C667   C669    1.408   .     A
C667   C695    1.483   .     S
C668   C699    1.483   .     S
C668   C670    1.408   .     A
C668   C672    1.408   .     A
C671   C677    1.404   .     A
C671   C675    1.413   .     A
C672   C678    1.405   .     A
C672   C676    1.414   .     A
C673   C679    1.405   .     A
C673   C675    1.415   .     A
C674   C680    1.405   .     A
C674   C676    1.416   .     A
C675   C730    1.415   .     S
C676   C729    1.415   1_455 S
C677   H683    1.081   .     S
C677   C734    1.385   .     S
C678   H684    1.081   .     S
C678   C733    1.386   1_455 S
C679   H685    1.080   .     S
C679   C732    1.386   .     S
C680   H686    1.080   .     S
C680   C731    1.385   1_455 S
C681   C898    1.193   1_545 S
C682   C789    1.193   .     S
C687   O689    1.395   .     S
C687   O688    1.223   .     D
O689   H690    1.011   .     S
C691   O692    1.223   .     D
C691   O693    1.395   .     S
O693   H694    1.011   .     S
C695   O696    1.222   .     D
C695   O697    1.398   .     S
O697   H698    1.011   .     S
C699   O700    1.222   .     D
C699   O701    1.398   .     S
O701   H702    1.012   .     S
O703   C707    1.275   .     A
O703   Cu715   1.944   .     S
O704   C708    1.276   .     A
O704   Cu716   1.944   .     S
O705   Cu715   1.944   .     S
O705   C708    1.275   .     A
O706   Cu716   1.944   .     S
O706   C707    1.276   .     A
C707   C735    1.414   .     S
C708   C736    1.414   .     S
O709   C713    1.278   .     A
O709   Cu715   1.973   .     S
O710   C714    1.277   .     A
O710   Cu716   1.973   .     S
O711   C714    1.278   .     A
O711   Cu715   1.973   .     S
O712   C713    1.278   .     A
O712   Cu716   1.973   .     S
C713   C724    1.460   .     S
C714   C723    1.460   .     S
Cu715  N718    1.980   .     S
Cu715  Cu716   2.635   .     S
Cu716  N717    1.980   .     S
N718   N69     1.197   1_556 S
C719   C727    1.411   .     A
C719   C741    1.483   .     S
C719   C723    1.409   .     A
C720   C745    1.483   .     S
C720   C724    1.408   .     A
C720   C728    1.409   .     A
C721   C725    1.407   .     A
C721   C723    1.408   .     A
C721   C749    1.483   .     S
C722   C753    1.483   .     S
C722   C724    1.408   .     A
C722   C726    1.408   .     A
C725   C731    1.404   .     A
C725   C729    1.413   .     A
C726   C732    1.405   .     A
C726   C730    1.414   .     A
C727   C733    1.405   .     A
C727   C729    1.415   .     A
C728   C734    1.405   .     A
C728   C730    1.416   .     A
C729   C676    1.415   1_655 S
C731   H737    1.081   .     S
C731   C680    1.385   1_655 S
C732   H738    1.081   .     S
C733   H739    1.080   .     S
C733   C678    1.386   1_655 S
C734   H740    1.080   .     S
C735   C952    1.193   1_545 S
C736   C843    1.193   .     S
C741   O743    1.395   .     S
C741   O742    1.223   .     D
O743   H744    1.011   .     S
C745   O746    1.223   .     D
C745   O747    1.395   .     S
O747   H748    1.011   .     S
C749   O750    1.222   .     D
C749   O751    1.398   .     S
O751   H752    1.011   .     S
C753   O754    1.222   .     D
C753   O755    1.398   .     S
O755   H756    1.012   .     S
O757   C761    1.275   .     A
O757   Cu769   1.944   .     S
O758   C762    1.276   .     A
O758   Cu770   1.944   .     S
O759   Cu769   1.944   .     S
O759   C762    1.275   .     A
O760   Cu770   1.944   .     S
O760   C761    1.276   .     A
C761   C789    1.414   .     S
C762   C790    1.414   .     S
O763   C767    1.278   .     A
O763   Cu769   1.973   .     S
O764   C768    1.277   .     A
O764   Cu770   1.973   .     S
O765   C768    1.278   .     A
O765   Cu769   1.973   .     S
O766   C767    1.278   .     A
O766   Cu770   1.973   .     S
C767   C778    1.460   .     S
C768   C777    1.460   .     S
Cu769  N772    1.980   .     S
Cu769  Cu770   2.635   .     S
Cu770  N771    1.980   .     S
N772   N123    1.197   1_556 S
C773   C781    1.411   .     A
C773   C795    1.483   .     S
C773   C777    1.409   .     A
C774   C799    1.483   .     S
C774   C778    1.408   .     A
C774   C782    1.409   .     A
C775   C779    1.407   .     A
C775   C777    1.408   .     A
C775   C803    1.483   .     S
C776   C807    1.483   .     S
C776   C778    1.408   .     A
C776   C780    1.408   .     A
C779   C785    1.404   .     A
C779   C783    1.413   .     A
C780   C786    1.405   .     A
C780   C784    1.414   .     A
C781   C787    1.405   .     A
C781   C783    1.415   .     A
C782   C788    1.405   .     A
C782   C784    1.416   .     A
C783   C838    1.415   .     S
C784   C837    1.415   1_455 S
C785   H791    1.081   .     S
C785   C842    1.385   .     S
C786   H792    1.081   .     S
C786   C841    1.386   1_455 S
C787   H793    1.080   .     S
C787   C840    1.386   .     S
C788   H794    1.080   .     S
C788   C839    1.385   1_455 S
C790   C897    1.193   .     S
C795   O797    1.395   .     S
C795   O796    1.223   .     D
O797   H798    1.011   .     S
C799   O800    1.223   .     D
C799   O801    1.395   .     S
O801   H802    1.011   .     S
C803   O804    1.222   .     D
C803   O805    1.398   .     S
O805   H806    1.011   .     S
C807   O808    1.222   .     D
C807   O809    1.398   .     S
O809   H810    1.012   .     S
O811   C815    1.275   .     A
O811   Cu823   1.944   .     S
O812   C816    1.276   .     A
O812   Cu824   1.944   .     S
O813   Cu823   1.944   .     S
O813   C816    1.275   .     A
O814   Cu824   1.944   .     S
O814   C815    1.276   .     A
C815   C843    1.414   .     S
C816   C844    1.414   .     S
O817   C821    1.278   .     A
O817   Cu823   1.973   .     S
O818   C822    1.277   .     A
O818   Cu824   1.973   .     S
O819   C822    1.278   .     A
O819   Cu823   1.973   .     S
O820   C821    1.278   .     A
O820   Cu824   1.973   .     S
C821   C832    1.460   .     S
C822   C831    1.460   .     S
Cu823  N826    1.980   .     S
Cu823  Cu824   2.635   .     S
Cu824  N825    1.980   .     S
N826   N177    1.197   1_556 S
C827   C835    1.411   .     A
C827   C849    1.483   .     S
C827   C831    1.409   .     A
C828   C853    1.483   .     S
C828   C832    1.408   .     A
C828   C836    1.409   .     A
C829   C833    1.407   .     A
C829   C831    1.408   .     A
C829   C857    1.483   .     S
C830   C861    1.483   .     S
C830   C832    1.408   .     A
C830   C834    1.408   .     A
C833   C839    1.404   .     A
C833   C837    1.413   .     A
C834   C840    1.405   .     A
C834   C838    1.414   .     A
C835   C841    1.405   .     A
C835   C837    1.415   .     A
C836   C842    1.405   .     A
C836   C838    1.416   .     A
C837   C784    1.415   1_655 S
C839   H845    1.081   .     S
C839   C788    1.385   1_655 S
C840   H846    1.081   .     S
C841   H847    1.080   .     S
C841   C786    1.386   1_655 S
C842   H848    1.080   .     S
C844   C951    1.193   .     S
C849   O851    1.395   .     S
C849   O850    1.223   .     D
O851   H852    1.011   .     S
C853   O854    1.223   .     D
C853   O855    1.395   .     S
O855   H856    1.011   .     S
C857   O858    1.222   .     D
C857   O859    1.398   .     S
O859   H860    1.011   .     S
C861   O862    1.222   .     D
C861   O863    1.398   .     S
O863   H864    1.012   .     S
O865   C869    1.275   .     A
O865   Cu877   1.944   .     S
O866   C870    1.276   .     A
O866   Cu878   1.944   .     S
O867   Cu877   1.944   .     S
O867   C870    1.275   .     A
O868   Cu878   1.944   .     S
O868   C869    1.276   .     A
C869   C897    1.414   .     S
C870   C898    1.414   .     S
O871   C875    1.278   .     A
O871   Cu877   1.973   .     S
O872   C876    1.277   .     A
O872   Cu878   1.973   .     S
O873   C876    1.278   .     A
O873   Cu877   1.973   .     S
O874   C875    1.278   .     A
O874   Cu878   1.973   .     S
C875   C886    1.460   .     S
C876   C885    1.460   .     S
Cu877  N880    1.980   .     S
Cu877  Cu878   2.635   .     S
Cu878  N879    1.980   .     S
N880   N231    1.197   1_556 S
C881   C889    1.411   .     A
C881   C903    1.483   .     S
C881   C885    1.409   .     A
C882   C907    1.483   .     S
C882   C886    1.408   .     A
C882   C890    1.409   .     A
C883   C887    1.407   .     A
C883   C885    1.408   .     A
C883   C911    1.483   .     S
C884   C915    1.483   .     S
C884   C886    1.408   .     A
C884   C888    1.408   .     A
C887   C893    1.404   .     A
C887   C891    1.413   .     A
C888   C894    1.405   .     A
C888   C892    1.414   .     A
C889   C895    1.405   .     A
C889   C891    1.415   .     A
C890   C896    1.405   .     A
C890   C892    1.416   .     A
C891   C946    1.415   .     S
C892   C945    1.415   1_455 S
C893   H899    1.081   .     S
C893   C950    1.385   .     S
C894   H900    1.081   .     S
C894   C949    1.386   1_455 S
C895   H901    1.080   .     S
C895   C948    1.386   .     S
C896   H902    1.080   .     S
C896   C947    1.385   1_455 S
C898   C681    1.193   1_565 S
C903   O905    1.395   .     S
C903   O904    1.223   .     D
O905   H906    1.011   .     S
C907   O908    1.223   .     D
C907   O909    1.395   .     S
O909   H910    1.011   .     S
C911   O912    1.222   .     D
C911   O913    1.398   .     S
O913   H914    1.011   .     S
C915   O916    1.222   .     D
C915   O917    1.398   .     S
O917   H918    1.012   .     S
O919   C923    1.275   .     A
O919   Cu931   1.944   .     S
O920   C924    1.276   .     A
O920   Cu932   1.944   .     S
O921   Cu931   1.944   .     S
O921   C924    1.275   .     A
O922   Cu932   1.944   .     S
O922   C923    1.276   .     A
C923   C951    1.414   .     S
C924   C952    1.414   .     S
O925   C929    1.278   .     A
O925   Cu931   1.973   .     S
O926   C930    1.277   .     A
O926   Cu932   1.973   .     S
O927   C930    1.278   .     A
O927   Cu931   1.973   .     S
O928   C929    1.278   .     A
O928   Cu932   1.973   .     S
C929   C940    1.460   .     S
C930   C939    1.460   .     S
Cu931  N934    1.980   .     S
Cu931  Cu932   2.635   .     S
Cu932  N933    1.980   .     S
N934   N285    1.197   1_556 S
C935   C943    1.411   .     A
C935   C957    1.483   .     S
C935   C939    1.409   .     A
C936   C961    1.483   .     S
C936   C940    1.408   .     A
C936   C944    1.409   .     A
C937   C941    1.407   .     A
C937   C939    1.408   .     A
C937   C965    1.483   .     S
C938   C969    1.483   .     S
C938   C940    1.408   .     A
C938   C942    1.408   .     A
C941   C947    1.404   .     A
C941   C945    1.413   .     A
C942   C948    1.405   .     A
C942   C946    1.414   .     A
C943   C949    1.405   .     A
C943   C945    1.415   .     A
C944   C950    1.405   .     A
C944   C946    1.416   .     A
C945   C892    1.415   1_655 S
C947   H953    1.081   .     S
C947   C896    1.385   1_655 S
C948   H954    1.081   .     S
C949   H955    1.080   .     S
C949   C894    1.386   1_655 S
C950   H956    1.080   .     S
C952   C735    1.193   1_565 S
C957   O959    1.395   .     S
C957   O958    1.223   .     D
O959   H960    1.011   .     S
C961   O962    1.223   .     D
C961   O963    1.395   .     S
O963   H964    1.011   .     S
C965   O966    1.222   .     D
C965   O967    1.398   .     S
O967   H968    1.011   .     S
C969   O970    1.222   .     D
C969   O971    1.398   .     S
O971   H972    1.012   .     S
