data_str_m1_o10_o16_pcu_sym.80
_audit_creation_date              2020-01-03
_audit_creation_method            'Materials Studio'
_symmetry_space_group_name_H-M    'P1'
_symmetry_Int_Tables_number       1
_symmetry_cell_setting            triclinic
loop_
_symmetry_equiv_pos_as_xyz
  x,y,z
_cell_length_a                    32.6031
_cell_length_b                    32.5930
_cell_length_c                    30.9814
_cell_angle_alpha                 96.7558
_cell_angle_beta                  74.9449
_cell_angle_gamma                 98.4532
loop_
_atom_site_label
_atom_site_type_symbol
_atom_site_fract_x
_atom_site_fract_y
_atom_site_fract_z
_atom_site_U_iso_or_equiv
_atom_site_adp_type
_atom_site_occupancy
C1     C     0.05288   0.15979   0.25975   0.00000  Uiso   1.00
C2     C     0.17857   0.16629   0.05735   0.00000  Uiso   1.00
C3     C     0.20133   0.10003   0.06167   0.00000  Uiso   1.00
C4     C     0.28068   0.17372   0.24015   0.00000  Uiso   1.00
C5     C     0.14150   0.19341   0.41983   0.00000  Uiso   1.00
C6     C     0.32638   0.17619   0.23650   0.00000  Uiso   1.00
C7     C     0.00771   0.15685   0.26424   0.00000  Uiso   1.00
C8     C     0.18008   0.32241   0.23714   0.00000  Uiso   1.00
C9     C     0.15143   0.01207   0.26410   0.00000  Uiso   1.00
C10    C     0.15631   0.05593   0.25998   0.00000  Uiso   1.00
C11    C     0.17645   0.27786   0.24031   0.00000  Uiso   1.00
C12    C     0.13900   0.24868   0.47984   0.00000  Uiso   1.00
C13    C     0.18514   0.14793   0.12939   0.00000  Uiso   1.00
C14    C     0.14798   0.18416   0.37101   0.00000  Uiso   1.00
C15    C     0.19623   0.08652   0.01866   0.00000  Uiso   1.00
C16    C     0.19128   0.13911   0.08124   0.00000  Uiso   1.00
C17    C     0.13445   0.23415   0.43720   0.00000  Uiso   1.00
C18    C     0.15213   0.22265   0.00512   0.00000  Uiso   1.00
C19    C     0.15766   0.18059   0.48958   0.00000  Uiso   1.00
C20    C     0.14866   0.16495   0.44771   0.00000  Uiso   1.00
C21    C     0.17209   0.15375   0.01422   0.00000  Uiso   1.00
C22    C     0.17887   0.11233   0.49587   0.00000  Uiso   1.00
C23    C     0.16481   0.09649   0.45732   0.00000  Uiso   1.00
C24    C     0.14699   0.12143   0.43536   0.00000  Uiso   1.00
F25    F     0.31484   0.13430   0.29722   0.00000  Uiso   1.00
F26    F     0.11719   0.32897   0.29531   0.00000  Uiso   1.00
F27    F     0.16425   0.05543   0.44289   0.00000  Uiso   1.00
H28    H     0.21147   0.07939   0.08082   0.00000  Uiso   1.00
H29    H     0.13652   0.29737   0.02860   0.00000  Uiso   1.00
H30    H     0.14201   0.09102   0.37509   0.00000  Uiso   1.00
H31    H     0.09986   0.11858   0.40091   0.00000  Uiso   1.00
H32    H     0.20670   0.00350   0.21234   0.00000  Uiso   1.00
H33    H     0.17058   0.19559   0.07515   0.00000  Uiso   1.00
H34    H     0.12770   0.25576   0.41662   0.00000  Uiso   1.00
H35    H     0.15814   0.23654   0.03646   0.00000  Uiso   1.00
H36    H     0.01521   0.19403   0.21074   0.00000  Uiso   1.00
H37    H     0.23414   0.05107   0.47192   0.00000  Uiso   1.00
H38    H     0.21679   0.03032   0.02139   0.00000  Uiso   1.00
H39    H     0.15568   0.31032   0.47561   0.00000  Uiso   1.00
N40    N     0.20741   0.04624   0.49884   0.00000  Uiso   1.00
N41    N     0.13217   0.29085   0.49611   0.00000  Uiso   1.00
N42    N     0.12180   0.10029   0.40569   0.00000  Uiso   1.00
O43    O     0.16667   0.16667   0.25000   0.00000  Uiso   1.00
O44    O     0.15451   0.12637   0.15459   0.00000  Uiso   1.00
O45    O     0.12940   0.20391   0.34968   0.00000  Uiso   1.00
O46    O     0.20824   0.17759   0.14606   0.00000  Uiso   1.00
O47    O     0.17451   0.15880   0.34968   0.00000  Uiso   1.00
O48    O     0.17930   0.08019   0.28214   0.00000  Uiso   1.00
O49    O     0.14632   0.26085   0.27014   0.00000  Uiso   1.00
O50    O     0.07412   0.13291   0.23413   0.00000  Uiso   1.00
O51    O     0.26693   0.19272   0.21361   0.00000  Uiso   1.00
O52    O     0.07071   0.18878   0.28213   0.00000  Uiso   1.00
O53    O     0.25491   0.15226   0.27014   0.00000  Uiso   1.00
O54    O     0.13760   0.06944   0.23413   0.00000  Uiso   1.00
O55    O     0.20345   0.25620   0.21361   0.00000  Uiso   1.00
Zn56   Zn    0.19338   0.13994   0.28734   0.00000  Uiso   1.00
Zn57   Zn    0.13379   0.12458   0.21876   0.00000  Uiso   1.00
Zn58   Zn    0.21056   0.19775   0.20657   0.00000  Uiso   1.00
Zn59   Zn    0.12893   0.20439   0.28734   0.00000  Uiso   1.00
C60    C     0.38622   0.15979   0.25975   0.00000  Uiso   1.00
C61    C     0.51191   0.16629   0.05735   0.00000  Uiso   1.00
C62    C     0.53467   0.10003   0.06167   0.00000  Uiso   1.00
C63    C     0.61402   0.17372   0.24015   0.00000  Uiso   1.00
C64    C     0.47483   0.19341   0.41983   0.00000  Uiso   1.00
C65    C     0.65971   0.17619   0.23650   0.00000  Uiso   1.00
C66    C     0.34104   0.15685   0.26424   0.00000  Uiso   1.00
C67    C     0.51341   0.32241   0.23714   0.00000  Uiso   1.00
C68    C     0.48476   0.01207   0.26410   0.00000  Uiso   1.00
C69    C     0.48964   0.05593   0.25998   0.00000  Uiso   1.00
C70    C     0.50978   0.27786   0.24031   0.00000  Uiso   1.00
C71    C     0.47233   0.24868   0.47984   0.00000  Uiso   1.00
C72    C     0.51848   0.14793   0.12939   0.00000  Uiso   1.00
C73    C     0.48132   0.18416   0.37101   0.00000  Uiso   1.00
C74    C     0.52957   0.08652   0.01866   0.00000  Uiso   1.00
C75    C     0.52461   0.13911   0.08124   0.00000  Uiso   1.00
C76    C     0.46778   0.23415   0.43720   0.00000  Uiso   1.00
C77    C     0.48546   0.22265   0.00512   0.00000  Uiso   1.00
C78    C     0.49099   0.18059   0.48958   0.00000  Uiso   1.00
C79    C     0.48199   0.16495   0.44771   0.00000  Uiso   1.00
C80    C     0.50542   0.15375   0.01422   0.00000  Uiso   1.00
C81    C     0.51220   0.11233   0.49587   0.00000  Uiso   1.00
C82    C     0.49814   0.09649   0.45732   0.00000  Uiso   1.00
C83    C     0.48032   0.12143   0.43536   0.00000  Uiso   1.00
F84    F     0.64817   0.13430   0.29722   0.00000  Uiso   1.00
F85    F     0.45053   0.32897   0.29531   0.00000  Uiso   1.00
F86    F     0.49758   0.05543   0.44289   0.00000  Uiso   1.00
H87    H     0.54480   0.07939   0.08082   0.00000  Uiso   1.00
H88    H     0.46986   0.29737   0.02860   0.00000  Uiso   1.00
H89    H     0.47534   0.09102   0.37509   0.00000  Uiso   1.00
H90    H     0.43319   0.11858   0.40091   0.00000  Uiso   1.00
H91    H     0.54003   0.00350   0.21234   0.00000  Uiso   1.00
H92    H     0.50391   0.19559   0.07515   0.00000  Uiso   1.00
H93    H     0.46103   0.25576   0.41662   0.00000  Uiso   1.00
H94    H     0.49147   0.23654   0.03646   0.00000  Uiso   1.00
H95    H     0.34854   0.19403   0.21074   0.00000  Uiso   1.00
H96    H     0.56747   0.05107   0.47192   0.00000  Uiso   1.00
H97    H     0.55012   0.03032   0.02139   0.00000  Uiso   1.00
H98    H     0.48901   0.31032   0.47561   0.00000  Uiso   1.00
N99    N     0.54075   0.04624   0.49884   0.00000  Uiso   1.00
N100   N     0.46550   0.29085   0.49611   0.00000  Uiso   1.00
N101   N     0.45513   0.10029   0.40569   0.00000  Uiso   1.00
O102   O     0.50000   0.16667   0.25000   0.00000  Uiso   1.00
O103   O     0.48784   0.12637   0.15459   0.00000  Uiso   1.00
O104   O     0.46274   0.20391   0.34968   0.00000  Uiso   1.00
O105   O     0.54157   0.17759   0.14606   0.00000  Uiso   1.00
O106   O     0.50785   0.15880   0.34968   0.00000  Uiso   1.00
O107   O     0.51264   0.08019   0.28214   0.00000  Uiso   1.00
O108   O     0.47965   0.26085   0.27014   0.00000  Uiso   1.00
O109   O     0.40745   0.13291   0.23413   0.00000  Uiso   1.00
O110   O     0.60026   0.19272   0.21361   0.00000  Uiso   1.00
O111   O     0.40405   0.18878   0.28213   0.00000  Uiso   1.00
O112   O     0.58824   0.15226   0.27014   0.00000  Uiso   1.00
O113   O     0.47093   0.06944   0.23413   0.00000  Uiso   1.00
O114   O     0.53678   0.25620   0.21361   0.00000  Uiso   1.00
Zn115  Zn    0.52672   0.13994   0.28734   0.00000  Uiso   1.00
Zn116  Zn    0.46713   0.12458   0.21876   0.00000  Uiso   1.00
Zn117  Zn    0.54389   0.19775   0.20657   0.00000  Uiso   1.00
Zn118  Zn    0.46226   0.20439   0.28734   0.00000  Uiso   1.00
C119   C     0.71955   0.15979   0.25975   0.00000  Uiso   1.00
C120   C     0.84524   0.16629   0.05735   0.00000  Uiso   1.00
C121   C     0.86800   0.10003   0.06167   0.00000  Uiso   1.00
C122   C     0.94735   0.17372   0.24015   0.00000  Uiso   1.00
C123   C     0.80817   0.19341   0.41983   0.00000  Uiso   1.00
C124   C     0.99304   0.17619   0.23650   0.00000  Uiso   1.00
C125   C     0.67438   0.15685   0.26424   0.00000  Uiso   1.00
C126   C     0.84675   0.32241   0.23714   0.00000  Uiso   1.00
C127   C     0.81809   0.01207   0.26410   0.00000  Uiso   1.00
C128   C     0.82297   0.05593   0.25998   0.00000  Uiso   1.00
C129   C     0.84312   0.27786   0.24031   0.00000  Uiso   1.00
C130   C     0.80567   0.24868   0.47984   0.00000  Uiso   1.00
C131   C     0.85181   0.14793   0.12939   0.00000  Uiso   1.00
C132   C     0.81465   0.18416   0.37101   0.00000  Uiso   1.00
C133   C     0.86290   0.08652   0.01866   0.00000  Uiso   1.00
C134   C     0.85795   0.13911   0.08124   0.00000  Uiso   1.00
C135   C     0.80111   0.23415   0.43720   0.00000  Uiso   1.00
C136   C     0.81880   0.22265   0.00512   0.00000  Uiso   1.00
C137   C     0.82432   0.18059   0.48958   0.00000  Uiso   1.00
C138   C     0.81533   0.16495   0.44771   0.00000  Uiso   1.00
C139   C     0.83876   0.15375   0.01422   0.00000  Uiso   1.00
C140   C     0.84554   0.11233   0.49587   0.00000  Uiso   1.00
C141   C     0.83147   0.09649   0.45732   0.00000  Uiso   1.00
C142   C     0.81366   0.12143   0.43536   0.00000  Uiso   1.00
F143   F     0.98150   0.13430   0.29722   0.00000  Uiso   1.00
F144   F     0.78386   0.32897   0.29531   0.00000  Uiso   1.00
F145   F     0.83092   0.05543   0.44289   0.00000  Uiso   1.00
H146   H     0.87814   0.07939   0.08082   0.00000  Uiso   1.00
H147   H     0.80319   0.29737   0.02860   0.00000  Uiso   1.00
H148   H     0.80867   0.09102   0.37509   0.00000  Uiso   1.00
H149   H     0.76652   0.11858   0.40091   0.00000  Uiso   1.00
H150   H     0.87337   0.00350   0.21234   0.00000  Uiso   1.00
H151   H     0.83725   0.19559   0.07515   0.00000  Uiso   1.00
H152   H     0.79436   0.25576   0.41662   0.00000  Uiso   1.00
H153   H     0.82481   0.23654   0.03646   0.00000  Uiso   1.00
H154   H     0.68187   0.19403   0.21074   0.00000  Uiso   1.00
H155   H     0.90080   0.05107   0.47192   0.00000  Uiso   1.00
H156   H     0.88345   0.03032   0.02139   0.00000  Uiso   1.00
H157   H     0.82234   0.31032   0.47561   0.00000  Uiso   1.00
N158   N     0.87408   0.04624   0.49884   0.00000  Uiso   1.00
N159   N     0.79883   0.29085   0.49611   0.00000  Uiso   1.00
N160   N     0.78847   0.10029   0.40569   0.00000  Uiso   1.00
O161   O     0.83333   0.16667   0.25000   0.00000  Uiso   1.00
O162   O     0.82118   0.12637   0.15459   0.00000  Uiso   1.00
O163   O     0.79607   0.20391   0.34968   0.00000  Uiso   1.00
O164   O     0.87491   0.17759   0.14606   0.00000  Uiso   1.00
O165   O     0.84118   0.15880   0.34968   0.00000  Uiso   1.00
O166   O     0.84597   0.08019   0.28214   0.00000  Uiso   1.00
O167   O     0.81298   0.26085   0.27014   0.00000  Uiso   1.00
O168   O     0.74078   0.13291   0.23413   0.00000  Uiso   1.00
O169   O     0.93360   0.19272   0.21361   0.00000  Uiso   1.00
O170   O     0.73738   0.18878   0.28213   0.00000  Uiso   1.00
O171   O     0.92158   0.15226   0.27014   0.00000  Uiso   1.00
O172   O     0.80426   0.06944   0.23413   0.00000  Uiso   1.00
O173   O     0.87012   0.25620   0.21361   0.00000  Uiso   1.00
Zn174  Zn    0.86005   0.13994   0.28734   0.00000  Uiso   1.00
Zn175  Zn    0.80046   0.12458   0.21876   0.00000  Uiso   1.00
Zn176  Zn    0.87723   0.19775   0.20657   0.00000  Uiso   1.00
Zn177  Zn    0.79560   0.20439   0.28734   0.00000  Uiso   1.00
C178   C     0.05288   0.49312   0.25975   0.00000  Uiso   1.00
C179   C     0.17857   0.49963   0.05735   0.00000  Uiso   1.00
C180   C     0.20133   0.43337   0.06167   0.00000  Uiso   1.00
C181   C     0.28068   0.50705   0.24015   0.00000  Uiso   1.00
C182   C     0.14150   0.52675   0.41983   0.00000  Uiso   1.00
C183   C     0.32638   0.50952   0.23650   0.00000  Uiso   1.00
C184   C     0.00771   0.49019   0.26424   0.00000  Uiso   1.00
C185   C     0.18008   0.65574   0.23714   0.00000  Uiso   1.00
C186   C     0.15143   0.34541   0.26410   0.00000  Uiso   1.00
C187   C     0.15631   0.38926   0.25998   0.00000  Uiso   1.00
C188   C     0.17645   0.61119   0.24031   0.00000  Uiso   1.00
C189   C     0.13900   0.58201   0.47984   0.00000  Uiso   1.00
C190   C     0.18514   0.48126   0.12939   0.00000  Uiso   1.00
C191   C     0.14798   0.51749   0.37101   0.00000  Uiso   1.00
C192   C     0.19623   0.41985   0.01866   0.00000  Uiso   1.00
C193   C     0.19128   0.47245   0.08124   0.00000  Uiso   1.00
C194   C     0.13445   0.56748   0.43720   0.00000  Uiso   1.00
C195   C     0.15213   0.55598   0.00512   0.00000  Uiso   1.00
C196   C     0.15766   0.51392   0.48958   0.00000  Uiso   1.00
C197   C     0.14866   0.49828   0.44771   0.00000  Uiso   1.00
C198   C     0.17209   0.48708   0.01422   0.00000  Uiso   1.00
C199   C     0.17887   0.44566   0.49587   0.00000  Uiso   1.00
C200   C     0.16481   0.42983   0.45732   0.00000  Uiso   1.00
C201   C     0.14699   0.45477   0.43536   0.00000  Uiso   1.00
F202   F     0.31484   0.46763   0.29722   0.00000  Uiso   1.00
F203   F     0.11719   0.66231   0.29531   0.00000  Uiso   1.00
F204   F     0.16425   0.38877   0.44289   0.00000  Uiso   1.00
H205   H     0.21147   0.41272   0.08082   0.00000  Uiso   1.00
H206   H     0.13652   0.63070   0.02860   0.00000  Uiso   1.00
H207   H     0.14201   0.42435   0.37509   0.00000  Uiso   1.00
H208   H     0.09986   0.45191   0.40091   0.00000  Uiso   1.00
H209   H     0.20670   0.33684   0.21234   0.00000  Uiso   1.00
H210   H     0.17058   0.52892   0.07515   0.00000  Uiso   1.00
H211   H     0.12770   0.58909   0.41662   0.00000  Uiso   1.00
H212   H     0.15814   0.56987   0.03646   0.00000  Uiso   1.00
H213   H     0.01521   0.52737   0.21074   0.00000  Uiso   1.00
H214   H     0.23414   0.38440   0.47192   0.00000  Uiso   1.00
H215   H     0.21679   0.36366   0.02139   0.00000  Uiso   1.00
H216   H     0.15568   0.64365   0.47561   0.00000  Uiso   1.00
N217   N     0.20741   0.37957   0.49884   0.00000  Uiso   1.00
N218   N     0.13217   0.62418   0.49611   0.00000  Uiso   1.00
N219   N     0.12180   0.43362   0.40569   0.00000  Uiso   1.00
O220   O     0.16667   0.50000   0.25000   0.00000  Uiso   1.00
O221   O     0.15451   0.45970   0.15459   0.00000  Uiso   1.00
O222   O     0.12940   0.53724   0.34968   0.00000  Uiso   1.00
O223   O     0.20824   0.51092   0.14606   0.00000  Uiso   1.00
O224   O     0.17451   0.49213   0.34968   0.00000  Uiso   1.00
O225   O     0.17930   0.41352   0.28214   0.00000  Uiso   1.00
O226   O     0.14632   0.59418   0.27014   0.00000  Uiso   1.00
O227   O     0.07412   0.46625   0.23413   0.00000  Uiso   1.00
O228   O     0.26693   0.52605   0.21361   0.00000  Uiso   1.00
O229   O     0.07071   0.52211   0.28213   0.00000  Uiso   1.00
O230   O     0.25491   0.48559   0.27014   0.00000  Uiso   1.00
O231   O     0.13760   0.40277   0.23413   0.00000  Uiso   1.00
O232   O     0.20345   0.58953   0.21361   0.00000  Uiso   1.00
Zn233  Zn    0.19338   0.47327   0.28734   0.00000  Uiso   1.00
Zn234  Zn    0.13379   0.45791   0.21876   0.00000  Uiso   1.00
Zn235  Zn    0.21056   0.53109   0.20657   0.00000  Uiso   1.00
Zn236  Zn    0.12893   0.53773   0.28734   0.00000  Uiso   1.00
C237   C     0.38622   0.49312   0.25975   0.00000  Uiso   1.00
C238   C     0.51191   0.49963   0.05735   0.00000  Uiso   1.00
C239   C     0.53467   0.43337   0.06167   0.00000  Uiso   1.00
C240   C     0.61402   0.50705   0.24015   0.00000  Uiso   1.00
C241   C     0.47483   0.52675   0.41983   0.00000  Uiso   1.00
C242   C     0.65971   0.50952   0.23650   0.00000  Uiso   1.00
C243   C     0.34104   0.49019   0.26424   0.00000  Uiso   1.00
C244   C     0.51341   0.65574   0.23714   0.00000  Uiso   1.00
C245   C     0.48476   0.34541   0.26410   0.00000  Uiso   1.00
C246   C     0.48964   0.38926   0.25998   0.00000  Uiso   1.00
C247   C     0.50978   0.61119   0.24031   0.00000  Uiso   1.00
C248   C     0.47233   0.58201   0.47984   0.00000  Uiso   1.00
C249   C     0.51848   0.48126   0.12939   0.00000  Uiso   1.00
C250   C     0.48132   0.51749   0.37101   0.00000  Uiso   1.00
C251   C     0.52957   0.41985   0.01866   0.00000  Uiso   1.00
C252   C     0.52461   0.47245   0.08124   0.00000  Uiso   1.00
C253   C     0.46778   0.56748   0.43720   0.00000  Uiso   1.00
C254   C     0.48546   0.55598   0.00512   0.00000  Uiso   1.00
C255   C     0.49099   0.51392   0.48958   0.00000  Uiso   1.00
C256   C     0.48199   0.49828   0.44771   0.00000  Uiso   1.00
C257   C     0.50542   0.48708   0.01422   0.00000  Uiso   1.00
C258   C     0.51220   0.44566   0.49587   0.00000  Uiso   1.00
C259   C     0.49814   0.42983   0.45732   0.00000  Uiso   1.00
C260   C     0.48032   0.45477   0.43536   0.00000  Uiso   1.00
F261   F     0.64817   0.46763   0.29722   0.00000  Uiso   1.00
F262   F     0.45053   0.66231   0.29531   0.00000  Uiso   1.00
F263   F     0.49758   0.38877   0.44289   0.00000  Uiso   1.00
H264   H     0.54480   0.41272   0.08082   0.00000  Uiso   1.00
H265   H     0.46986   0.63070   0.02860   0.00000  Uiso   1.00
H266   H     0.47534   0.42435   0.37509   0.00000  Uiso   1.00
H267   H     0.43319   0.45191   0.40091   0.00000  Uiso   1.00
H268   H     0.54003   0.33684   0.21234   0.00000  Uiso   1.00
H269   H     0.50391   0.52892   0.07515   0.00000  Uiso   1.00
H270   H     0.46103   0.58909   0.41662   0.00000  Uiso   1.00
H271   H     0.49147   0.56987   0.03646   0.00000  Uiso   1.00
H272   H     0.34854   0.52737   0.21074   0.00000  Uiso   1.00
H273   H     0.56747   0.38440   0.47192   0.00000  Uiso   1.00
H274   H     0.55012   0.36366   0.02139   0.00000  Uiso   1.00
H275   H     0.48901   0.64365   0.47561   0.00000  Uiso   1.00
N276   N     0.54075   0.37957   0.49884   0.00000  Uiso   1.00
N277   N     0.46550   0.62418   0.49611   0.00000  Uiso   1.00
N278   N     0.45513   0.43362   0.40569   0.00000  Uiso   1.00
O279   O     0.50000   0.50000   0.25000   0.00000  Uiso   1.00
O280   O     0.48784   0.45970   0.15459   0.00000  Uiso   1.00
O281   O     0.46274   0.53724   0.34968   0.00000  Uiso   1.00
O282   O     0.54157   0.51092   0.14606   0.00000  Uiso   1.00
O283   O     0.50785   0.49213   0.34968   0.00000  Uiso   1.00
O284   O     0.51264   0.41352   0.28214   0.00000  Uiso   1.00
O285   O     0.47965   0.59418   0.27014   0.00000  Uiso   1.00
O286   O     0.40745   0.46625   0.23413   0.00000  Uiso   1.00
O287   O     0.60026   0.52605   0.21361   0.00000  Uiso   1.00
O288   O     0.40405   0.52211   0.28213   0.00000  Uiso   1.00
O289   O     0.58824   0.48559   0.27014   0.00000  Uiso   1.00
O290   O     0.47093   0.40277   0.23413   0.00000  Uiso   1.00
O291   O     0.53678   0.58953   0.21361   0.00000  Uiso   1.00
Zn292  Zn    0.52672   0.47327   0.28734   0.00000  Uiso   1.00
Zn293  Zn    0.46713   0.45791   0.21876   0.00000  Uiso   1.00
Zn294  Zn    0.54389   0.53109   0.20657   0.00000  Uiso   1.00
Zn295  Zn    0.46226   0.53773   0.28734   0.00000  Uiso   1.00
C296   C     0.71955   0.49312   0.25975   0.00000  Uiso   1.00
C297   C     0.84524   0.49963   0.05735   0.00000  Uiso   1.00
C298   C     0.86800   0.43337   0.06167   0.00000  Uiso   1.00
C299   C     0.94735   0.50705   0.24015   0.00000  Uiso   1.00
C300   C     0.80817   0.52675   0.41983   0.00000  Uiso   1.00
C301   C     0.99304   0.50952   0.23650   0.00000  Uiso   1.00
C302   C     0.67438   0.49019   0.26424   0.00000  Uiso   1.00
C303   C     0.84675   0.65574   0.23714   0.00000  Uiso   1.00
C304   C     0.81809   0.34541   0.26410   0.00000  Uiso   1.00
C305   C     0.82297   0.38926   0.25998   0.00000  Uiso   1.00
C306   C     0.84312   0.61119   0.24031   0.00000  Uiso   1.00
C307   C     0.80567   0.58201   0.47984   0.00000  Uiso   1.00
C308   C     0.85181   0.48126   0.12939   0.00000  Uiso   1.00
C309   C     0.81465   0.51749   0.37101   0.00000  Uiso   1.00
C310   C     0.86290   0.41985   0.01866   0.00000  Uiso   1.00
C311   C     0.85795   0.47245   0.08124   0.00000  Uiso   1.00
C312   C     0.80111   0.56748   0.43720   0.00000  Uiso   1.00
C313   C     0.81880   0.55598   0.00512   0.00000  Uiso   1.00
C314   C     0.82432   0.51392   0.48958   0.00000  Uiso   1.00
C315   C     0.81533   0.49828   0.44771   0.00000  Uiso   1.00
C316   C     0.83876   0.48708   0.01422   0.00000  Uiso   1.00
C317   C     0.84554   0.44566   0.49587   0.00000  Uiso   1.00
C318   C     0.83147   0.42983   0.45732   0.00000  Uiso   1.00
C319   C     0.81366   0.45477   0.43536   0.00000  Uiso   1.00
F320   F     0.98150   0.46763   0.29722   0.00000  Uiso   1.00
F321   F     0.78386   0.66231   0.29531   0.00000  Uiso   1.00
F322   F     0.83092   0.38877   0.44289   0.00000  Uiso   1.00
H323   H     0.87814   0.41272   0.08082   0.00000  Uiso   1.00
H324   H     0.80319   0.63070   0.02860   0.00000  Uiso   1.00
H325   H     0.80867   0.42435   0.37509   0.00000  Uiso   1.00
H326   H     0.76652   0.45191   0.40091   0.00000  Uiso   1.00
H327   H     0.87337   0.33684   0.21234   0.00000  Uiso   1.00
H328   H     0.83725   0.52892   0.07515   0.00000  Uiso   1.00
H329   H     0.79436   0.58909   0.41662   0.00000  Uiso   1.00
H330   H     0.82481   0.56987   0.03646   0.00000  Uiso   1.00
H331   H     0.68187   0.52737   0.21074   0.00000  Uiso   1.00
H332   H     0.90080   0.38440   0.47192   0.00000  Uiso   1.00
H333   H     0.88345   0.36366   0.02139   0.00000  Uiso   1.00
H334   H     0.82234   0.64365   0.47561   0.00000  Uiso   1.00
N335   N     0.87408   0.37957   0.49884   0.00000  Uiso   1.00
N336   N     0.79883   0.62418   0.49611   0.00000  Uiso   1.00
N337   N     0.78847   0.43362   0.40569   0.00000  Uiso   1.00
O338   O     0.83333   0.50000   0.25000   0.00000  Uiso   1.00
O339   O     0.82118   0.45970   0.15459   0.00000  Uiso   1.00
O340   O     0.79607   0.53724   0.34968   0.00000  Uiso   1.00
O341   O     0.87491   0.51092   0.14606   0.00000  Uiso   1.00
O342   O     0.84118   0.49213   0.34968   0.00000  Uiso   1.00
O343   O     0.84597   0.41352   0.28214   0.00000  Uiso   1.00
O344   O     0.81298   0.59418   0.27014   0.00000  Uiso   1.00
O345   O     0.74078   0.46625   0.23413   0.00000  Uiso   1.00
O346   O     0.93360   0.52605   0.21361   0.00000  Uiso   1.00
O347   O     0.73738   0.52211   0.28213   0.00000  Uiso   1.00
O348   O     0.92158   0.48559   0.27014   0.00000  Uiso   1.00
O349   O     0.80426   0.40277   0.23413   0.00000  Uiso   1.00
O350   O     0.87012   0.58953   0.21361   0.00000  Uiso   1.00
Zn351  Zn    0.86005   0.47327   0.28734   0.00000  Uiso   1.00
Zn352  Zn    0.80046   0.45791   0.21876   0.00000  Uiso   1.00
Zn353  Zn    0.87723   0.53109   0.20657   0.00000  Uiso   1.00
Zn354  Zn    0.79560   0.53773   0.28734   0.00000  Uiso   1.00
C355   C     0.05288   0.82646   0.25975   0.00000  Uiso   1.00
C356   C     0.17857   0.83296   0.05735   0.00000  Uiso   1.00
C357   C     0.20133   0.76670   0.06167   0.00000  Uiso   1.00
C358   C     0.28068   0.84039   0.24015   0.00000  Uiso   1.00
C359   C     0.14150   0.86008   0.41983   0.00000  Uiso   1.00
C360   C     0.32638   0.84286   0.23650   0.00000  Uiso   1.00
C361   C     0.00771   0.82352   0.26424   0.00000  Uiso   1.00
C362   C     0.18008   0.98907   0.23714   0.00000  Uiso   1.00
C363   C     0.15143   0.67874   0.26410   0.00000  Uiso   1.00
C364   C     0.15631   0.72259   0.25998   0.00000  Uiso   1.00
C365   C     0.17645   0.94453   0.24031   0.00000  Uiso   1.00
C366   C     0.13900   0.91534   0.47984   0.00000  Uiso   1.00
C367   C     0.18514   0.81460   0.12939   0.00000  Uiso   1.00
C368   C     0.14798   0.85082   0.37101   0.00000  Uiso   1.00
C369   C     0.19623   0.75318   0.01866   0.00000  Uiso   1.00
C370   C     0.19128   0.80578   0.08124   0.00000  Uiso   1.00
C371   C     0.13445   0.90081   0.43720   0.00000  Uiso   1.00
C372   C     0.15213   0.88932   0.00512   0.00000  Uiso   1.00
C373   C     0.15766   0.84726   0.48958   0.00000  Uiso   1.00
C374   C     0.14866   0.83162   0.44771   0.00000  Uiso   1.00
C375   C     0.17209   0.82042   0.01422   0.00000  Uiso   1.00
C376   C     0.17887   0.77900   0.49587   0.00000  Uiso   1.00
C377   C     0.16481   0.76316   0.45732   0.00000  Uiso   1.00
C378   C     0.14699   0.78810   0.43536   0.00000  Uiso   1.00
F379   F     0.31484   0.80096   0.29722   0.00000  Uiso   1.00
F380   F     0.11719   0.99564   0.29531   0.00000  Uiso   1.00
F381   F     0.16425   0.72210   0.44289   0.00000  Uiso   1.00
H382   H     0.21147   0.74605   0.08082   0.00000  Uiso   1.00
H383   H     0.13652   0.96403   0.02860   0.00000  Uiso   1.00
H384   H     0.14201   0.75769   0.37509   0.00000  Uiso   1.00
H385   H     0.09986   0.78525   0.40091   0.00000  Uiso   1.00
H386   H     0.20670   0.67017   0.21234   0.00000  Uiso   1.00
H387   H     0.17058   0.86226   0.07515   0.00000  Uiso   1.00
H388   H     0.12770   0.92242   0.41662   0.00000  Uiso   1.00
H389   H     0.15814   0.90321   0.03646   0.00000  Uiso   1.00
H390   H     0.01521   0.86070   0.21074   0.00000  Uiso   1.00
H391   H     0.23414   0.71774   0.47192   0.00000  Uiso   1.00
H392   H     0.21679   0.69699   0.02139   0.00000  Uiso   1.00
H393   H     0.15568   0.97698   0.47561   0.00000  Uiso   1.00
N394   N     0.20741   0.71291   0.49884   0.00000  Uiso   1.00
N395   N     0.13217   0.95751   0.49611   0.00000  Uiso   1.00
N396   N     0.12180   0.76696   0.40569   0.00000  Uiso   1.00
O397   O     0.16667   0.83333   0.25000   0.00000  Uiso   1.00
O398   O     0.15451   0.79304   0.15459   0.00000  Uiso   1.00
O399   O     0.12940   0.87058   0.34968   0.00000  Uiso   1.00
O400   O     0.20824   0.84425   0.14606   0.00000  Uiso   1.00
O401   O     0.17451   0.82546   0.34968   0.00000  Uiso   1.00
O402   O     0.17930   0.74686   0.28214   0.00000  Uiso   1.00
O403   O     0.14632   0.92751   0.27014   0.00000  Uiso   1.00
O404   O     0.07412   0.79958   0.23413   0.00000  Uiso   1.00
O405   O     0.26693   0.85939   0.21361   0.00000  Uiso   1.00
O406   O     0.07071   0.85544   0.28213   0.00000  Uiso   1.00
O407   O     0.25491   0.81892   0.27014   0.00000  Uiso   1.00
O408   O     0.13760   0.73610   0.23413   0.00000  Uiso   1.00
O409   O     0.20345   0.92286   0.21361   0.00000  Uiso   1.00
Zn410  Zn    0.19338   0.80661   0.28734   0.00000  Uiso   1.00
Zn411  Zn    0.13379   0.79124   0.21876   0.00000  Uiso   1.00
Zn412  Zn    0.21056   0.86442   0.20657   0.00000  Uiso   1.00
Zn413  Zn    0.12893   0.87106   0.28734   0.00000  Uiso   1.00
C414   C     0.38622   0.82646   0.25975   0.00000  Uiso   1.00
C415   C     0.51191   0.83296   0.05735   0.00000  Uiso   1.00
C416   C     0.53467   0.76670   0.06167   0.00000  Uiso   1.00
C417   C     0.61402   0.84039   0.24015   0.00000  Uiso   1.00
C418   C     0.47483   0.86008   0.41983   0.00000  Uiso   1.00
C419   C     0.65971   0.84286   0.23650   0.00000  Uiso   1.00
C420   C     0.34104   0.82352   0.26424   0.00000  Uiso   1.00
C421   C     0.51341   0.98907   0.23714   0.00000  Uiso   1.00
C422   C     0.48476   0.67874   0.26410   0.00000  Uiso   1.00
C423   C     0.48964   0.72259   0.25998   0.00000  Uiso   1.00
C424   C     0.50978   0.94453   0.24031   0.00000  Uiso   1.00
C425   C     0.47233   0.91534   0.47984   0.00000  Uiso   1.00
C426   C     0.51848   0.81460   0.12939   0.00000  Uiso   1.00
C427   C     0.48132   0.85082   0.37101   0.00000  Uiso   1.00
C428   C     0.52957   0.75318   0.01866   0.00000  Uiso   1.00
C429   C     0.52461   0.80578   0.08124   0.00000  Uiso   1.00
C430   C     0.46778   0.90081   0.43720   0.00000  Uiso   1.00
C431   C     0.48546   0.88932   0.00512   0.00000  Uiso   1.00
C432   C     0.49099   0.84726   0.48958   0.00000  Uiso   1.00
C433   C     0.48199   0.83162   0.44771   0.00000  Uiso   1.00
C434   C     0.50542   0.82042   0.01422   0.00000  Uiso   1.00
C435   C     0.51220   0.77900   0.49587   0.00000  Uiso   1.00
C436   C     0.49814   0.76316   0.45732   0.00000  Uiso   1.00
C437   C     0.48032   0.78810   0.43536   0.00000  Uiso   1.00
F438   F     0.64817   0.80096   0.29722   0.00000  Uiso   1.00
F439   F     0.45053   0.99564   0.29531   0.00000  Uiso   1.00
F440   F     0.49758   0.72210   0.44289   0.00000  Uiso   1.00
H441   H     0.54480   0.74605   0.08082   0.00000  Uiso   1.00
H442   H     0.46986   0.96403   0.02860   0.00000  Uiso   1.00
H443   H     0.47534   0.75769   0.37509   0.00000  Uiso   1.00
H444   H     0.43319   0.78525   0.40091   0.00000  Uiso   1.00
H445   H     0.54003   0.67017   0.21234   0.00000  Uiso   1.00
H446   H     0.50391   0.86226   0.07515   0.00000  Uiso   1.00
H447   H     0.46103   0.92242   0.41662   0.00000  Uiso   1.00
H448   H     0.49147   0.90321   0.03646   0.00000  Uiso   1.00
H449   H     0.34854   0.86070   0.21074   0.00000  Uiso   1.00
H450   H     0.56747   0.71774   0.47192   0.00000  Uiso   1.00
H451   H     0.55012   0.69699   0.02139   0.00000  Uiso   1.00
H452   H     0.48901   0.97698   0.47561   0.00000  Uiso   1.00
N453   N     0.54075   0.71291   0.49884   0.00000  Uiso   1.00
N454   N     0.46550   0.95751   0.49611   0.00000  Uiso   1.00
N455   N     0.45513   0.76696   0.40569   0.00000  Uiso   1.00
O456   O     0.50000   0.83333   0.25000   0.00000  Uiso   1.00
O457   O     0.48784   0.79304   0.15459   0.00000  Uiso   1.00
O458   O     0.46274   0.87058   0.34968   0.00000  Uiso   1.00
O459   O     0.54157   0.84425   0.14606   0.00000  Uiso   1.00
O460   O     0.50785   0.82546   0.34968   0.00000  Uiso   1.00
O461   O     0.51264   0.74686   0.28214   0.00000  Uiso   1.00
O462   O     0.47965   0.92751   0.27014   0.00000  Uiso   1.00
O463   O     0.40745   0.79958   0.23413   0.00000  Uiso   1.00
O464   O     0.60026   0.85939   0.21361   0.00000  Uiso   1.00
O465   O     0.40405   0.85544   0.28213   0.00000  Uiso   1.00
O466   O     0.58824   0.81892   0.27014   0.00000  Uiso   1.00
O467   O     0.47093   0.73610   0.23413   0.00000  Uiso   1.00
O468   O     0.53678   0.92286   0.21361   0.00000  Uiso   1.00
Zn469  Zn    0.52672   0.80661   0.28734   0.00000  Uiso   1.00
Zn470  Zn    0.46713   0.79124   0.21876   0.00000  Uiso   1.00
Zn471  Zn    0.54389   0.86442   0.20657   0.00000  Uiso   1.00
Zn472  Zn    0.46226   0.87106   0.28734   0.00000  Uiso   1.00
C473   C     0.71955   0.82646   0.25975   0.00000  Uiso   1.00
C474   C     0.84524   0.83296   0.05735   0.00000  Uiso   1.00
C475   C     0.86800   0.76670   0.06167   0.00000  Uiso   1.00
C476   C     0.94735   0.84039   0.24015   0.00000  Uiso   1.00
C477   C     0.80817   0.86008   0.41983   0.00000  Uiso   1.00
C478   C     0.99304   0.84286   0.23650   0.00000  Uiso   1.00
C479   C     0.67438   0.82352   0.26424   0.00000  Uiso   1.00
C480   C     0.84675   0.98907   0.23714   0.00000  Uiso   1.00
C481   C     0.81809   0.67874   0.26410   0.00000  Uiso   1.00
C482   C     0.82297   0.72259   0.25998   0.00000  Uiso   1.00
C483   C     0.84312   0.94453   0.24031   0.00000  Uiso   1.00
C484   C     0.80567   0.91534   0.47984   0.00000  Uiso   1.00
C485   C     0.85181   0.81460   0.12939   0.00000  Uiso   1.00
C486   C     0.81465   0.85082   0.37101   0.00000  Uiso   1.00
C487   C     0.86290   0.75318   0.01866   0.00000  Uiso   1.00
C488   C     0.85795   0.80578   0.08124   0.00000  Uiso   1.00
C489   C     0.80111   0.90081   0.43720   0.00000  Uiso   1.00
C490   C     0.81880   0.88932   0.00512   0.00000  Uiso   1.00
C491   C     0.82432   0.84726   0.48958   0.00000  Uiso   1.00
C492   C     0.81533   0.83162   0.44771   0.00000  Uiso   1.00
C493   C     0.83876   0.82042   0.01422   0.00000  Uiso   1.00
C494   C     0.84554   0.77900   0.49587   0.00000  Uiso   1.00
C495   C     0.83147   0.76316   0.45732   0.00000  Uiso   1.00
C496   C     0.81366   0.78810   0.43536   0.00000  Uiso   1.00
F497   F     0.98150   0.80096   0.29722   0.00000  Uiso   1.00
F498   F     0.78386   0.99564   0.29531   0.00000  Uiso   1.00
F499   F     0.83092   0.72210   0.44289   0.00000  Uiso   1.00
H500   H     0.87814   0.74605   0.08082   0.00000  Uiso   1.00
H501   H     0.80319   0.96403   0.02860   0.00000  Uiso   1.00
H502   H     0.80867   0.75769   0.37509   0.00000  Uiso   1.00
H503   H     0.76652   0.78525   0.40091   0.00000  Uiso   1.00
H504   H     0.87337   0.67017   0.21234   0.00000  Uiso   1.00
H505   H     0.83725   0.86226   0.07515   0.00000  Uiso   1.00
H506   H     0.79436   0.92242   0.41662   0.00000  Uiso   1.00
H507   H     0.82481   0.90321   0.03646   0.00000  Uiso   1.00
H508   H     0.68187   0.86070   0.21074   0.00000  Uiso   1.00
H509   H     0.90080   0.71774   0.47192   0.00000  Uiso   1.00
H510   H     0.88345   0.69699   0.02139   0.00000  Uiso   1.00
H511   H     0.82234   0.97698   0.47561   0.00000  Uiso   1.00
N512   N     0.87408   0.71291   0.49884   0.00000  Uiso   1.00
N513   N     0.79883   0.95751   0.49611   0.00000  Uiso   1.00
N514   N     0.78847   0.76696   0.40569   0.00000  Uiso   1.00
O515   O     0.83333   0.83333   0.25000   0.00000  Uiso   1.00
O516   O     0.82118   0.79304   0.15459   0.00000  Uiso   1.00
O517   O     0.79607   0.87058   0.34968   0.00000  Uiso   1.00
O518   O     0.87491   0.84425   0.14606   0.00000  Uiso   1.00
O519   O     0.84118   0.82546   0.34968   0.00000  Uiso   1.00
O520   O     0.84597   0.74686   0.28214   0.00000  Uiso   1.00
O521   O     0.81298   0.92751   0.27014   0.00000  Uiso   1.00
O522   O     0.74078   0.79958   0.23413   0.00000  Uiso   1.00
O523   O     0.93360   0.85939   0.21361   0.00000  Uiso   1.00
O524   O     0.73738   0.85544   0.28213   0.00000  Uiso   1.00
O525   O     0.92158   0.81892   0.27014   0.00000  Uiso   1.00
O526   O     0.80426   0.73610   0.23413   0.00000  Uiso   1.00
O527   O     0.87012   0.92286   0.21361   0.00000  Uiso   1.00
Zn528  Zn    0.86005   0.80661   0.28734   0.00000  Uiso   1.00
Zn529  Zn    0.80046   0.79124   0.21876   0.00000  Uiso   1.00
Zn530  Zn    0.87723   0.86442   0.20657   0.00000  Uiso   1.00
Zn531  Zn    0.79560   0.87106   0.28734   0.00000  Uiso   1.00
C532   C     0.05288   0.15979   0.75975   0.00000  Uiso   1.00
C533   C     0.17857   0.16629   0.55735   0.00000  Uiso   1.00
C534   C     0.20133   0.10003   0.56167   0.00000  Uiso   1.00
C535   C     0.28068   0.17372   0.74015   0.00000  Uiso   1.00
C536   C     0.14150   0.19341   0.91983   0.00000  Uiso   1.00
C537   C     0.32638   0.17619   0.73650   0.00000  Uiso   1.00
C538   C     0.00771   0.15685   0.76424   0.00000  Uiso   1.00
C539   C     0.18008   0.32241   0.73714   0.00000  Uiso   1.00
C540   C     0.15143   0.01207   0.76410   0.00000  Uiso   1.00
C541   C     0.15631   0.05593   0.75998   0.00000  Uiso   1.00
C542   C     0.17645   0.27786   0.74031   0.00000  Uiso   1.00
C543   C     0.13900   0.24868   0.97984   0.00000  Uiso   1.00
C544   C     0.18514   0.14793   0.62939   0.00000  Uiso   1.00
C545   C     0.14798   0.18416   0.87101   0.00000  Uiso   1.00
C546   C     0.19623   0.08652   0.51866   0.00000  Uiso   1.00
C547   C     0.19128   0.13911   0.58124   0.00000  Uiso   1.00
C548   C     0.13445   0.23415   0.93720   0.00000  Uiso   1.00
C549   C     0.15213   0.22265   0.50512   0.00000  Uiso   1.00
C550   C     0.15766   0.18059   0.98958   0.00000  Uiso   1.00
C551   C     0.14866   0.16495   0.94771   0.00000  Uiso   1.00
C552   C     0.17209   0.15375   0.51422   0.00000  Uiso   1.00
C553   C     0.17887   0.11233   0.99587   0.00000  Uiso   1.00
C554   C     0.16481   0.09649   0.95732   0.00000  Uiso   1.00
C555   C     0.14699   0.12143   0.93536   0.00000  Uiso   1.00
F556   F     0.31484   0.13430   0.79722   0.00000  Uiso   1.00
F557   F     0.11719   0.32897   0.79531   0.00000  Uiso   1.00
F558   F     0.16425   0.05543   0.94289   0.00000  Uiso   1.00
H559   H     0.21147   0.07939   0.58082   0.00000  Uiso   1.00
H560   H     0.13652   0.29737   0.52860   0.00000  Uiso   1.00
H561   H     0.14201   0.09102   0.87509   0.00000  Uiso   1.00
H562   H     0.09986   0.11858   0.90091   0.00000  Uiso   1.00
H563   H     0.20670   0.00350   0.71234   0.00000  Uiso   1.00
H564   H     0.17058   0.19559   0.57515   0.00000  Uiso   1.00
H565   H     0.12770   0.25576   0.91662   0.00000  Uiso   1.00
H566   H     0.15814   0.23654   0.53646   0.00000  Uiso   1.00
H567   H     0.01521   0.19403   0.71074   0.00000  Uiso   1.00
H568   H     0.23414   0.05107   0.97192   0.00000  Uiso   1.00
H569   H     0.21679   0.03032   0.52139   0.00000  Uiso   1.00
H570   H     0.15568   0.31032   0.97561   0.00000  Uiso   1.00
N571   N     0.20741   0.04624   0.99884   0.00000  Uiso   1.00
N572   N     0.13217   0.29085   0.99611   0.00000  Uiso   1.00
N573   N     0.12180   0.10029   0.90569   0.00000  Uiso   1.00
O574   O     0.16667   0.16667   0.75000   0.00000  Uiso   1.00
O575   O     0.15451   0.12637   0.65459   0.00000  Uiso   1.00
O576   O     0.12940   0.20391   0.84968   0.00000  Uiso   1.00
O577   O     0.20824   0.17759   0.64606   0.00000  Uiso   1.00
O578   O     0.17451   0.15880   0.84968   0.00000  Uiso   1.00
O579   O     0.17930   0.08019   0.78214   0.00000  Uiso   1.00
O580   O     0.14632   0.26085   0.77014   0.00000  Uiso   1.00
O581   O     0.07412   0.13291   0.73413   0.00000  Uiso   1.00
O582   O     0.26693   0.19272   0.71361   0.00000  Uiso   1.00
O583   O     0.07071   0.18878   0.78213   0.00000  Uiso   1.00
O584   O     0.25491   0.15226   0.77014   0.00000  Uiso   1.00
O585   O     0.13760   0.06944   0.73413   0.00000  Uiso   1.00
O586   O     0.20345   0.25620   0.71361   0.00000  Uiso   1.00
Zn587  Zn    0.19338   0.13994   0.78734   0.00000  Uiso   1.00
Zn588  Zn    0.13379   0.12458   0.71876   0.00000  Uiso   1.00
Zn589  Zn    0.21056   0.19775   0.70657   0.00000  Uiso   1.00
Zn590  Zn    0.12893   0.20439   0.78734   0.00000  Uiso   1.00
C591   C     0.38622   0.15979   0.75975   0.00000  Uiso   1.00
C592   C     0.51191   0.16629   0.55735   0.00000  Uiso   1.00
C593   C     0.53467   0.10003   0.56167   0.00000  Uiso   1.00
C594   C     0.61402   0.17372   0.74015   0.00000  Uiso   1.00
C595   C     0.47483   0.19341   0.91983   0.00000  Uiso   1.00
C596   C     0.65971   0.17619   0.73650   0.00000  Uiso   1.00
C597   C     0.34104   0.15685   0.76424   0.00000  Uiso   1.00
C598   C     0.51341   0.32241   0.73714   0.00000  Uiso   1.00
C599   C     0.48476   0.01207   0.76410   0.00000  Uiso   1.00
C600   C     0.48964   0.05593   0.75998   0.00000  Uiso   1.00
C601   C     0.50978   0.27786   0.74031   0.00000  Uiso   1.00
C602   C     0.47233   0.24868   0.97984   0.00000  Uiso   1.00
C603   C     0.51848   0.14793   0.62939   0.00000  Uiso   1.00
C604   C     0.48132   0.18416   0.87101   0.00000  Uiso   1.00
C605   C     0.52957   0.08652   0.51866   0.00000  Uiso   1.00
C606   C     0.52461   0.13911   0.58124   0.00000  Uiso   1.00
C607   C     0.46778   0.23415   0.93720   0.00000  Uiso   1.00
C608   C     0.48546   0.22265   0.50512   0.00000  Uiso   1.00
C609   C     0.49099   0.18059   0.98958   0.00000  Uiso   1.00
C610   C     0.48199   0.16495   0.94771   0.00000  Uiso   1.00
C611   C     0.50542   0.15375   0.51422   0.00000  Uiso   1.00
C612   C     0.51220   0.11233   0.99587   0.00000  Uiso   1.00
C613   C     0.49814   0.09649   0.95732   0.00000  Uiso   1.00
C614   C     0.48032   0.12143   0.93536   0.00000  Uiso   1.00
F615   F     0.64817   0.13430   0.79722   0.00000  Uiso   1.00
F616   F     0.45053   0.32897   0.79531   0.00000  Uiso   1.00
F617   F     0.49758   0.05543   0.94289   0.00000  Uiso   1.00
H618   H     0.54480   0.07939   0.58082   0.00000  Uiso   1.00
H619   H     0.46986   0.29737   0.52860   0.00000  Uiso   1.00
H620   H     0.47534   0.09102   0.87509   0.00000  Uiso   1.00
H621   H     0.43319   0.11858   0.90091   0.00000  Uiso   1.00
H622   H     0.54003   0.00350   0.71234   0.00000  Uiso   1.00
H623   H     0.50391   0.19559   0.57515   0.00000  Uiso   1.00
H624   H     0.46103   0.25576   0.91662   0.00000  Uiso   1.00
H625   H     0.49147   0.23654   0.53646   0.00000  Uiso   1.00
H626   H     0.34854   0.19403   0.71074   0.00000  Uiso   1.00
H627   H     0.56747   0.05107   0.97192   0.00000  Uiso   1.00
H628   H     0.55012   0.03032   0.52139   0.00000  Uiso   1.00
H629   H     0.48901   0.31032   0.97561   0.00000  Uiso   1.00
N630   N     0.54075   0.04624   0.99884   0.00000  Uiso   1.00
N631   N     0.46550   0.29085   0.99611   0.00000  Uiso   1.00
N632   N     0.45513   0.10029   0.90569   0.00000  Uiso   1.00
O633   O     0.50000   0.16667   0.75000   0.00000  Uiso   1.00
O634   O     0.48784   0.12637   0.65459   0.00000  Uiso   1.00
O635   O     0.46274   0.20391   0.84968   0.00000  Uiso   1.00
O636   O     0.54157   0.17759   0.64606   0.00000  Uiso   1.00
O637   O     0.50785   0.15880   0.84968   0.00000  Uiso   1.00
O638   O     0.51264   0.08019   0.78214   0.00000  Uiso   1.00
O639   O     0.47965   0.26085   0.77014   0.00000  Uiso   1.00
O640   O     0.40745   0.13291   0.73413   0.00000  Uiso   1.00
O641   O     0.60026   0.19272   0.71361   0.00000  Uiso   1.00
O642   O     0.40405   0.18878   0.78213   0.00000  Uiso   1.00
O643   O     0.58824   0.15226   0.77014   0.00000  Uiso   1.00
O644   O     0.47093   0.06944   0.73413   0.00000  Uiso   1.00
O645   O     0.53678   0.25620   0.71361   0.00000  Uiso   1.00
Zn646  Zn    0.52672   0.13994   0.78734   0.00000  Uiso   1.00
Zn647  Zn    0.46713   0.12458   0.71876   0.00000  Uiso   1.00
Zn648  Zn    0.54389   0.19775   0.70657   0.00000  Uiso   1.00
Zn649  Zn    0.46226   0.20439   0.78734   0.00000  Uiso   1.00
C650   C     0.71955   0.15979   0.75975   0.00000  Uiso   1.00
C651   C     0.84524   0.16629   0.55735   0.00000  Uiso   1.00
C652   C     0.86800   0.10003   0.56167   0.00000  Uiso   1.00
C653   C     0.94735   0.17372   0.74015   0.00000  Uiso   1.00
C654   C     0.80817   0.19341   0.91983   0.00000  Uiso   1.00
C655   C     0.99304   0.17619   0.73650   0.00000  Uiso   1.00
C656   C     0.67438   0.15685   0.76424   0.00000  Uiso   1.00
C657   C     0.84675   0.32241   0.73714   0.00000  Uiso   1.00
C658   C     0.81809   0.01207   0.76410   0.00000  Uiso   1.00
C659   C     0.82297   0.05593   0.75998   0.00000  Uiso   1.00
C660   C     0.84312   0.27786   0.74031   0.00000  Uiso   1.00
C661   C     0.80567   0.24868   0.97984   0.00000  Uiso   1.00
C662   C     0.85181   0.14793   0.62939   0.00000  Uiso   1.00
C663   C     0.81465   0.18416   0.87101   0.00000  Uiso   1.00
C664   C     0.86290   0.08652   0.51866   0.00000  Uiso   1.00
C665   C     0.85795   0.13911   0.58124   0.00000  Uiso   1.00
C666   C     0.80111   0.23415   0.93720   0.00000  Uiso   1.00
C667   C     0.81880   0.22265   0.50512   0.00000  Uiso   1.00
C668   C     0.82432   0.18059   0.98958   0.00000  Uiso   1.00
C669   C     0.81533   0.16495   0.94771   0.00000  Uiso   1.00
C670   C     0.83876   0.15375   0.51422   0.00000  Uiso   1.00
C671   C     0.84554   0.11233   0.99587   0.00000  Uiso   1.00
C672   C     0.83147   0.09649   0.95732   0.00000  Uiso   1.00
C673   C     0.81366   0.12143   0.93536   0.00000  Uiso   1.00
F674   F     0.98150   0.13430   0.79722   0.00000  Uiso   1.00
F675   F     0.78386   0.32897   0.79531   0.00000  Uiso   1.00
F676   F     0.83092   0.05543   0.94289   0.00000  Uiso   1.00
H677   H     0.87814   0.07939   0.58082   0.00000  Uiso   1.00
H678   H     0.80319   0.29737   0.52860   0.00000  Uiso   1.00
H679   H     0.80867   0.09102   0.87509   0.00000  Uiso   1.00
H680   H     0.76652   0.11858   0.90091   0.00000  Uiso   1.00
H681   H     0.87337   0.00350   0.71234   0.00000  Uiso   1.00
H682   H     0.83725   0.19559   0.57515   0.00000  Uiso   1.00
H683   H     0.79436   0.25576   0.91662   0.00000  Uiso   1.00
H684   H     0.82481   0.23654   0.53646   0.00000  Uiso   1.00
H685   H     0.68187   0.19403   0.71074   0.00000  Uiso   1.00
H686   H     0.90080   0.05107   0.97192   0.00000  Uiso   1.00
H687   H     0.88345   0.03032   0.52139   0.00000  Uiso   1.00
H688   H     0.82234   0.31032   0.97561   0.00000  Uiso   1.00
N689   N     0.87408   0.04624   0.99884   0.00000  Uiso   1.00
N690   N     0.79883   0.29085   0.99611   0.00000  Uiso   1.00
N691   N     0.78847   0.10029   0.90569   0.00000  Uiso   1.00
O692   O     0.83333   0.16667   0.75000   0.00000  Uiso   1.00
O693   O     0.82118   0.12637   0.65459   0.00000  Uiso   1.00
O694   O     0.79607   0.20391   0.84968   0.00000  Uiso   1.00
O695   O     0.87491   0.17759   0.64606   0.00000  Uiso   1.00
O696   O     0.84118   0.15880   0.84968   0.00000  Uiso   1.00
O697   O     0.84597   0.08019   0.78214   0.00000  Uiso   1.00
O698   O     0.81298   0.26085   0.77014   0.00000  Uiso   1.00
O699   O     0.74078   0.13291   0.73413   0.00000  Uiso   1.00
O700   O     0.93360   0.19272   0.71361   0.00000  Uiso   1.00
O701   O     0.73738   0.18878   0.78213   0.00000  Uiso   1.00
O702   O     0.92158   0.15226   0.77014   0.00000  Uiso   1.00
O703   O     0.80426   0.06944   0.73413   0.00000  Uiso   1.00
O704   O     0.87012   0.25620   0.71361   0.00000  Uiso   1.00
Zn705  Zn    0.86005   0.13994   0.78734   0.00000  Uiso   1.00
Zn706  Zn    0.80046   0.12458   0.71876   0.00000  Uiso   1.00
Zn707  Zn    0.87723   0.19775   0.70657   0.00000  Uiso   1.00
Zn708  Zn    0.79560   0.20439   0.78734   0.00000  Uiso   1.00
C709   C     0.05288   0.49312   0.75975   0.00000  Uiso   1.00
C710   C     0.17857   0.49963   0.55735   0.00000  Uiso   1.00
C711   C     0.20133   0.43337   0.56167   0.00000  Uiso   1.00
C712   C     0.28068   0.50705   0.74015   0.00000  Uiso   1.00
C713   C     0.14150   0.52675   0.91983   0.00000  Uiso   1.00
C714   C     0.32638   0.50952   0.73650   0.00000  Uiso   1.00
C715   C     0.00771   0.49019   0.76424   0.00000  Uiso   1.00
C716   C     0.18008   0.65574   0.73714   0.00000  Uiso   1.00
C717   C     0.15143   0.34541   0.76410   0.00000  Uiso   1.00
C718   C     0.15631   0.38926   0.75998   0.00000  Uiso   1.00
C719   C     0.17645   0.61119   0.74031   0.00000  Uiso   1.00
C720   C     0.13900   0.58201   0.97984   0.00000  Uiso   1.00
C721   C     0.18514   0.48126   0.62939   0.00000  Uiso   1.00
C722   C     0.14798   0.51749   0.87101   0.00000  Uiso   1.00
C723   C     0.19623   0.41985   0.51866   0.00000  Uiso   1.00
C724   C     0.19128   0.47245   0.58124   0.00000  Uiso   1.00
C725   C     0.13445   0.56748   0.93720   0.00000  Uiso   1.00
C726   C     0.15213   0.55598   0.50512   0.00000  Uiso   1.00
C727   C     0.15766   0.51392   0.98958   0.00000  Uiso   1.00
C728   C     0.14866   0.49828   0.94771   0.00000  Uiso   1.00
C729   C     0.17209   0.48708   0.51422   0.00000  Uiso   1.00
C730   C     0.17887   0.44566   0.99587   0.00000  Uiso   1.00
C731   C     0.16481   0.42983   0.95732   0.00000  Uiso   1.00
C732   C     0.14699   0.45477   0.93536   0.00000  Uiso   1.00
F733   F     0.31484   0.46763   0.79722   0.00000  Uiso   1.00
F734   F     0.11719   0.66231   0.79531   0.00000  Uiso   1.00
F735   F     0.16425   0.38877   0.94289   0.00000  Uiso   1.00
H736   H     0.21147   0.41272   0.58082   0.00000  Uiso   1.00
H737   H     0.13652   0.63070   0.52860   0.00000  Uiso   1.00
H738   H     0.14201   0.42435   0.87509   0.00000  Uiso   1.00
H739   H     0.09986   0.45191   0.90091   0.00000  Uiso   1.00
H740   H     0.20670   0.33684   0.71234   0.00000  Uiso   1.00
H741   H     0.17058   0.52892   0.57515   0.00000  Uiso   1.00
H742   H     0.12770   0.58909   0.91662   0.00000  Uiso   1.00
H743   H     0.15814   0.56987   0.53646   0.00000  Uiso   1.00
H744   H     0.01521   0.52737   0.71074   0.00000  Uiso   1.00
H745   H     0.23414   0.38440   0.97192   0.00000  Uiso   1.00
H746   H     0.21679   0.36366   0.52139   0.00000  Uiso   1.00
H747   H     0.15568   0.64365   0.97561   0.00000  Uiso   1.00
N748   N     0.20741   0.37957   0.99884   0.00000  Uiso   1.00
N749   N     0.13217   0.62418   0.99611   0.00000  Uiso   1.00
N750   N     0.12180   0.43362   0.90569   0.00000  Uiso   1.00
O751   O     0.16667   0.50000   0.75000   0.00000  Uiso   1.00
O752   O     0.15451   0.45970   0.65459   0.00000  Uiso   1.00
O753   O     0.12940   0.53724   0.84968   0.00000  Uiso   1.00
O754   O     0.20824   0.51092   0.64606   0.00000  Uiso   1.00
O755   O     0.17451   0.49213   0.84968   0.00000  Uiso   1.00
O756   O     0.17930   0.41352   0.78214   0.00000  Uiso   1.00
O757   O     0.14632   0.59418   0.77014   0.00000  Uiso   1.00
O758   O     0.07412   0.46625   0.73413   0.00000  Uiso   1.00
O759   O     0.26693   0.52605   0.71361   0.00000  Uiso   1.00
O760   O     0.07071   0.52211   0.78213   0.00000  Uiso   1.00
O761   O     0.25491   0.48559   0.77014   0.00000  Uiso   1.00
O762   O     0.13760   0.40277   0.73413   0.00000  Uiso   1.00
O763   O     0.20345   0.58953   0.71361   0.00000  Uiso   1.00
Zn764  Zn    0.19338   0.47327   0.78734   0.00000  Uiso   1.00
Zn765  Zn    0.13379   0.45791   0.71876   0.00000  Uiso   1.00
Zn766  Zn    0.21056   0.53109   0.70657   0.00000  Uiso   1.00
Zn767  Zn    0.12893   0.53773   0.78734   0.00000  Uiso   1.00
C768   C     0.38622   0.49312   0.75975   0.00000  Uiso   1.00
C769   C     0.51191   0.49963   0.55735   0.00000  Uiso   1.00
C770   C     0.53467   0.43337   0.56167   0.00000  Uiso   1.00
C771   C     0.61402   0.50705   0.74015   0.00000  Uiso   1.00
C772   C     0.47483   0.52675   0.91983   0.00000  Uiso   1.00
C773   C     0.65971   0.50952   0.73650   0.00000  Uiso   1.00
C774   C     0.34104   0.49019   0.76424   0.00000  Uiso   1.00
C775   C     0.51341   0.65574   0.73714   0.00000  Uiso   1.00
C776   C     0.48476   0.34541   0.76410   0.00000  Uiso   1.00
C777   C     0.48964   0.38926   0.75998   0.00000  Uiso   1.00
C778   C     0.50978   0.61119   0.74031   0.00000  Uiso   1.00
C779   C     0.47233   0.58201   0.97984   0.00000  Uiso   1.00
C780   C     0.51848   0.48126   0.62939   0.00000  Uiso   1.00
C781   C     0.48132   0.51749   0.87101   0.00000  Uiso   1.00
C782   C     0.52957   0.41985   0.51866   0.00000  Uiso   1.00
C783   C     0.52461   0.47245   0.58124   0.00000  Uiso   1.00
C784   C     0.46778   0.56748   0.93720   0.00000  Uiso   1.00
C785   C     0.48546   0.55598   0.50512   0.00000  Uiso   1.00
C786   C     0.49099   0.51392   0.98958   0.00000  Uiso   1.00
C787   C     0.48199   0.49828   0.94771   0.00000  Uiso   1.00
C788   C     0.50542   0.48708   0.51422   0.00000  Uiso   1.00
C789   C     0.51220   0.44566   0.99587   0.00000  Uiso   1.00
C790   C     0.49814   0.42983   0.95732   0.00000  Uiso   1.00
C791   C     0.48032   0.45477   0.93536   0.00000  Uiso   1.00
F792   F     0.64817   0.46763   0.79722   0.00000  Uiso   1.00
F793   F     0.45053   0.66231   0.79531   0.00000  Uiso   1.00
F794   F     0.49758   0.38877   0.94289   0.00000  Uiso   1.00
H795   H     0.54480   0.41272   0.58082   0.00000  Uiso   1.00
H796   H     0.46986   0.63070   0.52860   0.00000  Uiso   1.00
H797   H     0.47534   0.42435   0.87509   0.00000  Uiso   1.00
H798   H     0.43319   0.45191   0.90091   0.00000  Uiso   1.00
H799   H     0.54003   0.33684   0.71234   0.00000  Uiso   1.00
H800   H     0.50391   0.52892   0.57515   0.00000  Uiso   1.00
H801   H     0.46103   0.58909   0.91662   0.00000  Uiso   1.00
H802   H     0.49147   0.56987   0.53646   0.00000  Uiso   1.00
H803   H     0.34854   0.52737   0.71074   0.00000  Uiso   1.00
H804   H     0.56747   0.38440   0.97192   0.00000  Uiso   1.00
H805   H     0.55012   0.36366   0.52139   0.00000  Uiso   1.00
H806   H     0.48901   0.64365   0.97561   0.00000  Uiso   1.00
N807   N     0.54075   0.37957   0.99884   0.00000  Uiso   1.00
N808   N     0.46550   0.62418   0.99611   0.00000  Uiso   1.00
N809   N     0.45513   0.43362   0.90569   0.00000  Uiso   1.00
O810   O     0.50000   0.50000   0.75000   0.00000  Uiso   1.00
O811   O     0.48784   0.45970   0.65459   0.00000  Uiso   1.00
O812   O     0.46274   0.53724   0.84968   0.00000  Uiso   1.00
O813   O     0.54157   0.51092   0.64606   0.00000  Uiso   1.00
O814   O     0.50785   0.49213   0.84968   0.00000  Uiso   1.00
O815   O     0.51264   0.41352   0.78214   0.00000  Uiso   1.00
O816   O     0.47965   0.59418   0.77014   0.00000  Uiso   1.00
O817   O     0.40745   0.46625   0.73413   0.00000  Uiso   1.00
O818   O     0.60026   0.52605   0.71361   0.00000  Uiso   1.00
O819   O     0.40405   0.52211   0.78213   0.00000  Uiso   1.00
O820   O     0.58824   0.48559   0.77014   0.00000  Uiso   1.00
O821   O     0.47093   0.40277   0.73413   0.00000  Uiso   1.00
O822   O     0.53678   0.58953   0.71361   0.00000  Uiso   1.00
Zn823  Zn    0.52672   0.47327   0.78734   0.00000  Uiso   1.00
Zn824  Zn    0.46713   0.45791   0.71876   0.00000  Uiso   1.00
Zn825  Zn    0.54389   0.53109   0.70657   0.00000  Uiso   1.00
Zn826  Zn    0.46226   0.53773   0.78734   0.00000  Uiso   1.00
C827   C     0.71955   0.49312   0.75975   0.00000  Uiso   1.00
C828   C     0.84524   0.49963   0.55735   0.00000  Uiso   1.00
C829   C     0.86800   0.43337   0.56167   0.00000  Uiso   1.00
C830   C     0.94735   0.50705   0.74015   0.00000  Uiso   1.00
C831   C     0.80817   0.52675   0.91983   0.00000  Uiso   1.00
C832   C     0.99304   0.50952   0.73650   0.00000  Uiso   1.00
C833   C     0.67438   0.49019   0.76424   0.00000  Uiso   1.00
C834   C     0.84675   0.65574   0.73714   0.00000  Uiso   1.00
C835   C     0.81809   0.34541   0.76410   0.00000  Uiso   1.00
C836   C     0.82297   0.38926   0.75998   0.00000  Uiso   1.00
C837   C     0.84312   0.61119   0.74031   0.00000  Uiso   1.00
C838   C     0.80567   0.58201   0.97984   0.00000  Uiso   1.00
C839   C     0.85181   0.48126   0.62939   0.00000  Uiso   1.00
C840   C     0.81465   0.51749   0.87101   0.00000  Uiso   1.00
C841   C     0.86290   0.41985   0.51866   0.00000  Uiso   1.00
C842   C     0.85795   0.47245   0.58124   0.00000  Uiso   1.00
C843   C     0.80111   0.56748   0.93720   0.00000  Uiso   1.00
C844   C     0.81880   0.55598   0.50512   0.00000  Uiso   1.00
C845   C     0.82432   0.51392   0.98958   0.00000  Uiso   1.00
C846   C     0.81533   0.49828   0.94771   0.00000  Uiso   1.00
C847   C     0.83876   0.48708   0.51422   0.00000  Uiso   1.00
C848   C     0.84554   0.44566   0.99587   0.00000  Uiso   1.00
C849   C     0.83147   0.42983   0.95732   0.00000  Uiso   1.00
C850   C     0.81366   0.45477   0.93536   0.00000  Uiso   1.00
F851   F     0.98150   0.46763   0.79722   0.00000  Uiso   1.00
F852   F     0.78386   0.66231   0.79531   0.00000  Uiso   1.00
F853   F     0.83092   0.38877   0.94289   0.00000  Uiso   1.00
H854   H     0.87814   0.41272   0.58082   0.00000  Uiso   1.00
H855   H     0.80319   0.63070   0.52860   0.00000  Uiso   1.00
H856   H     0.80867   0.42435   0.87509   0.00000  Uiso   1.00
H857   H     0.76652   0.45191   0.90091   0.00000  Uiso   1.00
H858   H     0.87337   0.33684   0.71234   0.00000  Uiso   1.00
H859   H     0.83725   0.52892   0.57515   0.00000  Uiso   1.00
H860   H     0.79436   0.58909   0.91662   0.00000  Uiso   1.00
H861   H     0.82481   0.56987   0.53646   0.00000  Uiso   1.00
H862   H     0.68187   0.52737   0.71074   0.00000  Uiso   1.00
H863   H     0.90080   0.38440   0.97192   0.00000  Uiso   1.00
H864   H     0.88345   0.36366   0.52139   0.00000  Uiso   1.00
H865   H     0.82234   0.64365   0.97561   0.00000  Uiso   1.00
N866   N     0.87408   0.37957   0.99884   0.00000  Uiso   1.00
N867   N     0.79883   0.62418   0.99611   0.00000  Uiso   1.00
N868   N     0.78847   0.43362   0.90569   0.00000  Uiso   1.00
O869   O     0.83333   0.50000   0.75000   0.00000  Uiso   1.00
O870   O     0.82118   0.45970   0.65459   0.00000  Uiso   1.00
O871   O     0.79607   0.53724   0.84968   0.00000  Uiso   1.00
O872   O     0.87491   0.51092   0.64606   0.00000  Uiso   1.00
O873   O     0.84118   0.49213   0.84968   0.00000  Uiso   1.00
O874   O     0.84597   0.41352   0.78214   0.00000  Uiso   1.00
O875   O     0.81298   0.59418   0.77014   0.00000  Uiso   1.00
O876   O     0.74078   0.46625   0.73413   0.00000  Uiso   1.00
O877   O     0.93360   0.52605   0.71361   0.00000  Uiso   1.00
O878   O     0.73738   0.52211   0.78213   0.00000  Uiso   1.00
O879   O     0.92158   0.48559   0.77014   0.00000  Uiso   1.00
O880   O     0.80426   0.40277   0.73413   0.00000  Uiso   1.00
O881   O     0.87012   0.58953   0.71361   0.00000  Uiso   1.00
Zn882  Zn    0.86005   0.47327   0.78734   0.00000  Uiso   1.00
Zn883  Zn    0.80046   0.45791   0.71876   0.00000  Uiso   1.00
Zn884  Zn    0.87723   0.53109   0.70657   0.00000  Uiso   1.00
Zn885  Zn    0.79560   0.53773   0.78734   0.00000  Uiso   1.00
C886   C     0.05288   0.82646   0.75975   0.00000  Uiso   1.00
C887   C     0.17857   0.83296   0.55735   0.00000  Uiso   1.00
C888   C     0.20133   0.76670   0.56167   0.00000  Uiso   1.00
C889   C     0.28068   0.84039   0.74015   0.00000  Uiso   1.00
C890   C     0.14150   0.86008   0.91983   0.00000  Uiso   1.00
C891   C     0.32638   0.84286   0.73650   0.00000  Uiso   1.00
C892   C     0.00771   0.82352   0.76424   0.00000  Uiso   1.00
C893   C     0.18008   0.98907   0.73714   0.00000  Uiso   1.00
C894   C     0.15143   0.67874   0.76410   0.00000  Uiso   1.00
C895   C     0.15631   0.72259   0.75998   0.00000  Uiso   1.00
C896   C     0.17645   0.94453   0.74031   0.00000  Uiso   1.00
C897   C     0.13900   0.91534   0.97984   0.00000  Uiso   1.00
C898   C     0.18514   0.81460   0.62939   0.00000  Uiso   1.00
C899   C     0.14798   0.85082   0.87101   0.00000  Uiso   1.00
C900   C     0.19623   0.75318   0.51866   0.00000  Uiso   1.00
C901   C     0.19128   0.80578   0.58124   0.00000  Uiso   1.00
C902   C     0.13445   0.90081   0.93720   0.00000  Uiso   1.00
C903   C     0.15213   0.88932   0.50512   0.00000  Uiso   1.00
C904   C     0.15766   0.84726   0.98958   0.00000  Uiso   1.00
C905   C     0.14866   0.83162   0.94771   0.00000  Uiso   1.00
C906   C     0.17209   0.82042   0.51422   0.00000  Uiso   1.00
C907   C     0.17887   0.77900   0.99587   0.00000  Uiso   1.00
C908   C     0.16481   0.76316   0.95732   0.00000  Uiso   1.00
C909   C     0.14699   0.78810   0.93536   0.00000  Uiso   1.00
F910   F     0.31484   0.80096   0.79722   0.00000  Uiso   1.00
F911   F     0.11719   0.99564   0.79531   0.00000  Uiso   1.00
F912   F     0.16425   0.72210   0.94289   0.00000  Uiso   1.00
H913   H     0.21147   0.74605   0.58082   0.00000  Uiso   1.00
H914   H     0.13652   0.96403   0.52860   0.00000  Uiso   1.00
H915   H     0.14201   0.75769   0.87509   0.00000  Uiso   1.00
H916   H     0.09986   0.78525   0.90091   0.00000  Uiso   1.00
H917   H     0.20670   0.67017   0.71234   0.00000  Uiso   1.00
H918   H     0.17058   0.86226   0.57515   0.00000  Uiso   1.00
H919   H     0.12770   0.92242   0.91662   0.00000  Uiso   1.00
H920   H     0.15814   0.90321   0.53646   0.00000  Uiso   1.00
H921   H     0.01521   0.86070   0.71074   0.00000  Uiso   1.00
H922   H     0.23414   0.71774   0.97192   0.00000  Uiso   1.00
H923   H     0.21679   0.69699   0.52139   0.00000  Uiso   1.00
H924   H     0.15568   0.97698   0.97561   0.00000  Uiso   1.00
N925   N     0.20741   0.71291   0.99884   0.00000  Uiso   1.00
N926   N     0.13217   0.95751   0.99611   0.00000  Uiso   1.00
N927   N     0.12180   0.76696   0.90569   0.00000  Uiso   1.00
O928   O     0.16667   0.83333   0.75000   0.00000  Uiso   1.00
O929   O     0.15451   0.79304   0.65459   0.00000  Uiso   1.00
O930   O     0.12940   0.87058   0.84968   0.00000  Uiso   1.00
O931   O     0.20824   0.84425   0.64606   0.00000  Uiso   1.00
O932   O     0.17451   0.82546   0.84968   0.00000  Uiso   1.00
O933   O     0.17930   0.74686   0.78214   0.00000  Uiso   1.00
O934   O     0.14632   0.92751   0.77014   0.00000  Uiso   1.00
O935   O     0.07412   0.79958   0.73413   0.00000  Uiso   1.00
O936   O     0.26693   0.85939   0.71361   0.00000  Uiso   1.00
O937   O     0.07071   0.85544   0.78213   0.00000  Uiso   1.00
O938   O     0.25491   0.81892   0.77014   0.00000  Uiso   1.00
O939   O     0.13760   0.73610   0.73413   0.00000  Uiso   1.00
O940   O     0.20345   0.92286   0.71361   0.00000  Uiso   1.00
Zn941  Zn    0.19338   0.80661   0.78734   0.00000  Uiso   1.00
Zn942  Zn    0.13379   0.79124   0.71876   0.00000  Uiso   1.00
Zn943  Zn    0.21056   0.86442   0.70657   0.00000  Uiso   1.00
Zn944  Zn    0.12893   0.87106   0.78734   0.00000  Uiso   1.00
C945   C     0.38622   0.82646   0.75975   0.00000  Uiso   1.00
C946   C     0.51191   0.83296   0.55735   0.00000  Uiso   1.00
C947   C     0.53467   0.76670   0.56167   0.00000  Uiso   1.00
C948   C     0.61402   0.84039   0.74015   0.00000  Uiso   1.00
C949   C     0.47483   0.86008   0.91983   0.00000  Uiso   1.00
C950   C     0.65971   0.84286   0.73650   0.00000  Uiso   1.00
C951   C     0.34104   0.82352   0.76424   0.00000  Uiso   1.00
C952   C     0.51341   0.98907   0.73714   0.00000  Uiso   1.00
C953   C     0.48476   0.67874   0.76410   0.00000  Uiso   1.00
C954   C     0.48964   0.72259   0.75998   0.00000  Uiso   1.00
C955   C     0.50978   0.94453   0.74031   0.00000  Uiso   1.00
C956   C     0.47233   0.91534   0.97984   0.00000  Uiso   1.00
C957   C     0.51848   0.81460   0.62939   0.00000  Uiso   1.00
C958   C     0.48132   0.85082   0.87101   0.00000  Uiso   1.00
C959   C     0.52957   0.75318   0.51866   0.00000  Uiso   1.00
C960   C     0.52461   0.80578   0.58124   0.00000  Uiso   1.00
C961   C     0.46778   0.90081   0.93720   0.00000  Uiso   1.00
C962   C     0.48546   0.88932   0.50512   0.00000  Uiso   1.00
C963   C     0.49099   0.84726   0.98958   0.00000  Uiso   1.00
C964   C     0.48199   0.83162   0.94771   0.00000  Uiso   1.00
C965   C     0.50542   0.82042   0.51422   0.00000  Uiso   1.00
C966   C     0.51220   0.77900   0.99587   0.00000  Uiso   1.00
C967   C     0.49814   0.76316   0.95732   0.00000  Uiso   1.00
C968   C     0.48032   0.78810   0.93536   0.00000  Uiso   1.00
F969   F     0.64817   0.80096   0.79722   0.00000  Uiso   1.00
F970   F     0.45053   0.99564   0.79531   0.00000  Uiso   1.00
F971   F     0.49758   0.72210   0.94289   0.00000  Uiso   1.00
H972   H     0.54480   0.74605   0.58082   0.00000  Uiso   1.00
H973   H     0.46986   0.96403   0.52860   0.00000  Uiso   1.00
H974   H     0.47534   0.75769   0.87509   0.00000  Uiso   1.00
H975   H     0.43319   0.78525   0.90091   0.00000  Uiso   1.00
H976   H     0.54003   0.67017   0.71234   0.00000  Uiso   1.00
H977   H     0.50391   0.86226   0.57515   0.00000  Uiso   1.00
H978   H     0.46103   0.92242   0.91662   0.00000  Uiso   1.00
H979   H     0.49147   0.90321   0.53646   0.00000  Uiso   1.00
H980   H     0.34854   0.86070   0.71074   0.00000  Uiso   1.00
H981   H     0.56747   0.71774   0.97192   0.00000  Uiso   1.00
H982   H     0.55012   0.69699   0.52139   0.00000  Uiso   1.00
H983   H     0.48901   0.97698   0.97561   0.00000  Uiso   1.00
N984   N     0.54075   0.71291   0.99884   0.00000  Uiso   1.00
N985   N     0.46550   0.95751   0.99611   0.00000  Uiso   1.00
N986   N     0.45513   0.76696   0.90569   0.00000  Uiso   1.00
O987   O     0.50000   0.83333   0.75000   0.00000  Uiso   1.00
O988   O     0.48784   0.79304   0.65459   0.00000  Uiso   1.00
O989   O     0.46274   0.87058   0.84968   0.00000  Uiso   1.00
O990   O     0.54157   0.84425   0.64606   0.00000  Uiso   1.00
O991   O     0.50785   0.82546   0.84968   0.00000  Uiso   1.00
O992   O     0.51264   0.74686   0.78214   0.00000  Uiso   1.00
O993   O     0.47965   0.92751   0.77014   0.00000  Uiso   1.00
O994   O     0.40745   0.79958   0.73413   0.00000  Uiso   1.00
O995   O     0.60026   0.85939   0.71361   0.00000  Uiso   1.00
O996   O     0.40405   0.85544   0.78213   0.00000  Uiso   1.00
O997   O     0.58824   0.81892   0.77014   0.00000  Uiso   1.00
O998   O     0.47093   0.73610   0.73413   0.00000  Uiso   1.00
O999   O     0.53678   0.92286   0.71361   0.00000  Uiso   1.00
Zn1000 Zn    0.52672   0.80661   0.78734   0.00000  Uiso   1.00
Zn1001 Zn    0.46713   0.79124   0.71876   0.00000  Uiso   1.00
Zn1002 Zn    0.54389   0.86442   0.70657   0.00000  Uiso   1.00
Zn1003 Zn    0.46226   0.87106   0.78734   0.00000  Uiso   1.00
C1004  C     0.71955   0.82646   0.75975   0.00000  Uiso   1.00
C1005  C     0.84524   0.83296   0.55735   0.00000  Uiso   1.00
C1006  C     0.86800   0.76670   0.56167   0.00000  Uiso   1.00
C1007  C     0.94735   0.84039   0.74015   0.00000  Uiso   1.00
C1008  C     0.80817   0.86008   0.91983   0.00000  Uiso   1.00
C1009  C     0.99304   0.84286   0.73650   0.00000  Uiso   1.00
C1010  C     0.67438   0.82352   0.76424   0.00000  Uiso   1.00
C1011  C     0.84675   0.98907   0.73714   0.00000  Uiso   1.00
C1012  C     0.81809   0.67874   0.76410   0.00000  Uiso   1.00
C1013  C     0.82297   0.72259   0.75998   0.00000  Uiso   1.00
C1014  C     0.84312   0.94453   0.74031   0.00000  Uiso   1.00
C1015  C     0.80567   0.91534   0.97984   0.00000  Uiso   1.00
C1016  C     0.85181   0.81460   0.62939   0.00000  Uiso   1.00
C1017  C     0.81465   0.85082   0.87101   0.00000  Uiso   1.00
C1018  C     0.86290   0.75318   0.51866   0.00000  Uiso   1.00
C1019  C     0.85795   0.80578   0.58124   0.00000  Uiso   1.00
C1020  C     0.80111   0.90081   0.93720   0.00000  Uiso   1.00
C1021  C     0.81880   0.88932   0.50512   0.00000  Uiso   1.00
C1022  C     0.82432   0.84726   0.98958   0.00000  Uiso   1.00
C1023  C     0.81533   0.83162   0.94771   0.00000  Uiso   1.00
C1024  C     0.83876   0.82042   0.51422   0.00000  Uiso   1.00
C1025  C     0.84554   0.77900   0.99587   0.00000  Uiso   1.00
C1026  C     0.83147   0.76316   0.95732   0.00000  Uiso   1.00
C1027  C     0.81366   0.78810   0.93536   0.00000  Uiso   1.00
F1028  F     0.98150   0.80096   0.79722   0.00000  Uiso   1.00
F1029  F     0.78386   0.99564   0.79531   0.00000  Uiso   1.00
F1030  F     0.83092   0.72210   0.94289   0.00000  Uiso   1.00
H1031  H     0.87814   0.74605   0.58082   0.00000  Uiso   1.00
H1032  H     0.80319   0.96403   0.52860   0.00000  Uiso   1.00
H1033  H     0.80867   0.75769   0.87509   0.00000  Uiso   1.00
H1034  H     0.76652   0.78525   0.90091   0.00000  Uiso   1.00
H1035  H     0.87337   0.67017   0.71234   0.00000  Uiso   1.00
H1036  H     0.83725   0.86226   0.57515   0.00000  Uiso   1.00
H1037  H     0.79436   0.92242   0.91662   0.00000  Uiso   1.00
H1038  H     0.82481   0.90321   0.53646   0.00000  Uiso   1.00
H1039  H     0.68187   0.86070   0.71074   0.00000  Uiso   1.00
H1040  H     0.90080   0.71774   0.97192   0.00000  Uiso   1.00
H1041  H     0.88345   0.69699   0.52139   0.00000  Uiso   1.00
H1042  H     0.82234   0.97698   0.97561   0.00000  Uiso   1.00
N1043  N     0.87408   0.71291   0.99884   0.00000  Uiso   1.00
N1044  N     0.79883   0.95751   0.99611   0.00000  Uiso   1.00
N1045  N     0.78847   0.76696   0.90569   0.00000  Uiso   1.00
O1046  O     0.83333   0.83333   0.75000   0.00000  Uiso   1.00
O1047  O     0.82118   0.79304   0.65459   0.00000  Uiso   1.00
O1048  O     0.79607   0.87058   0.84968   0.00000  Uiso   1.00
O1049  O     0.87491   0.84425   0.64606   0.00000  Uiso   1.00
O1050  O     0.84118   0.82546   0.84968   0.00000  Uiso   1.00
O1051  O     0.84597   0.74686   0.78214   0.00000  Uiso   1.00
O1052  O     0.81298   0.92751   0.77014   0.00000  Uiso   1.00
O1053  O     0.74078   0.79958   0.73413   0.00000  Uiso   1.00
O1054  O     0.93360   0.85939   0.71361   0.00000  Uiso   1.00
O1055  O     0.73738   0.85544   0.78213   0.00000  Uiso   1.00
O1056  O     0.92158   0.81892   0.77014   0.00000  Uiso   1.00
O1057  O     0.80426   0.73610   0.73413   0.00000  Uiso   1.00
O1058  O     0.87012   0.92286   0.71361   0.00000  Uiso   1.00
Zn1059 Zn    0.86005   0.80661   0.78734   0.00000  Uiso   1.00
Zn1060 Zn    0.80046   0.79124   0.71876   0.00000  Uiso   1.00
Zn1061 Zn    0.87723   0.86442   0.70657   0.00000  Uiso   1.00
Zn1062 Zn    0.79560   0.87106   0.78734   0.00000  Uiso   1.00
loop_
_geom_bond_atom_site_label_1
_geom_bond_atom_site_label_2
_geom_bond_distance
_geom_bond_site_symmetry_2
_ccdc_geom_bond_type
C1     O50     1.267   .     A
C1     O52     1.267   .     A
C1     C7      1.433   .     S
C2     C21     1.411   .     A
C2     C16     1.388   .     A
C2     H33     1.076   .     S
C3     H28     1.084   .     S
C3     C15     1.397   .     A
C3     C16     1.391   .     A
C4     O53     1.278   .     A
C4     O51     1.286   .     A
C4     C6      1.455   .     S
C5     C14     1.473   .     S
C5     C17     1.401   .     A
C5     C20     1.421   .     A
C6     C66     1.340   .     S
C6     H95     1.088   .     S
C7     C124    1.340   1_455 S
C7     F143    1.361   1_455 S
C8     C11     1.452   .     S
C8     C186    1.336   .     S
C8     H209    1.088   .     S
C9     C10     1.432   .     S
C9     C362    1.336   1_545 S
C9     F380    1.361   1_545 S
C10    O48     1.274   .     A
C10    O54     1.274   .     A
C11    O49     1.271   .     A
C11    O55     1.275   .     A
C12    C17     1.388   .     A
C12    N41     1.436   .     S
C12    C549    1.398   .     S
C13    O46     1.280   .     A
C13    C16     1.452   .     S
C13    O44     1.272   .     A
C14    O45     1.281   .     A
C14    O47     1.286   .     A
C15    C553    1.419   1_554 S
C15    N571    1.438   1_554 S
C17    H34     1.084   .     S
C18    H35     1.075   .     S
C18    C543    1.398   1_554 S
C18    C550    1.420   1_554 S
C19    C20     1.424   .     A
C19    C549    1.420   .     S
C19    C552    1.426   .     S
C20    C24     1.422   .     A
C21    C550    1.426   1_554 S
C21    C553    1.427   1_554 S
C22    C23     1.405   .     A
C22    C552    1.427   .     S
C22    C546    1.419   .     S
C23    C24     1.391   .     A
C23    F27     1.359   .     S
C24    N42     1.439   .     S
F25    C66     1.361   .     S
F26    C186    1.361   .     S
H29    N572    1.046   1_554 S
H30    N42     1.044   .     S
H31    N42     1.044   .     S
H32    C362    1.088   1_545 S
H36    C124    1.088   1_455 S
H37    N40     1.045   .     S
H38    N571    1.046   1_554 S
H39    N41     1.045   .     S
N40    C546    1.438   .     S
N40    H569    1.046   .     S
N41    H560    1.046   .     S
O43    Zn59    1.932   .     S
O43    Zn57    1.940   .     S
O43    Zn56    1.959   .     S
O43    Zn58    1.944   .     S
O44    Zn57    1.931   .     S
O45    Zn59    1.938   .     S
O46    Zn58    1.929   .     S
O47    Zn56    1.924   .     S
O48    Zn56    1.932   .     S
O49    Zn59    1.939   .     S
O50    Zn57    1.931   .     S
O51    Zn58    1.938   .     S
O52    Zn59    1.935   .     S
O53    Zn56    1.931   .     S
O54    Zn57    1.942   .     S
O55    Zn58    1.933   .     S
C60    O109    1.267   .     A
C60    O111    1.267   .     A
C60    C66     1.433   .     S
C61    C80     1.411   .     A
C61    C75     1.388   .     A
C61    H92     1.076   .     S
C62    H87     1.084   .     S
C62    C74     1.397   .     A
C62    C75     1.391   .     A
C63    O112    1.278   .     A
C63    O110    1.286   .     A
C63    C65     1.455   .     S
C64    C73     1.473   .     S
C64    C76     1.401   .     A
C64    C79     1.421   .     A
C65    C125    1.340   .     S
C65    H154    1.088   .     S
C67    C70     1.452   .     S
C67    C245    1.336   .     S
C67    H268    1.088   .     S
C68    C69     1.432   .     S
C68    C421    1.336   1_545 S
C68    F439    1.361   1_545 S
C69    O107    1.274   .     A
C69    O113    1.274   .     A
C70    O108    1.271   .     A
C70    O114    1.275   .     A
C71    C76     1.388   .     A
C71    N100    1.436   .     S
C71    C608    1.398   .     S
C72    O105    1.280   .     A
C72    C75     1.452   .     S
C72    O103    1.272   .     A
C73    O104    1.281   .     A
C73    O106    1.286   .     A
C74    C612    1.419   1_554 S
C74    N630    1.438   1_554 S
C76    H93     1.084   .     S
C77    H94     1.075   .     S
C77    C602    1.398   1_554 S
C77    C609    1.420   1_554 S
C78    C79     1.424   .     A
C78    C608    1.420   .     S
C78    C611    1.426   .     S
C79    C83     1.422   .     A
C80    C609    1.426   1_554 S
C80    C612    1.427   1_554 S
C81    C82     1.405   .     A
C81    C611    1.427   .     S
C81    C605    1.419   .     S
C82    C83     1.391   .     A
C82    F86     1.359   .     S
C83    N101    1.439   .     S
F84    C125    1.361   .     S
F85    C245    1.361   .     S
H88    N631    1.046   1_554 S
H89    N101    1.044   .     S
H90    N101    1.044   .     S
H91    C421    1.088   1_545 S
H96    N99     1.045   .     S
H97    N630    1.046   1_554 S
H98    N100    1.045   .     S
N99    C605    1.438   .     S
N99    H628    1.046   .     S
N100   H619    1.046   .     S
O102   Zn118   1.932   .     S
O102   Zn116   1.940   .     S
O102   Zn115   1.959   .     S
O102   Zn117   1.944   .     S
O103   Zn116   1.931   .     S
O104   Zn118   1.938   .     S
O105   Zn117   1.929   .     S
O106   Zn115   1.924   .     S
O107   Zn115   1.932   .     S
O108   Zn118   1.939   .     S
O109   Zn116   1.931   .     S
O110   Zn117   1.938   .     S
O111   Zn118   1.935   .     S
O112   Zn115   1.931   .     S
O113   Zn116   1.942   .     S
O114   Zn117   1.933   .     S
C119   O168    1.267   .     A
C119   O170    1.267   .     A
C119   C125    1.433   .     S
C120   C139    1.411   .     A
C120   C134    1.388   .     A
C120   H151    1.076   .     S
C121   H146    1.084   .     S
C121   C133    1.397   .     A
C121   C134    1.391   .     A
C122   O171    1.278   .     A
C122   O169    1.286   .     A
C122   C124    1.455   .     S
C123   C132    1.473   .     S
C123   C135    1.401   .     A
C123   C138    1.421   .     A
C124   C7      1.340   1_655 S
C124   H36     1.088   1_655 S
C126   C129    1.452   .     S
C126   C304    1.336   .     S
C126   H327    1.088   .     S
C127   C128    1.432   .     S
C127   C480    1.336   1_545 S
C127   F498    1.361   1_545 S
C128   O166    1.274   .     A
C128   O172    1.274   .     A
C129   O167    1.271   .     A
C129   O173    1.275   .     A
C130   C135    1.388   .     A
C130   N159    1.436   .     S
C130   C667    1.398   .     S
C131   O164    1.280   .     A
C131   C134    1.452   .     S
C131   O162    1.272   .     A
C132   O163    1.281   .     A
C132   O165    1.286   .     A
C133   C671    1.419   1_554 S
C133   N689    1.438   1_554 S
C135   H152    1.084   .     S
C136   H153    1.075   .     S
C136   C661    1.398   1_554 S
C136   C668    1.420   1_554 S
C137   C138    1.424   .     A
C137   C667    1.420   .     S
C137   C670    1.426   .     S
C138   C142    1.422   .     A
C139   C668    1.426   1_554 S
C139   C671    1.427   1_554 S
C140   C141    1.405   .     A
C140   C670    1.427   .     S
C140   C664    1.419   .     S
C141   C142    1.391   .     A
C141   F145    1.359   .     S
C142   N160    1.439   .     S
F143   C7      1.361   1_655 S
F144   C304    1.361   .     S
H147   N690    1.046   1_554 S
H148   N160    1.044   .     S
H149   N160    1.044   .     S
H150   C480    1.088   1_545 S
H155   N158    1.045   .     S
H156   N689    1.046   1_554 S
H157   N159    1.045   .     S
N158   C664    1.438   .     S
N158   H687    1.046   .     S
N159   H678    1.046   .     S
O161   Zn177   1.932   .     S
O161   Zn175   1.940   .     S
O161   Zn174   1.959   .     S
O161   Zn176   1.944   .     S
O162   Zn175   1.931   .     S
O163   Zn177   1.938   .     S
O164   Zn176   1.929   .     S
O165   Zn174   1.924   .     S
O166   Zn174   1.932   .     S
O167   Zn177   1.939   .     S
O168   Zn175   1.931   .     S
O169   Zn176   1.938   .     S
O170   Zn177   1.935   .     S
O171   Zn174   1.931   .     S
O172   Zn175   1.942   .     S
O173   Zn176   1.933   .     S
C178   O227    1.267   .     A
C178   O229    1.267   .     A
C178   C184    1.433   .     S
C179   C198    1.411   .     A
C179   C193    1.388   .     A
C179   H210    1.076   .     S
C180   H205    1.084   .     S
C180   C192    1.397   .     A
C180   C193    1.391   .     A
C181   O230    1.278   .     A
C181   O228    1.286   .     A
C181   C183    1.455   .     S
C182   C191    1.473   .     S
C182   C194    1.401   .     A
C182   C197    1.421   .     A
C183   C243    1.340   .     S
C183   H272    1.088   .     S
C184   C301    1.340   1_455 S
C184   F320    1.361   1_455 S
C185   C188    1.452   .     S
C185   C363    1.336   .     S
C185   H386    1.088   .     S
C186   C187    1.432   .     S
C187   O225    1.274   .     A
C187   O231    1.274   .     A
C188   O226    1.271   .     A
C188   O232    1.275   .     A
C189   C194    1.388   .     A
C189   N218    1.436   .     S
C189   C726    1.398   .     S
C190   O223    1.280   .     A
C190   C193    1.452   .     S
C190   O221    1.272   .     A
C191   O222    1.281   .     A
C191   O224    1.286   .     A
C192   C730    1.419   1_554 S
C192   N748    1.438   1_554 S
C194   H211    1.084   .     S
C195   H212    1.075   .     S
C195   C720    1.398   1_554 S
C195   C727    1.420   1_554 S
C196   C197    1.424   .     A
C196   C726    1.420   .     S
C196   C729    1.426   .     S
C197   C201    1.422   .     A
C198   C727    1.426   1_554 S
C198   C730    1.427   1_554 S
C199   C200    1.405   .     A
C199   C729    1.427   .     S
C199   C723    1.419   .     S
C200   C201    1.391   .     A
C200   F204    1.359   .     S
C201   N219    1.439   .     S
F202   C243    1.361   .     S
F203   C363    1.361   .     S
H206   N749    1.046   1_554 S
H207   N219    1.044   .     S
H208   N219    1.044   .     S
H213   C301    1.088   1_455 S
H214   N217    1.045   .     S
H215   N748    1.046   1_554 S
H216   N218    1.045   .     S
N217   C723    1.438   .     S
N217   H746    1.046   .     S
N218   H737    1.046   .     S
O220   Zn236   1.932   .     S
O220   Zn234   1.940   .     S
O220   Zn233   1.959   .     S
O220   Zn235   1.944   .     S
O221   Zn234   1.931   .     S
O222   Zn236   1.938   .     S
O223   Zn235   1.929   .     S
O224   Zn233   1.924   .     S
O225   Zn233   1.932   .     S
O226   Zn236   1.939   .     S
O227   Zn234   1.931   .     S
O228   Zn235   1.938   .     S
O229   Zn236   1.935   .     S
O230   Zn233   1.931   .     S
O231   Zn234   1.942   .     S
O232   Zn235   1.933   .     S
C237   O286    1.267   .     A
C237   O288    1.267   .     A
C237   C243    1.433   .     S
C238   C257    1.411   .     A
C238   C252    1.388   .     A
C238   H269    1.076   .     S
C239   H264    1.084   .     S
C239   C251    1.397   .     A
C239   C252    1.391   .     A
C240   O289    1.278   .     A
C240   O287    1.286   .     A
C240   C242    1.455   .     S
C241   C250    1.473   .     S
C241   C253    1.401   .     A
C241   C256    1.421   .     A
C242   C302    1.340   .     S
C242   H331    1.088   .     S
C244   C247    1.452   .     S
C244   C422    1.336   .     S
C244   H445    1.088   .     S
C245   C246    1.432   .     S
C246   O284    1.274   .     A
C246   O290    1.274   .     A
C247   O285    1.271   .     A
C247   O291    1.275   .     A
C248   C253    1.388   .     A
C248   N277    1.436   .     S
C248   C785    1.398   .     S
C249   O282    1.280   .     A
C249   C252    1.452   .     S
C249   O280    1.272   .     A
C250   O281    1.281   .     A
C250   O283    1.286   .     A
C251   C789    1.419   1_554 S
C251   N807    1.438   1_554 S
C253   H270    1.084   .     S
C254   H271    1.075   .     S
C254   C779    1.398   1_554 S
C254   C786    1.420   1_554 S
C255   C256    1.424   .     A
C255   C785    1.420   .     S
C255   C788    1.426   .     S
C256   C260    1.422   .     A
C257   C786    1.426   1_554 S
C257   C789    1.427   1_554 S
C258   C259    1.405   .     A
C258   C788    1.427   .     S
C258   C782    1.419   .     S
C259   C260    1.391   .     A
C259   F263    1.359   .     S
C260   N278    1.439   .     S
F261   C302    1.361   .     S
F262   C422    1.361   .     S
H265   N808    1.046   1_554 S
H266   N278    1.044   .     S
H267   N278    1.044   .     S
H273   N276    1.045   .     S
H274   N807    1.046   1_554 S
H275   N277    1.045   .     S
N276   C782    1.438   .     S
N276   H805    1.046   .     S
N277   H796    1.046   .     S
O279   Zn295   1.932   .     S
O279   Zn293   1.940   .     S
O279   Zn292   1.959   .     S
O279   Zn294   1.944   .     S
O280   Zn293   1.931   .     S
O281   Zn295   1.938   .     S
O282   Zn294   1.929   .     S
O283   Zn292   1.924   .     S
O284   Zn292   1.932   .     S
O285   Zn295   1.939   .     S
O286   Zn293   1.931   .     S
O287   Zn294   1.938   .     S
O288   Zn295   1.935   .     S
O289   Zn292   1.931   .     S
O290   Zn293   1.942   .     S
O291   Zn294   1.933   .     S
C296   O345    1.267   .     A
C296   O347    1.267   .     A
C296   C302    1.433   .     S
C297   C316    1.411   .     A
C297   C311    1.388   .     A
C297   H328    1.076   .     S
C298   H323    1.084   .     S
C298   C310    1.397   .     A
C298   C311    1.391   .     A
C299   O348    1.278   .     A
C299   O346    1.286   .     A
C299   C301    1.455   .     S
C300   C309    1.473   .     S
C300   C312    1.401   .     A
C300   C315    1.421   .     A
C301   C184    1.340   1_655 S
C301   H213    1.088   1_655 S
C303   C306    1.452   .     S
C303   C481    1.336   .     S
C303   H504    1.088   .     S
C304   C305    1.432   .     S
C305   O343    1.274   .     A
C305   O349    1.274   .     A
C306   O344    1.271   .     A
C306   O350    1.275   .     A
C307   C312    1.388   .     A
C307   N336    1.436   .     S
C307   C844    1.398   .     S
C308   O341    1.280   .     A
C308   C311    1.452   .     S
C308   O339    1.272   .     A
C309   O340    1.281   .     A
C309   O342    1.286   .     A
C310   C848    1.419   1_554 S
C310   N866    1.438   1_554 S
C312   H329    1.084   .     S
C313   H330    1.075   .     S
C313   C838    1.398   1_554 S
C313   C845    1.420   1_554 S
C314   C315    1.424   .     A
C314   C844    1.420   .     S
C314   C847    1.426   .     S
C315   C319    1.422   .     A
C316   C845    1.426   1_554 S
C316   C848    1.427   1_554 S
C317   C318    1.405   .     A
C317   C847    1.427   .     S
C317   C841    1.419   .     S
C318   C319    1.391   .     A
C318   F322    1.359   .     S
C319   N337    1.439   .     S
F320   C184    1.361   1_655 S
F321   C481    1.361   .     S
H324   N867    1.046   1_554 S
H325   N337    1.044   .     S
H326   N337    1.044   .     S
H332   N335    1.045   .     S
H333   N866    1.046   1_554 S
H334   N336    1.045   .     S
N335   C841    1.438   .     S
N335   H864    1.046   .     S
N336   H855    1.046   .     S
O338   Zn354   1.932   .     S
O338   Zn352   1.940   .     S
O338   Zn351   1.959   .     S
O338   Zn353   1.944   .     S
O339   Zn352   1.931   .     S
O340   Zn354   1.938   .     S
O341   Zn353   1.929   .     S
O342   Zn351   1.924   .     S
O343   Zn351   1.932   .     S
O344   Zn354   1.939   .     S
O345   Zn352   1.931   .     S
O346   Zn353   1.938   .     S
O347   Zn354   1.935   .     S
O348   Zn351   1.931   .     S
O349   Zn352   1.942   .     S
O350   Zn353   1.933   .     S
C355   O404    1.267   .     A
C355   O406    1.267   .     A
C355   C361    1.433   .     S
C356   C375    1.411   .     A
C356   C370    1.388   .     A
C356   H387    1.076   .     S
C357   H382    1.084   .     S
C357   C369    1.397   .     A
C357   C370    1.391   .     A
C358   O407    1.278   .     A
C358   O405    1.286   .     A
C358   C360    1.455   .     S
C359   C368    1.473   .     S
C359   C371    1.401   .     A
C359   C374    1.421   .     A
C360   C420    1.340   .     S
C360   H449    1.088   .     S
C361   C478    1.340   1_455 S
C361   F497    1.361   1_455 S
C362   C365    1.452   .     S
C362   C9      1.336   1_565 S
C362   H32     1.088   1_565 S
C363   C364    1.432   .     S
C364   O402    1.274   .     A
C364   O408    1.274   .     A
C365   O403    1.271   .     A
C365   O409    1.275   .     A
C366   C371    1.388   .     A
C366   N395    1.436   .     S
C366   C903    1.398   .     S
C367   O400    1.280   .     A
C367   C370    1.452   .     S
C367   O398    1.272   .     A
C368   O399    1.281   .     A
C368   O401    1.286   .     A
C369   C907    1.419   1_554 S
C369   N925    1.438   1_554 S
C371   H388    1.084   .     S
C372   H389    1.075   .     S
C372   C897    1.398   1_554 S
C372   C904    1.420   1_554 S
C373   C374    1.424   .     A
C373   C903    1.420   .     S
C373   C906    1.426   .     S
C374   C378    1.422   .     A
C375   C904    1.426   1_554 S
C375   C907    1.427   1_554 S
C376   C377    1.405   .     A
C376   C906    1.427   .     S
C376   C900    1.419   .     S
C377   C378    1.391   .     A
C377   F381    1.359   .     S
C378   N396    1.439   .     S
F379   C420    1.361   .     S
F380   C9      1.361   1_565 S
H383   N926    1.046   1_554 S
H384   N396    1.044   .     S
H385   N396    1.044   .     S
H390   C478    1.088   1_455 S
H391   N394    1.045   .     S
H392   N925    1.046   1_554 S
H393   N395    1.045   .     S
N394   C900    1.438   .     S
N394   H923    1.046   .     S
N395   H914    1.046   .     S
O397   Zn413   1.932   .     S
O397   Zn411   1.940   .     S
O397   Zn410   1.959   .     S
O397   Zn412   1.944   .     S
O398   Zn411   1.931   .     S
O399   Zn413   1.938   .     S
O400   Zn412   1.929   .     S
O401   Zn410   1.924   .     S
O402   Zn410   1.932   .     S
O403   Zn413   1.939   .     S
O404   Zn411   1.931   .     S
O405   Zn412   1.938   .     S
O406   Zn413   1.935   .     S
O407   Zn410   1.931   .     S
O408   Zn411   1.942   .     S
O409   Zn412   1.933   .     S
C414   O463    1.267   .     A
C414   O465    1.267   .     A
C414   C420    1.433   .     S
C415   C434    1.411   .     A
C415   C429    1.388   .     A
C415   H446    1.076   .     S
C416   H441    1.084   .     S
C416   C428    1.397   .     A
C416   C429    1.391   .     A
C417   O466    1.278   .     A
C417   O464    1.286   .     A
C417   C419    1.455   .     S
C418   C427    1.473   .     S
C418   C430    1.401   .     A
C418   C433    1.421   .     A
C419   C479    1.340   .     S
C419   H508    1.088   .     S
C421   C424    1.452   .     S
C421   C68     1.336   1_565 S
C421   H91     1.088   1_565 S
C422   C423    1.432   .     S
C423   O461    1.274   .     A
C423   O467    1.274   .     A
C424   O462    1.271   .     A
C424   O468    1.275   .     A
C425   C430    1.388   .     A
C425   N454    1.436   .     S
C425   C962    1.398   .     S
C426   O459    1.280   .     A
C426   C429    1.452   .     S
C426   O457    1.272   .     A
C427   O458    1.281   .     A
C427   O460    1.286   .     A
C428   C966    1.419   1_554 S
C428   N984    1.438   1_554 S
C430   H447    1.084   .     S
C431   H448    1.075   .     S
C431   C956    1.398   1_554 S
C431   C963    1.420   1_554 S
C432   C433    1.424   .     A
C432   C962    1.420   .     S
C432   C965    1.426   .     S
C433   C437    1.422   .     A
C434   C963    1.426   1_554 S
C434   C966    1.427   1_554 S
C435   C436    1.405   .     A
C435   C965    1.427   .     S
C435   C959    1.419   .     S
C436   C437    1.391   .     A
C436   F440    1.359   .     S
C437   N455    1.439   .     S
F438   C479    1.361   .     S
F439   C68     1.361   1_565 S
H442   N985    1.046   1_554 S
H443   N455    1.044   .     S
H444   N455    1.044   .     S
H450   N453    1.045   .     S
H451   N984    1.046   1_554 S
H452   N454    1.045   .     S
N453   C959    1.438   .     S
N453   H982    1.046   .     S
N454   H973    1.046   .     S
O456   Zn472   1.932   .     S
O456   Zn470   1.940   .     S
O456   Zn469   1.959   .     S
O456   Zn471   1.944   .     S
O457   Zn470   1.931   .     S
O458   Zn472   1.938   .     S
O459   Zn471   1.929   .     S
O460   Zn469   1.924   .     S
O461   Zn469   1.932   .     S
O462   Zn472   1.939   .     S
O463   Zn470   1.931   .     S
O464   Zn471   1.938   .     S
O465   Zn472   1.935   .     S
O466   Zn469   1.931   .     S
O467   Zn470   1.942   .     S
O468   Zn471   1.933   .     S
C473   O522    1.267   .     A
C473   O524    1.267   .     A
C473   C479    1.433   .     S
C474   C493    1.411   .     A
C474   C488    1.388   .     A
C474   H505    1.076   .     S
C475   H500    1.084   .     S
C475   C487    1.397   .     A
C475   C488    1.391   .     A
C476   O525    1.278   .     A
C476   O523    1.286   .     A
C476   C478    1.455   .     S
C477   C486    1.473   .     S
C477   C489    1.401   .     A
C477   C492    1.421   .     A
C478   C361    1.340   1_655 S
C478   H390    1.088   1_655 S
C480   C483    1.452   .     S
C480   C127    1.336   1_565 S
C480   H150    1.088   1_565 S
C481   C482    1.432   .     S
C482   O520    1.274   .     A
C482   O526    1.274   .     A
C483   O521    1.271   .     A
C483   O527    1.275   .     A
C484   C489    1.388   .     A
C484   N513    1.436   .     S
C484   C1021   1.398   .     S
C485   O518    1.280   .     A
C485   C488    1.452   .     S
C485   O516    1.272   .     A
C486   O517    1.281   .     A
C486   O519    1.286   .     A
C487   C1025   1.419   1_554 S
C487   N1043   1.438   1_554 S
C489   H506    1.084   .     S
C490   H507    1.075   .     S
C490   C1015   1.398   1_554 S
C490   C1022   1.420   1_554 S
C491   C492    1.424   .     A
C491   C1021   1.420   .     S
C491   C1024   1.426   .     S
C492   C496    1.422   .     A
C493   C1022   1.426   1_554 S
C493   C1025   1.427   1_554 S
C494   C495    1.405   .     A
C494   C1024   1.427   .     S
C494   C1018   1.419   .     S
C495   C496    1.391   .     A
C495   F499    1.359   .     S
C496   N514    1.439   .     S
F497   C361    1.361   1_655 S
F498   C127    1.361   1_565 S
H501   N1044   1.046   1_554 S
H502   N514    1.044   .     S
H503   N514    1.044   .     S
H509   N512    1.045   .     S
H510   N1043   1.046   1_554 S
H511   N513    1.045   .     S
N512   C1018   1.438   .     S
N512   H1041   1.046   .     S
N513   H1032   1.046   .     S
O515   Zn531   1.932   .     S
O515   Zn529   1.940   .     S
O515   Zn528   1.959   .     S
O515   Zn530   1.944   .     S
O516   Zn529   1.931   .     S
O517   Zn531   1.938   .     S
O518   Zn530   1.929   .     S
O519   Zn528   1.924   .     S
O520   Zn528   1.932   .     S
O521   Zn531   1.939   .     S
O522   Zn529   1.931   .     S
O523   Zn530   1.938   .     S
O524   Zn531   1.935   .     S
O525   Zn528   1.931   .     S
O526   Zn529   1.942   .     S
O527   Zn530   1.933   .     S
C532   O581    1.267   .     A
C532   O583    1.267   .     A
C532   C538    1.433   .     S
C533   C552    1.411   .     A
C533   C547    1.388   .     A
C533   H564    1.076   .     S
C534   H559    1.084   .     S
C534   C546    1.397   .     A
C534   C547    1.391   .     A
C535   O584    1.278   .     A
C535   O582    1.286   .     A
C535   C537    1.455   .     S
C536   C545    1.473   .     S
C536   C548    1.401   .     A
C536   C551    1.421   .     A
C537   C597    1.340   .     S
C537   H626    1.088   .     S
C538   C655    1.340   1_455 S
C538   F674    1.361   1_455 S
C539   C542    1.452   .     S
C539   C717    1.336   .     S
C539   H740    1.088   .     S
C540   C541    1.432   .     S
C540   C893    1.336   1_545 S
C540   F911    1.361   1_545 S
C541   O579    1.274   .     A
C541   O585    1.274   .     A
C542   O580    1.271   .     A
C542   O586    1.275   .     A
C543   C548    1.388   .     A
C543   N572    1.436   .     S
C543   C18     1.398   1_556 S
C544   O577    1.280   .     A
C544   C547    1.452   .     S
C544   O575    1.272   .     A
C545   O576    1.281   .     A
C545   O578    1.286   .     A
C548   H565    1.084   .     S
C549   H566    1.075   .     S
C550   C551    1.424   .     A
C550   C18     1.420   1_556 S
C550   C21     1.426   1_556 S
C551   C555    1.422   .     A
C553   C554    1.405   .     A
C553   C21     1.427   1_556 S
C553   C15     1.419   1_556 S
C554   C555    1.391   .     A
C554   F558    1.359   .     S
C555   N573    1.439   .     S
F556   C597    1.361   .     S
F557   C717    1.361   .     S
H561   N573    1.044   .     S
H562   N573    1.044   .     S
H563   C893    1.088   1_545 S
H567   C655    1.088   1_455 S
H568   N571    1.045   .     S
H570   N572    1.045   .     S
N571   C15     1.438   1_556 S
N571   H38     1.046   1_556 S
N572   H29     1.046   1_556 S
O574   Zn590   1.932   .     S
O574   Zn588   1.940   .     S
O574   Zn587   1.959   .     S
O574   Zn589   1.944   .     S
O575   Zn588   1.931   .     S
O576   Zn590   1.938   .     S
O577   Zn589   1.929   .     S
O578   Zn587   1.924   .     S
O579   Zn587   1.932   .     S
O580   Zn590   1.939   .     S
O581   Zn588   1.931   .     S
O582   Zn589   1.938   .     S
O583   Zn590   1.935   .     S
O584   Zn587   1.931   .     S
O585   Zn588   1.942   .     S
O586   Zn589   1.933   .     S
C591   O640    1.267   .     A
C591   O642    1.267   .     A
C591   C597    1.433   .     S
C592   C611    1.411   .     A
C592   C606    1.388   .     A
C592   H623    1.076   .     S
C593   H618    1.084   .     S
C593   C605    1.397   .     A
C593   C606    1.391   .     A
C594   O643    1.278   .     A
C594   O641    1.286   .     A
C594   C596    1.455   .     S
C595   C604    1.473   .     S
C595   C607    1.401   .     A
C595   C610    1.421   .     A
C596   C656    1.340   .     S
C596   H685    1.088   .     S
C598   C601    1.452   .     S
C598   C776    1.336   .     S
C598   H799    1.088   .     S
C599   C600    1.432   .     S
C599   C952    1.336   1_545 S
C599   F970    1.361   1_545 S
C600   O638    1.274   .     A
C600   O644    1.274   .     A
C601   O639    1.271   .     A
C601   O645    1.275   .     A
C602   C607    1.388   .     A
C602   N631    1.436   .     S
C602   C77     1.398   1_556 S
C603   O636    1.280   .     A
C603   C606    1.452   .     S
C603   O634    1.272   .     A
C604   O635    1.281   .     A
C604   O637    1.286   .     A
C607   H624    1.084   .     S
C608   H625    1.075   .     S
C609   C610    1.424   .     A
C609   C77     1.420   1_556 S
C609   C80     1.426   1_556 S
C610   C614    1.422   .     A
C612   C613    1.405   .     A
C612   C80     1.427   1_556 S
C612   C74     1.419   1_556 S
C613   C614    1.391   .     A
C613   F617    1.359   .     S
C614   N632    1.439   .     S
F615   C656    1.361   .     S
F616   C776    1.361   .     S
H620   N632    1.044   .     S
H621   N632    1.044   .     S
H622   C952    1.088   1_545 S
H627   N630    1.045   .     S
H629   N631    1.045   .     S
N630   C74     1.438   1_556 S
N630   H97     1.046   1_556 S
N631   H88     1.046   1_556 S
O633   Zn649   1.932   .     S
O633   Zn647   1.940   .     S
O633   Zn646   1.959   .     S
O633   Zn648   1.944   .     S
O634   Zn647   1.931   .     S
O635   Zn649   1.938   .     S
O636   Zn648   1.929   .     S
O637   Zn646   1.924   .     S
O638   Zn646   1.932   .     S
O639   Zn649   1.939   .     S
O640   Zn647   1.931   .     S
O641   Zn648   1.938   .     S
O642   Zn649   1.935   .     S
O643   Zn646   1.931   .     S
O644   Zn647   1.942   .     S
O645   Zn648   1.933   .     S
C650   O699    1.267   .     A
C650   O701    1.267   .     A
C650   C656    1.433   .     S
C651   C670    1.411   .     A
C651   C665    1.388   .     A
C651   H682    1.076   .     S
C652   H677    1.084   .     S
C652   C664    1.397   .     A
C652   C665    1.391   .     A
C653   O702    1.278   .     A
C653   O700    1.286   .     A
C653   C655    1.455   .     S
C654   C663    1.473   .     S
C654   C666    1.401   .     A
C654   C669    1.421   .     A
C655   C538    1.340   1_655 S
C655   H567    1.088   1_655 S
C657   C660    1.452   .     S
C657   C835    1.336   .     S
C657   H858    1.088   .     S
C658   C659    1.432   .     S
C658   C1011   1.336   1_545 S
C658   F1029   1.361   1_545 S
C659   O697    1.274   .     A
C659   O703    1.274   .     A
C660   O698    1.271   .     A
C660   O704    1.275   .     A
C661   C666    1.388   .     A
C661   N690    1.436   .     S
C661   C136    1.398   1_556 S
C662   O695    1.280   .     A
C662   C665    1.452   .     S
C662   O693    1.272   .     A
C663   O694    1.281   .     A
C663   O696    1.286   .     A
C666   H683    1.084   .     S
C667   H684    1.075   .     S
C668   C669    1.424   .     A
C668   C136    1.420   1_556 S
C668   C139    1.426   1_556 S
C669   C673    1.422   .     A
C671   C672    1.405   .     A
C671   C139    1.427   1_556 S
C671   C133    1.419   1_556 S
C672   C673    1.391   .     A
C672   F676    1.359   .     S
C673   N691    1.439   .     S
F674   C538    1.361   1_655 S
F675   C835    1.361   .     S
H679   N691    1.044   .     S
H680   N691    1.044   .     S
H681   C1011   1.088   1_545 S
H686   N689    1.045   .     S
H688   N690    1.045   .     S
N689   C133    1.438   1_556 S
N689   H156    1.046   1_556 S
N690   H147    1.046   1_556 S
O692   Zn708   1.932   .     S
O692   Zn706   1.940   .     S
O692   Zn705   1.959   .     S
O692   Zn707   1.944   .     S
O693   Zn706   1.931   .     S
O694   Zn708   1.938   .     S
O695   Zn707   1.929   .     S
O696   Zn705   1.924   .     S
O697   Zn705   1.932   .     S
O698   Zn708   1.939   .     S
O699   Zn706   1.931   .     S
O700   Zn707   1.938   .     S
O701   Zn708   1.935   .     S
O702   Zn705   1.931   .     S
O703   Zn706   1.942   .     S
O704   Zn707   1.933   .     S
C709   O758    1.267   .     A
C709   O760    1.267   .     A
C709   C715    1.433   .     S
C710   C729    1.411   .     A
C710   C724    1.388   .     A
C710   H741    1.076   .     S
C711   H736    1.084   .     S
C711   C723    1.397   .     A
C711   C724    1.391   .     A
C712   O761    1.278   .     A
C712   O759    1.286   .     A
C712   C714    1.455   .     S
C713   C722    1.473   .     S
C713   C725    1.401   .     A
C713   C728    1.421   .     A
C714   C774    1.340   .     S
C714   H803    1.088   .     S
C715   C832    1.340   1_455 S
C715   F851    1.361   1_455 S
C716   C719    1.452   .     S
C716   C894    1.336   .     S
C716   H917    1.088   .     S
C717   C718    1.432   .     S
C718   O756    1.274   .     A
C718   O762    1.274   .     A
C719   O757    1.271   .     A
C719   O763    1.275   .     A
C720   C725    1.388   .     A
C720   N749    1.436   .     S
C720   C195    1.398   1_556 S
C721   O754    1.280   .     A
C721   C724    1.452   .     S
C721   O752    1.272   .     A
C722   O753    1.281   .     A
C722   O755    1.286   .     A
C725   H742    1.084   .     S
C726   H743    1.075   .     S
C727   C728    1.424   .     A
C727   C195    1.420   1_556 S
C727   C198    1.426   1_556 S
C728   C732    1.422   .     A
C730   C731    1.405   .     A
C730   C198    1.427   1_556 S
C730   C192    1.419   1_556 S
C731   C732    1.391   .     A
C731   F735    1.359   .     S
C732   N750    1.439   .     S
F733   C774    1.361   .     S
F734   C894    1.361   .     S
H738   N750    1.044   .     S
H739   N750    1.044   .     S
H744   C832    1.088   1_455 S
H745   N748    1.045   .     S
H747   N749    1.045   .     S
N748   C192    1.438   1_556 S
N748   H215    1.046   1_556 S
N749   H206    1.046   1_556 S
O751   Zn767   1.932   .     S
O751   Zn765   1.940   .     S
O751   Zn764   1.959   .     S
O751   Zn766   1.944   .     S
O752   Zn765   1.931   .     S
O753   Zn767   1.938   .     S
O754   Zn766   1.929   .     S
O755   Zn764   1.924   .     S
O756   Zn764   1.932   .     S
O757   Zn767   1.939   .     S
O758   Zn765   1.931   .     S
O759   Zn766   1.938   .     S
O760   Zn767   1.935   .     S
O761   Zn764   1.931   .     S
O762   Zn765   1.942   .     S
O763   Zn766   1.933   .     S
C768   O817    1.267   .     A
C768   O819    1.267   .     A
C768   C774    1.433   .     S
C769   C788    1.411   .     A
C769   C783    1.388   .     A
C769   H800    1.076   .     S
C770   H795    1.084   .     S
C770   C782    1.397   .     A
C770   C783    1.391   .     A
C771   O820    1.278   .     A
C771   O818    1.286   .     A
C771   C773    1.455   .     S
C772   C781    1.473   .     S
C772   C784    1.401   .     A
C772   C787    1.421   .     A
C773   C833    1.340   .     S
C773   H862    1.088   .     S
C775   C778    1.452   .     S
C775   C953    1.336   .     S
C775   H976    1.088   .     S
C776   C777    1.432   .     S
C777   O815    1.274   .     A
C777   O821    1.274   .     A
C778   O816    1.271   .     A
C778   O822    1.275   .     A
C779   C784    1.388   .     A
C779   N808    1.436   .     S
C779   C254    1.398   1_556 S
C780   O813    1.280   .     A
C780   C783    1.452   .     S
C780   O811    1.272   .     A
C781   O812    1.281   .     A
C781   O814    1.286   .     A
C784   H801    1.084   .     S
C785   H802    1.075   .     S
C786   C787    1.424   .     A
C786   C254    1.420   1_556 S
C786   C257    1.426   1_556 S
C787   C791    1.422   .     A
C789   C790    1.405   .     A
C789   C257    1.427   1_556 S
C789   C251    1.419   1_556 S
C790   C791    1.391   .     A
C790   F794    1.359   .     S
C791   N809    1.439   .     S
F792   C833    1.361   .     S
F793   C953    1.361   .     S
H797   N809    1.044   .     S
H798   N809    1.044   .     S
H804   N807    1.045   .     S
H806   N808    1.045   .     S
N807   C251    1.438   1_556 S
N807   H274    1.046   1_556 S
N808   H265    1.046   1_556 S
O810   Zn826   1.932   .     S
O810   Zn824   1.940   .     S
O810   Zn823   1.959   .     S
O810   Zn825   1.944   .     S
O811   Zn824   1.931   .     S
O812   Zn826   1.938   .     S
O813   Zn825   1.929   .     S
O814   Zn823   1.924   .     S
O815   Zn823   1.932   .     S
O816   Zn826   1.939   .     S
O817   Zn824   1.931   .     S
O818   Zn825   1.938   .     S
O819   Zn826   1.935   .     S
O820   Zn823   1.931   .     S
O821   Zn824   1.942   .     S
O822   Zn825   1.933   .     S
C827   O876    1.267   .     A
C827   O878    1.267   .     A
C827   C833    1.433   .     S
C828   C847    1.411   .     A
C828   C842    1.388   .     A
C828   H859    1.076   .     S
C829   H854    1.084   .     S
C829   C841    1.397   .     A
C829   C842    1.391   .     A
C830   O879    1.278   .     A
C830   O877    1.286   .     A
C830   C832    1.455   .     S
C831   C840    1.473   .     S
C831   C843    1.401   .     A
C831   C846    1.421   .     A
C832   C715    1.340   1_655 S
C832   H744    1.088   1_655 S
C834   C837    1.452   .     S
C834   C1012   1.336   .     S
C834   H1035   1.088   .     S
C835   C836    1.432   .     S
C836   O874    1.274   .     A
C836   O880    1.274   .     A
C837   O875    1.271   .     A
C837   O881    1.275   .     A
C838   C843    1.388   .     A
C838   N867    1.436   .     S
C838   C313    1.398   1_556 S
C839   O872    1.280   .     A
C839   C842    1.452   .     S
C839   O870    1.272   .     A
C840   O871    1.281   .     A
C840   O873    1.286   .     A
C843   H860    1.084   .     S
C844   H861    1.075   .     S
C845   C846    1.424   .     A
C845   C313    1.420   1_556 S
C845   C316    1.426   1_556 S
C846   C850    1.422   .     A
C848   C849    1.405   .     A
C848   C316    1.427   1_556 S
C848   C310    1.419   1_556 S
C849   C850    1.391   .     A
C849   F853    1.359   .     S
C850   N868    1.439   .     S
F851   C715    1.361   1_655 S
F852   C1012   1.361   .     S
H856   N868    1.044   .     S
H857   N868    1.044   .     S
H863   N866    1.045   .     S
H865   N867    1.045   .     S
N866   C310    1.438   1_556 S
N866   H333    1.046   1_556 S
N867   H324    1.046   1_556 S
O869   Zn885   1.932   .     S
O869   Zn883   1.940   .     S
O869   Zn882   1.959   .     S
O869   Zn884   1.944   .     S
O870   Zn883   1.931   .     S
O871   Zn885   1.938   .     S
O872   Zn884   1.929   .     S
O873   Zn882   1.924   .     S
O874   Zn882   1.932   .     S
O875   Zn885   1.939   .     S
O876   Zn883   1.931   .     S
O877   Zn884   1.938   .     S
O878   Zn885   1.935   .     S
O879   Zn882   1.931   .     S
O880   Zn883   1.942   .     S
O881   Zn884   1.933   .     S
C886   O935    1.267   .     A
C886   O937    1.267   .     A
C886   C892    1.433   .     S
C887   C906    1.411   .     A
C887   C901    1.388   .     A
C887   H918    1.076   .     S
C888   H913    1.084   .     S
C888   C900    1.397   .     A
C888   C901    1.391   .     A
C889   O938    1.278   .     A
C889   O936    1.286   .     A
C889   C891    1.455   .     S
C890   C899    1.473   .     S
C890   C902    1.401   .     A
C890   C905    1.421   .     A
C891   C951    1.340   .     S
C891   H980    1.088   .     S
C892   C1009   1.340   1_455 S
C892   F1028   1.361   1_455 S
C893   C896    1.452   .     S
C893   C540    1.336   1_565 S
C893   H563    1.088   1_565 S
C894   C895    1.432   .     S
C895   O933    1.274   .     A
C895   O939    1.274   .     A
C896   O934    1.271   .     A
C896   O940    1.275   .     A
C897   C902    1.388   .     A
C897   N926    1.436   .     S
C897   C372    1.398   1_556 S
C898   O931    1.280   .     A
C898   C901    1.452   .     S
C898   O929    1.272   .     A
C899   O930    1.281   .     A
C899   O932    1.286   .     A
C902   H919    1.084   .     S
C903   H920    1.075   .     S
C904   C905    1.424   .     A
C904   C372    1.420   1_556 S
C904   C375    1.426   1_556 S
C905   C909    1.422   .     A
C907   C908    1.405   .     A
C907   C375    1.427   1_556 S
C907   C369    1.419   1_556 S
C908   C909    1.391   .     A
C908   F912    1.359   .     S
C909   N927    1.439   .     S
F910   C951    1.361   .     S
F911   C540    1.361   1_565 S
H915   N927    1.044   .     S
H916   N927    1.044   .     S
H921   C1009   1.088   1_455 S
H922   N925    1.045   .     S
H924   N926    1.045   .     S
N925   C369    1.438   1_556 S
N925   H392    1.046   1_556 S
N926   H383    1.046   1_556 S
O928   Zn944   1.932   .     S
O928   Zn942   1.940   .     S
O928   Zn941   1.959   .     S
O928   Zn943   1.944   .     S
O929   Zn942   1.931   .     S
O930   Zn944   1.938   .     S
O931   Zn943   1.929   .     S
O932   Zn941   1.924   .     S
O933   Zn941   1.932   .     S
O934   Zn944   1.939   .     S
O935   Zn942   1.931   .     S
O936   Zn943   1.938   .     S
O937   Zn944   1.935   .     S
O938   Zn941   1.931   .     S
O939   Zn942   1.942   .     S
O940   Zn943   1.933   .     S
C945   O994    1.267   .     A
C945   O996    1.267   .     A
C945   C951    1.433   .     S
C946   C965    1.411   .     A
C946   C960    1.388   .     A
C946   H977    1.076   .     S
C947   H972    1.084   .     S
C947   C959    1.397   .     A
C947   C960    1.391   .     A
C948   O997    1.278   .     A
C948   O995    1.286   .     A
C948   C950    1.455   .     S
C949   C958    1.473   .     S
C949   C961    1.401   .     A
C949   C964    1.421   .     A
C950   C1010   1.340   .     S
C950   H1039   1.088   .     S
C952   C955    1.452   .     S
C952   C599    1.336   1_565 S
C952   H622    1.088   1_565 S
C953   C954    1.432   .     S
C954   O992    1.274   .     A
C954   O998    1.274   .     A
C955   O993    1.271   .     A
C955   O999    1.275   .     A
C956   C961    1.388   .     A
C956   N985    1.436   .     S
C956   C431    1.398   1_556 S
C957   O990    1.280   .     A
C957   C960    1.452   .     S
C957   O988    1.272   .     A
C958   O989    1.281   .     A
C958   O991    1.286   .     A
C961   H978    1.084   .     S
C962   H979    1.075   .     S
C963   C964    1.424   .     A
C963   C431    1.420   1_556 S
C963   C434    1.426   1_556 S
C964   C968    1.422   .     A
C966   C967    1.405   .     A
C966   C434    1.427   1_556 S
C966   C428    1.419   1_556 S
C967   C968    1.391   .     A
C967   F971    1.359   .     S
C968   N986    1.439   .     S
F969   C1010   1.361   .     S
F970   C599    1.361   1_565 S
H974   N986    1.044   .     S
H975   N986    1.044   .     S
H981   N984    1.045   .     S
H983   N985    1.045   .     S
N984   C428    1.438   1_556 S
N984   H451    1.046   1_556 S
N985   H442    1.046   1_556 S
O987   Zn1003  1.932   .     S
O987   Zn1001  1.940   .     S
O987   Zn1000  1.959   .     S
O987   Zn1002  1.944   .     S
O988   Zn1001  1.931   .     S
O989   Zn1003  1.938   .     S
O990   Zn1002  1.929   .     S
O991   Zn1000  1.924   .     S
O992   Zn1000  1.932   .     S
O993   Zn1003  1.939   .     S
O994   Zn1001  1.931   .     S
O995   Zn1002  1.938   .     S
O996   Zn1003  1.935   .     S
O997   Zn1000  1.931   .     S
O998   Zn1001  1.942   .     S
O999   Zn1002  1.933   .     S
C1004  O1053   1.267   .     A
C1004  O1055   1.267   .     A
C1004  C1010   1.433   .     S
C1005  C1024   1.411   .     A
C1005  C1019   1.388   .     A
C1005  H1036   1.076   .     S
C1006  H1031   1.084   .     S
C1006  C1018   1.397   .     A
C1006  C1019   1.391   .     A
C1007  O1056   1.278   .     A
C1007  O1054   1.286   .     A
C1007  C1009   1.455   .     S
C1008  C1017   1.473   .     S
C1008  C1020   1.401   .     A
C1008  C1023   1.421   .     A
C1009  C892    1.340   1_655 S
C1009  H921    1.088   1_655 S
C1011  C1014   1.452   .     S
C1011  C658    1.336   1_565 S
C1011  H681    1.088   1_565 S
C1012  C1013   1.432   .     S
C1013  O1051   1.274   .     A
C1013  O1057   1.274   .     A
C1014  O1052   1.271   .     A
C1014  O1058   1.275   .     A
C1015  C1020   1.388   .     A
C1015  N1044   1.436   .     S
C1015  C490    1.398   1_556 S
C1016  O1049   1.280   .     A
C1016  C1019   1.452   .     S
C1016  O1047   1.272   .     A
C1017  O1048   1.281   .     A
C1017  O1050   1.286   .     A
C1020  H1037   1.084   .     S
C1021  H1038   1.075   .     S
C1022  C1023   1.424   .     A
C1022  C490    1.420   1_556 S
C1022  C493    1.426   1_556 S
C1023  C1027   1.422   .     A
C1025  C1026   1.405   .     A
C1025  C493    1.427   1_556 S
C1025  C487    1.419   1_556 S
C1026  C1027   1.391   .     A
C1026  F1030   1.359   .     S
C1027  N1045   1.439   .     S
F1028  C892    1.361   1_655 S
F1029  C658    1.361   1_565 S
H1033  N1045   1.044   .     S
H1034  N1045   1.044   .     S
H1040  N1043   1.045   .     S
H1042  N1044   1.045   .     S
N1043  C487    1.438   1_556 S
N1043  H510    1.046   1_556 S
N1044  H501    1.046   1_556 S
O1046  Zn1062  1.932   .     S
O1046  Zn1060  1.940   .     S
O1046  Zn1059  1.959   .     S
O1046  Zn1061  1.944   .     S
O1047  Zn1060  1.931   .     S
O1048  Zn1062  1.938   .     S
O1049  Zn1061  1.929   .     S
O1050  Zn1059  1.924   .     S
O1051  Zn1059  1.932   .     S
O1052  Zn1062  1.939   .     S
O1053  Zn1060  1.931   .     S
O1054  Zn1061  1.938   .     S
O1055  Zn1062  1.935   .     S
O1056  Zn1059  1.931   .     S
O1057  Zn1060  1.942   .     S
O1058  Zn1061  1.933   .     S
