data_str_m2_o10_o17_pcu_sym.182
_audit_creation_date              2020-01-03
_audit_creation_method            'Materials Studio'
_symmetry_space_group_name_H-M    'P1'
_symmetry_Int_Tables_number       1
_symmetry_cell_setting            triclinic
loop_
_symmetry_equiv_pos_as_xyz
  x,y,z
_cell_length_a                    30.0801
_cell_length_b                    26.9704
_cell_length_c                    22.7352
_cell_angle_alpha                 100.9659
_cell_angle_beta                  94.3074
_cell_angle_gamma                 91.9268
loop_
_atom_site_label
_atom_site_type_symbol
_atom_site_fract_x
_atom_site_fract_y
_atom_site_fract_z
_atom_site_U_iso_or_equiv
_atom_site_adp_type
_atom_site_occupancy
O1     O     0.25325   0.09538   0.20659   0.00000  Uiso   1.00
O2     O     0.24674   0.23796   0.12674   0.00000  Uiso   1.00
O3     O     0.24480   0.08559   0.10279   0.00000  Uiso   1.00
O4     O     0.25520   0.24774   0.23055   0.00000  Uiso   1.00
C5     C     0.24913   0.06735   0.15208   0.00000  Uiso   1.00
C6     C     0.25078   0.26597   0.18125   0.00000  Uiso   1.00
O7     O     0.18935   0.17155   0.21857   0.00000  Uiso   1.00
O8     O     0.31064   0.16179   0.11476   0.00000  Uiso   1.00
O9     O     0.18090   0.16176   0.11477   0.00000  Uiso   1.00
O10    O     0.31910   0.17157   0.21857   0.00000  Uiso   1.00
C11    C     0.16493   0.16755   0.16738   0.00000  Uiso   1.00
C12    C     0.33501   0.16516   0.16590   0.00000  Uiso   1.00
Cu13   Cu    0.25500   0.17246   0.22813   0.00000  Uiso   1.00
Cu14   Cu    0.24499   0.16087   0.10521   0.00000  Uiso   1.00
C15    C     0.40836   0.20977   0.18646   0.00000  Uiso   1.00
C16    C     0.09265   0.12026   0.15521   0.00000  Uiso   1.00
C17    C     0.38323   0.16466   0.16553   0.00000  Uiso   1.00
C18    C     0.11665   0.16678   0.16798   0.00000  Uiso   1.00
C19    C     0.40376   0.11860   0.15151   0.00000  Uiso   1.00
C20    C     0.09502   0.21235   0.17747   0.00000  Uiso   1.00
C21    C     0.45072   0.11830   0.15029   0.00000  Uiso   1.00
C22    C     0.04863   0.21151   0.18313   0.00000  Uiso   1.00
C23    C     0.47659   0.16394   0.17002   0.00000  Uiso   1.00
C24    C     0.02367   0.16460   0.16992   0.00000  Uiso   1.00
C25    C     0.45547   0.20909   0.19091   0.00000  Uiso   1.00
C26    C     0.04540   0.11892   0.15354   0.00000  Uiso   1.00
C27    C     0.47212   0.07347   0.13026   0.00000  Uiso   1.00
C28    C     0.02688   0.25621   0.20332   0.00000  Uiso   1.00
C29    C     0.01922   0.07372   0.13316   0.00000  Uiso   1.00
C30    C     0.48226   0.25240   0.21693   0.00000  Uiso   1.00
C31    C     0.24962   0.01236   0.14340   0.00000  Uiso   1.00
C32    C     0.25025   0.32095   0.18988   0.00000  Uiso   1.00
N33    N     0.23744   0.15214   0.01284   0.00000  Uiso   1.00
N34    N     0.26255   0.18119   0.32049   0.00000  Uiso   1.00
N35    N     0.38527   0.25611   0.19846   0.00000  Uiso   1.00
O36    O     0.35907   0.26747   0.15545   0.00000  Uiso   1.00
O37    O     0.37768   0.27568   0.25332   0.00000  Uiso   1.00
N38    N     0.11714   0.07511   0.14335   0.00000  Uiso   1.00
O39    O     0.13369   0.06235   0.09177   0.00000  Uiso   1.00
O40    O     0.13429   0.05689   0.18827   0.00000  Uiso   1.00
O41    O     0.37753   0.07408   0.13942   0.00000  Uiso   1.00
C42    C     0.36959   0.05992   0.19462   0.00000  Uiso   1.00
H43    H     0.40104   0.05231   0.21947   0.00000  Uiso   1.00
H44    H     0.34766   0.02519   0.18515   0.00000  Uiso   1.00
H45    H     0.35188   0.08880   0.22428   0.00000  Uiso   1.00
O46    O     0.12024   0.25743   0.18639   0.00000  Uiso   1.00
C47    C     0.12640   0.26954   0.12966   0.00000  Uiso   1.00
H48    H     0.15056   0.30232   0.13608   0.00000  Uiso   1.00
H49    H     0.09459   0.27991   0.10827   0.00000  Uiso   1.00
H50    H     0.14047   0.23841   0.09835   0.00000  Uiso   1.00
O51    O     0.44666   0.03196   0.09839   0.00000  Uiso   1.00
C52    C     0.45100   0.32379   0.12714   0.00000  Uiso   1.00
H53    H     0.45269   0.00166   0.17677   0.00000  Uiso   1.00
H54    H     0.47993   0.30179   0.11257   0.00000  Uiso   1.00
H55    H     0.42159   0.29786   0.11169   0.00000  Uiso   1.00
O56    O     0.04480   0.30171   0.19385   0.00000  Uiso   1.00
C57    C     0.05538   0.00213   0.24824   0.00000  Uiso   1.00
H58    H     0.07799   0.31839   0.27886   0.00000  Uiso   1.00
H59    H     0.02487   0.01722   0.26732   0.00000  Uiso   1.00
H60    H     0.07340   0.03577   0.23944   0.00000  Uiso   1.00
O61    O     0.03956   0.02954   0.11330   0.00000  Uiso   1.00
C62    C     0.04053   0.02329   0.05090   0.00000  Uiso   1.00
H63    H     0.05992   0.05466   0.03773   0.00000  Uiso   1.00
H64    H     0.00649   0.02129   0.02825   0.00000  Uiso   1.00
H65    H     0.05650   0.32068   0.03549   0.00000  Uiso   1.00
O66    O     0.46631   0.28892   0.25995   0.00000  Uiso   1.00
C67    C     0.46269   0.26824   0.31225   0.00000  Uiso   1.00
H68    H     0.49610   0.26287   0.00038   0.00000  Uiso   1.00
H69    H     0.44282   0.23168   0.30408   0.00000  Uiso   1.00
H70    H     0.44432   0.29465   0.01007   0.00000  Uiso   1.00
N71    N     0.24941   0.31913   0.08235   0.00000  Uiso   1.00
O72    O     0.28082   0.33042   0.05016   0.00000  Uiso   1.00
O73    O     0.21263   0.29618   0.05524   0.00000  Uiso   1.00
N74    N     0.25082   0.01419   0.25095   0.00000  Uiso   1.00
O75    O     0.21957   0.00302   0.28344   0.00000  Uiso   1.00
O76    O     0.28782   0.03684   0.27773   0.00000  Uiso   1.00
O77    O     0.19424   0.15402   0.32746   0.00000  Uiso   1.00
C78    C     0.17604   0.10444   0.31649   0.00000  Uiso   1.00
H79    H     0.13911   0.10528   0.31142   0.00000  Uiso   1.00
H80    H     0.18543   0.08429   0.02001   0.00000  Uiso   1.00
H81    H     0.18743   0.08383   0.27407   0.00000  Uiso   1.00
O82    O     0.30576   0.17926   0.00601   0.00000  Uiso   1.00
C83    C     0.32456   0.22859   0.01568   0.00000  Uiso   1.00
H84    H     0.31401   0.25016   0.05816   0.00000  Uiso   1.00
H85    H     0.31538   0.24819   0.31153   0.00000  Uiso   1.00
H86    H     0.36145   0.22708   0.02039   0.00000  Uiso   1.00
O87    O     0.75325   0.09538   0.20659   0.00000  Uiso   1.00
O88    O     0.74674   0.23796   0.12674   0.00000  Uiso   1.00
O89    O     0.74480   0.08559   0.10279   0.00000  Uiso   1.00
O90    O     0.75520   0.24774   0.23055   0.00000  Uiso   1.00
C91    C     0.74913   0.06735   0.15208   0.00000  Uiso   1.00
C92    C     0.75078   0.26597   0.18125   0.00000  Uiso   1.00
O93    O     0.68935   0.17155   0.21857   0.00000  Uiso   1.00
O94    O     0.81064   0.16179   0.11476   0.00000  Uiso   1.00
O95    O     0.68090   0.16176   0.11477   0.00000  Uiso   1.00
O96    O     0.81910   0.17157   0.21857   0.00000  Uiso   1.00
C97    C     0.66493   0.16755   0.16738   0.00000  Uiso   1.00
C98    C     0.83501   0.16516   0.16590   0.00000  Uiso   1.00
Cu99   Cu    0.75500   0.17246   0.22813   0.00000  Uiso   1.00
Cu100  Cu    0.74499   0.16087   0.10521   0.00000  Uiso   1.00
C101   C     0.90836   0.20977   0.18646   0.00000  Uiso   1.00
C102   C     0.59265   0.12026   0.15521   0.00000  Uiso   1.00
C103   C     0.88323   0.16466   0.16553   0.00000  Uiso   1.00
C104   C     0.61665   0.16678   0.16798   0.00000  Uiso   1.00
C105   C     0.90376   0.11860   0.15151   0.00000  Uiso   1.00
C106   C     0.59502   0.21235   0.17747   0.00000  Uiso   1.00
C107   C     0.95072   0.11830   0.15029   0.00000  Uiso   1.00
C108   C     0.54863   0.21151   0.18313   0.00000  Uiso   1.00
C109   C     0.97659   0.16394   0.17002   0.00000  Uiso   1.00
C110   C     0.52367   0.16460   0.16992   0.00000  Uiso   1.00
C111   C     0.95547   0.20909   0.19091   0.00000  Uiso   1.00
C112   C     0.54540   0.11892   0.15354   0.00000  Uiso   1.00
C113   C     0.97212   0.07347   0.13026   0.00000  Uiso   1.00
C114   C     0.52688   0.25621   0.20332   0.00000  Uiso   1.00
C115   C     0.51922   0.07372   0.13316   0.00000  Uiso   1.00
C116   C     0.98226   0.25240   0.21693   0.00000  Uiso   1.00
C117   C     0.74962   0.01236   0.14340   0.00000  Uiso   1.00
C118   C     0.75025   0.32095   0.18988   0.00000  Uiso   1.00
N119   N     0.73744   0.15214   0.01284   0.00000  Uiso   1.00
N120   N     0.76255   0.18119   0.32049   0.00000  Uiso   1.00
N121   N     0.88527   0.25611   0.19846   0.00000  Uiso   1.00
O122   O     0.85907   0.26747   0.15545   0.00000  Uiso   1.00
O123   O     0.87768   0.27568   0.25332   0.00000  Uiso   1.00
N124   N     0.61714   0.07511   0.14335   0.00000  Uiso   1.00
O125   O     0.63369   0.06235   0.09177   0.00000  Uiso   1.00
O126   O     0.63429   0.05689   0.18827   0.00000  Uiso   1.00
O127   O     0.87753   0.07408   0.13942   0.00000  Uiso   1.00
C128   C     0.86959   0.05992   0.19462   0.00000  Uiso   1.00
H129   H     0.90104   0.05231   0.21947   0.00000  Uiso   1.00
H130   H     0.84766   0.02519   0.18515   0.00000  Uiso   1.00
H131   H     0.85188   0.08880   0.22428   0.00000  Uiso   1.00
O132   O     0.62024   0.25743   0.18639   0.00000  Uiso   1.00
C133   C     0.62640   0.26954   0.12966   0.00000  Uiso   1.00
H134   H     0.65056   0.30232   0.13608   0.00000  Uiso   1.00
H135   H     0.59459   0.27991   0.10827   0.00000  Uiso   1.00
H136   H     0.64047   0.23841   0.09835   0.00000  Uiso   1.00
O137   O     0.94666   0.03196   0.09839   0.00000  Uiso   1.00
C138   C     0.95100   0.32379   0.12714   0.00000  Uiso   1.00
H139   H     0.95269   0.00166   0.17677   0.00000  Uiso   1.00
H140   H     0.97993   0.30179   0.11257   0.00000  Uiso   1.00
H141   H     0.92159   0.29786   0.11169   0.00000  Uiso   1.00
O142   O     0.54480   0.30171   0.19385   0.00000  Uiso   1.00
C143   C     0.55538   0.00213   0.24824   0.00000  Uiso   1.00
H144   H     0.57799   0.31839   0.27886   0.00000  Uiso   1.00
H145   H     0.52487   0.01722   0.26732   0.00000  Uiso   1.00
H146   H     0.57340   0.03577   0.23944   0.00000  Uiso   1.00
O147   O     0.53956   0.02954   0.11330   0.00000  Uiso   1.00
C148   C     0.54053   0.02329   0.05090   0.00000  Uiso   1.00
H149   H     0.55992   0.05466   0.03773   0.00000  Uiso   1.00
H150   H     0.50649   0.02129   0.02825   0.00000  Uiso   1.00
H151   H     0.55650   0.32068   0.03549   0.00000  Uiso   1.00
O152   O     0.96631   0.28892   0.25995   0.00000  Uiso   1.00
C153   C     0.96269   0.26824   0.31225   0.00000  Uiso   1.00
H154   H     0.99610   0.26287   0.00038   0.00000  Uiso   1.00
H155   H     0.94282   0.23168   0.30408   0.00000  Uiso   1.00
H156   H     0.94432   0.29465   0.01007   0.00000  Uiso   1.00
N157   N     0.74941   0.31913   0.08235   0.00000  Uiso   1.00
O158   O     0.78082   0.33042   0.05016   0.00000  Uiso   1.00
O159   O     0.71263   0.29618   0.05524   0.00000  Uiso   1.00
N160   N     0.75082   0.01419   0.25095   0.00000  Uiso   1.00
O161   O     0.71957   0.00302   0.28344   0.00000  Uiso   1.00
O162   O     0.78782   0.03684   0.27773   0.00000  Uiso   1.00
O163   O     0.69424   0.15402   0.32746   0.00000  Uiso   1.00
C164   C     0.67604   0.10444   0.31649   0.00000  Uiso   1.00
H165   H     0.63911   0.10528   0.31142   0.00000  Uiso   1.00
H166   H     0.68543   0.08429   0.02001   0.00000  Uiso   1.00
H167   H     0.68743   0.08383   0.27407   0.00000  Uiso   1.00
O168   O     0.80576   0.17926   0.00601   0.00000  Uiso   1.00
C169   C     0.82456   0.22859   0.01568   0.00000  Uiso   1.00
H170   H     0.81401   0.25016   0.05816   0.00000  Uiso   1.00
H171   H     0.81538   0.24819   0.31153   0.00000  Uiso   1.00
H172   H     0.86145   0.22708   0.02039   0.00000  Uiso   1.00
O173   O     0.25325   0.42871   0.20659   0.00000  Uiso   1.00
O174   O     0.24674   0.57129   0.12674   0.00000  Uiso   1.00
O175   O     0.24480   0.41892   0.10279   0.00000  Uiso   1.00
O176   O     0.25520   0.58108   0.23055   0.00000  Uiso   1.00
C177   C     0.24913   0.40069   0.15208   0.00000  Uiso   1.00
C178   C     0.25078   0.59930   0.18125   0.00000  Uiso   1.00
O179   O     0.18935   0.50488   0.21857   0.00000  Uiso   1.00
O180   O     0.31064   0.49512   0.11476   0.00000  Uiso   1.00
O181   O     0.18090   0.49510   0.11477   0.00000  Uiso   1.00
O182   O     0.31910   0.50490   0.21857   0.00000  Uiso   1.00
C183   C     0.16493   0.50089   0.16738   0.00000  Uiso   1.00
C184   C     0.33501   0.49850   0.16590   0.00000  Uiso   1.00
Cu185  Cu    0.25500   0.50579   0.22813   0.00000  Uiso   1.00
Cu186  Cu    0.24499   0.49421   0.10521   0.00000  Uiso   1.00
C187   C     0.40836   0.54311   0.18646   0.00000  Uiso   1.00
C188   C     0.09265   0.45360   0.15521   0.00000  Uiso   1.00
C189   C     0.38323   0.49799   0.16553   0.00000  Uiso   1.00
C190   C     0.11665   0.50012   0.16798   0.00000  Uiso   1.00
C191   C     0.40376   0.45193   0.15151   0.00000  Uiso   1.00
C192   C     0.09502   0.54569   0.17747   0.00000  Uiso   1.00
C193   C     0.45072   0.45164   0.15029   0.00000  Uiso   1.00
C194   C     0.04863   0.54484   0.18313   0.00000  Uiso   1.00
C195   C     0.47659   0.49727   0.17002   0.00000  Uiso   1.00
C196   C     0.02367   0.49793   0.16992   0.00000  Uiso   1.00
C197   C     0.45547   0.54242   0.19091   0.00000  Uiso   1.00
C198   C     0.04540   0.45225   0.15354   0.00000  Uiso   1.00
C199   C     0.47212   0.40680   0.13026   0.00000  Uiso   1.00
C200   C     0.02688   0.58954   0.20332   0.00000  Uiso   1.00
C201   C     0.01922   0.40705   0.13316   0.00000  Uiso   1.00
C202   C     0.48226   0.58574   0.21693   0.00000  Uiso   1.00
C203   C     0.24962   0.34569   0.14340   0.00000  Uiso   1.00
C204   C     0.25025   0.65428   0.18988   0.00000  Uiso   1.00
N205   N     0.23744   0.48547   0.01284   0.00000  Uiso   1.00
N206   N     0.26255   0.51453   0.32049   0.00000  Uiso   1.00
N207   N     0.38527   0.58944   0.19846   0.00000  Uiso   1.00
O208   O     0.35907   0.60080   0.15545   0.00000  Uiso   1.00
O209   O     0.37768   0.60901   0.25332   0.00000  Uiso   1.00
N210   N     0.11714   0.40845   0.14335   0.00000  Uiso   1.00
O211   O     0.13369   0.39569   0.09177   0.00000  Uiso   1.00
O212   O     0.13429   0.39023   0.18827   0.00000  Uiso   1.00
O213   O     0.37753   0.40742   0.13942   0.00000  Uiso   1.00
C214   C     0.36959   0.39325   0.19462   0.00000  Uiso   1.00
H215   H     0.40104   0.38564   0.21947   0.00000  Uiso   1.00
H216   H     0.34766   0.35852   0.18515   0.00000  Uiso   1.00
H217   H     0.35188   0.42213   0.22428   0.00000  Uiso   1.00
O218   O     0.12024   0.59077   0.18639   0.00000  Uiso   1.00
C219   C     0.12640   0.60287   0.12966   0.00000  Uiso   1.00
H220   H     0.15056   0.63566   0.13608   0.00000  Uiso   1.00
H221   H     0.09459   0.61325   0.10827   0.00000  Uiso   1.00
H222   H     0.14047   0.57174   0.09835   0.00000  Uiso   1.00
O223   O     0.44666   0.36529   0.09839   0.00000  Uiso   1.00
C224   C     0.45100   0.65712   0.12714   0.00000  Uiso   1.00
H225   H     0.45269   0.33499   0.17677   0.00000  Uiso   1.00
H226   H     0.47993   0.63512   0.11257   0.00000  Uiso   1.00
H227   H     0.42159   0.63119   0.11169   0.00000  Uiso   1.00
O228   O     0.04480   0.63504   0.19385   0.00000  Uiso   1.00
C229   C     0.05538   0.33546   0.24824   0.00000  Uiso   1.00
H230   H     0.07799   0.65172   0.27886   0.00000  Uiso   1.00
H231   H     0.02487   0.35056   0.26732   0.00000  Uiso   1.00
H232   H     0.07340   0.36910   0.23944   0.00000  Uiso   1.00
O233   O     0.03956   0.36287   0.11330   0.00000  Uiso   1.00
C234   C     0.04053   0.35662   0.05090   0.00000  Uiso   1.00
H235   H     0.05992   0.38800   0.03773   0.00000  Uiso   1.00
H236   H     0.00649   0.35462   0.02825   0.00000  Uiso   1.00
H237   H     0.05650   0.65401   0.03549   0.00000  Uiso   1.00
O238   O     0.46631   0.62225   0.25995   0.00000  Uiso   1.00
C239   C     0.46269   0.60158   0.31225   0.00000  Uiso   1.00
H240   H     0.49610   0.59620   0.00038   0.00000  Uiso   1.00
H241   H     0.44282   0.56502   0.30408   0.00000  Uiso   1.00
H242   H     0.44432   0.62799   0.01007   0.00000  Uiso   1.00
N243   N     0.24941   0.65246   0.08235   0.00000  Uiso   1.00
O244   O     0.28082   0.66376   0.05016   0.00000  Uiso   1.00
O245   O     0.21263   0.62952   0.05524   0.00000  Uiso   1.00
N246   N     0.25082   0.34753   0.25095   0.00000  Uiso   1.00
O247   O     0.21957   0.33635   0.28344   0.00000  Uiso   1.00
O248   O     0.28782   0.37018   0.27773   0.00000  Uiso   1.00
O249   O     0.19424   0.48736   0.32746   0.00000  Uiso   1.00
C250   C     0.17604   0.43777   0.31649   0.00000  Uiso   1.00
H251   H     0.13911   0.43861   0.31142   0.00000  Uiso   1.00
H252   H     0.18543   0.41762   0.02001   0.00000  Uiso   1.00
H253   H     0.18743   0.41716   0.27407   0.00000  Uiso   1.00
O254   O     0.30576   0.51259   0.00601   0.00000  Uiso   1.00
C255   C     0.32456   0.56193   0.01568   0.00000  Uiso   1.00
H256   H     0.31401   0.58350   0.05816   0.00000  Uiso   1.00
H257   H     0.31538   0.58152   0.31153   0.00000  Uiso   1.00
H258   H     0.36145   0.56041   0.02039   0.00000  Uiso   1.00
O259   O     0.75325   0.42871   0.20659   0.00000  Uiso   1.00
O260   O     0.74674   0.57129   0.12674   0.00000  Uiso   1.00
O261   O     0.74480   0.41892   0.10279   0.00000  Uiso   1.00
O262   O     0.75520   0.58108   0.23055   0.00000  Uiso   1.00
C263   C     0.74913   0.40069   0.15208   0.00000  Uiso   1.00
C264   C     0.75078   0.59930   0.18125   0.00000  Uiso   1.00
O265   O     0.68935   0.50488   0.21857   0.00000  Uiso   1.00
O266   O     0.81064   0.49512   0.11476   0.00000  Uiso   1.00
O267   O     0.68090   0.49510   0.11477   0.00000  Uiso   1.00
O268   O     0.81910   0.50490   0.21857   0.00000  Uiso   1.00
C269   C     0.66493   0.50089   0.16738   0.00000  Uiso   1.00
C270   C     0.83501   0.49850   0.16590   0.00000  Uiso   1.00
Cu271  Cu    0.75500   0.50579   0.22813   0.00000  Uiso   1.00
Cu272  Cu    0.74499   0.49421   0.10521   0.00000  Uiso   1.00
C273   C     0.90836   0.54311   0.18646   0.00000  Uiso   1.00
C274   C     0.59265   0.45360   0.15521   0.00000  Uiso   1.00
C275   C     0.88323   0.49799   0.16553   0.00000  Uiso   1.00
C276   C     0.61665   0.50012   0.16798   0.00000  Uiso   1.00
C277   C     0.90376   0.45193   0.15151   0.00000  Uiso   1.00
C278   C     0.59502   0.54569   0.17747   0.00000  Uiso   1.00
C279   C     0.95072   0.45164   0.15029   0.00000  Uiso   1.00
C280   C     0.54863   0.54484   0.18313   0.00000  Uiso   1.00
C281   C     0.97659   0.49727   0.17002   0.00000  Uiso   1.00
C282   C     0.52367   0.49793   0.16992   0.00000  Uiso   1.00
C283   C     0.95547   0.54242   0.19091   0.00000  Uiso   1.00
C284   C     0.54540   0.45225   0.15354   0.00000  Uiso   1.00
C285   C     0.97212   0.40680   0.13026   0.00000  Uiso   1.00
C286   C     0.52688   0.58954   0.20332   0.00000  Uiso   1.00
C287   C     0.51922   0.40705   0.13316   0.00000  Uiso   1.00
C288   C     0.98226   0.58574   0.21693   0.00000  Uiso   1.00
C289   C     0.74962   0.34569   0.14340   0.00000  Uiso   1.00
C290   C     0.75025   0.65428   0.18988   0.00000  Uiso   1.00
N291   N     0.73744   0.48547   0.01284   0.00000  Uiso   1.00
N292   N     0.76255   0.51453   0.32049   0.00000  Uiso   1.00
N293   N     0.88527   0.58944   0.19846   0.00000  Uiso   1.00
O294   O     0.85907   0.60080   0.15545   0.00000  Uiso   1.00
O295   O     0.87768   0.60901   0.25332   0.00000  Uiso   1.00
N296   N     0.61714   0.40845   0.14335   0.00000  Uiso   1.00
O297   O     0.63369   0.39569   0.09177   0.00000  Uiso   1.00
O298   O     0.63429   0.39023   0.18827   0.00000  Uiso   1.00
O299   O     0.87753   0.40742   0.13942   0.00000  Uiso   1.00
C300   C     0.86959   0.39325   0.19462   0.00000  Uiso   1.00
H301   H     0.90104   0.38564   0.21947   0.00000  Uiso   1.00
H302   H     0.84766   0.35852   0.18515   0.00000  Uiso   1.00
H303   H     0.85188   0.42213   0.22428   0.00000  Uiso   1.00
O304   O     0.62024   0.59077   0.18639   0.00000  Uiso   1.00
C305   C     0.62640   0.60287   0.12966   0.00000  Uiso   1.00
H306   H     0.65056   0.63566   0.13608   0.00000  Uiso   1.00
H307   H     0.59459   0.61325   0.10827   0.00000  Uiso   1.00
H308   H     0.64047   0.57174   0.09835   0.00000  Uiso   1.00
O309   O     0.94666   0.36529   0.09839   0.00000  Uiso   1.00
C310   C     0.95100   0.65712   0.12714   0.00000  Uiso   1.00
H311   H     0.95269   0.33499   0.17677   0.00000  Uiso   1.00
H312   H     0.97993   0.63512   0.11257   0.00000  Uiso   1.00
H313   H     0.92159   0.63119   0.11169   0.00000  Uiso   1.00
O314   O     0.54480   0.63504   0.19385   0.00000  Uiso   1.00
C315   C     0.55538   0.33546   0.24824   0.00000  Uiso   1.00
H316   H     0.57799   0.65172   0.27886   0.00000  Uiso   1.00
H317   H     0.52487   0.35056   0.26732   0.00000  Uiso   1.00
H318   H     0.57340   0.36910   0.23944   0.00000  Uiso   1.00
O319   O     0.53956   0.36287   0.11330   0.00000  Uiso   1.00
C320   C     0.54053   0.35662   0.05090   0.00000  Uiso   1.00
H321   H     0.55992   0.38800   0.03773   0.00000  Uiso   1.00
H322   H     0.50649   0.35462   0.02825   0.00000  Uiso   1.00
H323   H     0.55650   0.65401   0.03549   0.00000  Uiso   1.00
O324   O     0.96631   0.62225   0.25995   0.00000  Uiso   1.00
C325   C     0.96269   0.60158   0.31225   0.00000  Uiso   1.00
H326   H     0.99610   0.59620   0.00038   0.00000  Uiso   1.00
H327   H     0.94282   0.56502   0.30408   0.00000  Uiso   1.00
H328   H     0.94432   0.62799   0.01007   0.00000  Uiso   1.00
N329   N     0.74941   0.65246   0.08235   0.00000  Uiso   1.00
O330   O     0.78082   0.66376   0.05016   0.00000  Uiso   1.00
O331   O     0.71263   0.62952   0.05524   0.00000  Uiso   1.00
N332   N     0.75082   0.34753   0.25095   0.00000  Uiso   1.00
O333   O     0.71957   0.33635   0.28344   0.00000  Uiso   1.00
O334   O     0.78782   0.37018   0.27773   0.00000  Uiso   1.00
O335   O     0.69424   0.48736   0.32746   0.00000  Uiso   1.00
C336   C     0.67604   0.43777   0.31649   0.00000  Uiso   1.00
H337   H     0.63911   0.43861   0.31142   0.00000  Uiso   1.00
H338   H     0.68543   0.41762   0.02001   0.00000  Uiso   1.00
H339   H     0.68743   0.41716   0.27407   0.00000  Uiso   1.00
O340   O     0.80576   0.51259   0.00601   0.00000  Uiso   1.00
C341   C     0.82456   0.56193   0.01568   0.00000  Uiso   1.00
H342   H     0.81401   0.58350   0.05816   0.00000  Uiso   1.00
H343   H     0.81538   0.58152   0.31153   0.00000  Uiso   1.00
H344   H     0.86145   0.56041   0.02039   0.00000  Uiso   1.00
O345   O     0.25325   0.76204   0.20659   0.00000  Uiso   1.00
O346   O     0.24674   0.90462   0.12674   0.00000  Uiso   1.00
O347   O     0.24480   0.75226   0.10279   0.00000  Uiso   1.00
O348   O     0.25520   0.91441   0.23055   0.00000  Uiso   1.00
C349   C     0.24913   0.73402   0.15208   0.00000  Uiso   1.00
C350   C     0.25078   0.93264   0.18125   0.00000  Uiso   1.00
O351   O     0.18935   0.83821   0.21857   0.00000  Uiso   1.00
O352   O     0.31064   0.82845   0.11476   0.00000  Uiso   1.00
O353   O     0.18090   0.82843   0.11477   0.00000  Uiso   1.00
O354   O     0.31910   0.83824   0.21857   0.00000  Uiso   1.00
C355   C     0.16493   0.83422   0.16738   0.00000  Uiso   1.00
C356   C     0.33501   0.83183   0.16590   0.00000  Uiso   1.00
Cu357  Cu    0.25500   0.83913   0.22813   0.00000  Uiso   1.00
Cu358  Cu    0.24499   0.82754   0.10521   0.00000  Uiso   1.00
C359   C     0.40836   0.87644   0.18646   0.00000  Uiso   1.00
C360   C     0.09265   0.78693   0.15521   0.00000  Uiso   1.00
C361   C     0.38323   0.83133   0.16553   0.00000  Uiso   1.00
C362   C     0.11665   0.83345   0.16798   0.00000  Uiso   1.00
C363   C     0.40376   0.78527   0.15151   0.00000  Uiso   1.00
C364   C     0.09502   0.87902   0.17747   0.00000  Uiso   1.00
C365   C     0.45072   0.78497   0.15029   0.00000  Uiso   1.00
C366   C     0.04863   0.87818   0.18313   0.00000  Uiso   1.00
C367   C     0.47659   0.83060   0.17002   0.00000  Uiso   1.00
C368   C     0.02367   0.83126   0.16992   0.00000  Uiso   1.00
C369   C     0.45547   0.87575   0.19091   0.00000  Uiso   1.00
C370   C     0.04540   0.78558   0.15354   0.00000  Uiso   1.00
C371   C     0.47212   0.74014   0.13026   0.00000  Uiso   1.00
C372   C     0.02688   0.92288   0.20332   0.00000  Uiso   1.00
C373   C     0.01922   0.74038   0.13316   0.00000  Uiso   1.00
C374   C     0.48226   0.91907   0.21693   0.00000  Uiso   1.00
C375   C     0.24962   0.67903   0.14340   0.00000  Uiso   1.00
C376   C     0.25025   0.98761   0.18988   0.00000  Uiso   1.00
N377   N     0.23744   0.81881   0.01284   0.00000  Uiso   1.00
N378   N     0.26255   0.84786   0.32049   0.00000  Uiso   1.00
N379   N     0.38527   0.92277   0.19846   0.00000  Uiso   1.00
O380   O     0.35907   0.93414   0.15545   0.00000  Uiso   1.00
O381   O     0.37768   0.94235   0.25332   0.00000  Uiso   1.00
N382   N     0.11714   0.74178   0.14335   0.00000  Uiso   1.00
O383   O     0.13369   0.72902   0.09177   0.00000  Uiso   1.00
O384   O     0.13429   0.72356   0.18827   0.00000  Uiso   1.00
O385   O     0.37753   0.74075   0.13942   0.00000  Uiso   1.00
C386   C     0.36959   0.72659   0.19462   0.00000  Uiso   1.00
H387   H     0.40104   0.71898   0.21947   0.00000  Uiso   1.00
H388   H     0.34766   0.69185   0.18515   0.00000  Uiso   1.00
H389   H     0.35188   0.75546   0.22428   0.00000  Uiso   1.00
O390   O     0.12024   0.92410   0.18639   0.00000  Uiso   1.00
C391   C     0.12640   0.93621   0.12966   0.00000  Uiso   1.00
H392   H     0.15056   0.96899   0.13608   0.00000  Uiso   1.00
H393   H     0.09459   0.94658   0.10827   0.00000  Uiso   1.00
H394   H     0.14047   0.90507   0.09835   0.00000  Uiso   1.00
O395   O     0.44666   0.69863   0.09839   0.00000  Uiso   1.00
C396   C     0.45100   0.99045   0.12714   0.00000  Uiso   1.00
H397   H     0.45269   0.66832   0.17677   0.00000  Uiso   1.00
H398   H     0.47993   0.96845   0.11257   0.00000  Uiso   1.00
H399   H     0.42159   0.96452   0.11169   0.00000  Uiso   1.00
O400   O     0.04480   0.96838   0.19385   0.00000  Uiso   1.00
C401   C     0.05538   0.66880   0.24824   0.00000  Uiso   1.00
H402   H     0.07799   0.98505   0.27886   0.00000  Uiso   1.00
H403   H     0.02487   0.68389   0.26732   0.00000  Uiso   1.00
H404   H     0.07340   0.70243   0.23944   0.00000  Uiso   1.00
O405   O     0.03956   0.69621   0.11330   0.00000  Uiso   1.00
C406   C     0.04053   0.68995   0.05090   0.00000  Uiso   1.00
H407   H     0.05992   0.72133   0.03773   0.00000  Uiso   1.00
H408   H     0.00649   0.68795   0.02825   0.00000  Uiso   1.00
H409   H     0.05650   0.98735   0.03549   0.00000  Uiso   1.00
O410   O     0.46631   0.95558   0.25995   0.00000  Uiso   1.00
C411   C     0.46269   0.93491   0.31225   0.00000  Uiso   1.00
H412   H     0.49610   0.92953   0.00038   0.00000  Uiso   1.00
H413   H     0.44282   0.89835   0.30408   0.00000  Uiso   1.00
H414   H     0.44432   0.96132   0.01007   0.00000  Uiso   1.00
N415   N     0.24941   0.98580   0.08235   0.00000  Uiso   1.00
O416   O     0.28082   0.99709   0.05016   0.00000  Uiso   1.00
O417   O     0.21263   0.96285   0.05524   0.00000  Uiso   1.00
N418   N     0.25082   0.68086   0.25095   0.00000  Uiso   1.00
O419   O     0.21957   0.66968   0.28344   0.00000  Uiso   1.00
O420   O     0.28782   0.70351   0.27773   0.00000  Uiso   1.00
O421   O     0.19424   0.82069   0.32746   0.00000  Uiso   1.00
C422   C     0.17604   0.77110   0.31649   0.00000  Uiso   1.00
H423   H     0.13911   0.77195   0.31142   0.00000  Uiso   1.00
H424   H     0.18543   0.75095   0.02001   0.00000  Uiso   1.00
H425   H     0.18743   0.75050   0.27407   0.00000  Uiso   1.00
O426   O     0.30576   0.84593   0.00601   0.00000  Uiso   1.00
C427   C     0.32456   0.89526   0.01568   0.00000  Uiso   1.00
H428   H     0.31401   0.91683   0.05816   0.00000  Uiso   1.00
H429   H     0.31538   0.91485   0.31153   0.00000  Uiso   1.00
H430   H     0.36145   0.89375   0.02039   0.00000  Uiso   1.00
O431   O     0.75325   0.76204   0.20659   0.00000  Uiso   1.00
O432   O     0.74674   0.90462   0.12674   0.00000  Uiso   1.00
O433   O     0.74480   0.75226   0.10279   0.00000  Uiso   1.00
O434   O     0.75520   0.91441   0.23055   0.00000  Uiso   1.00
C435   C     0.74913   0.73402   0.15208   0.00000  Uiso   1.00
C436   C     0.75078   0.93264   0.18125   0.00000  Uiso   1.00
O437   O     0.68935   0.83821   0.21857   0.00000  Uiso   1.00
O438   O     0.81064   0.82845   0.11476   0.00000  Uiso   1.00
O439   O     0.68090   0.82843   0.11477   0.00000  Uiso   1.00
O440   O     0.81910   0.83824   0.21857   0.00000  Uiso   1.00
C441   C     0.66493   0.83422   0.16738   0.00000  Uiso   1.00
C442   C     0.83501   0.83183   0.16590   0.00000  Uiso   1.00
Cu443  Cu    0.75500   0.83913   0.22813   0.00000  Uiso   1.00
Cu444  Cu    0.74499   0.82754   0.10521   0.00000  Uiso   1.00
C445   C     0.90836   0.87644   0.18646   0.00000  Uiso   1.00
C446   C     0.59265   0.78693   0.15521   0.00000  Uiso   1.00
C447   C     0.88323   0.83133   0.16553   0.00000  Uiso   1.00
C448   C     0.61665   0.83345   0.16798   0.00000  Uiso   1.00
C449   C     0.90376   0.78527   0.15151   0.00000  Uiso   1.00
C450   C     0.59502   0.87902   0.17747   0.00000  Uiso   1.00
C451   C     0.95072   0.78497   0.15029   0.00000  Uiso   1.00
C452   C     0.54863   0.87818   0.18313   0.00000  Uiso   1.00
C453   C     0.97659   0.83060   0.17002   0.00000  Uiso   1.00
C454   C     0.52367   0.83126   0.16992   0.00000  Uiso   1.00
C455   C     0.95547   0.87575   0.19091   0.00000  Uiso   1.00
C456   C     0.54540   0.78558   0.15354   0.00000  Uiso   1.00
C457   C     0.97212   0.74014   0.13026   0.00000  Uiso   1.00
C458   C     0.52688   0.92288   0.20332   0.00000  Uiso   1.00
C459   C     0.51922   0.74038   0.13316   0.00000  Uiso   1.00
C460   C     0.98226   0.91907   0.21693   0.00000  Uiso   1.00
C461   C     0.74962   0.67903   0.14340   0.00000  Uiso   1.00
C462   C     0.75025   0.98761   0.18988   0.00000  Uiso   1.00
N463   N     0.73744   0.81881   0.01284   0.00000  Uiso   1.00
N464   N     0.76255   0.84786   0.32049   0.00000  Uiso   1.00
N465   N     0.88527   0.92277   0.19846   0.00000  Uiso   1.00
O466   O     0.85907   0.93414   0.15545   0.00000  Uiso   1.00
O467   O     0.87768   0.94235   0.25332   0.00000  Uiso   1.00
N468   N     0.61714   0.74178   0.14335   0.00000  Uiso   1.00
O469   O     0.63369   0.72902   0.09177   0.00000  Uiso   1.00
O470   O     0.63429   0.72356   0.18827   0.00000  Uiso   1.00
O471   O     0.87753   0.74075   0.13942   0.00000  Uiso   1.00
C472   C     0.86959   0.72659   0.19462   0.00000  Uiso   1.00
H473   H     0.90104   0.71898   0.21947   0.00000  Uiso   1.00
H474   H     0.84766   0.69185   0.18515   0.00000  Uiso   1.00
H475   H     0.85188   0.75546   0.22428   0.00000  Uiso   1.00
O476   O     0.62024   0.92410   0.18639   0.00000  Uiso   1.00
C477   C     0.62640   0.93621   0.12966   0.00000  Uiso   1.00
H478   H     0.65056   0.96899   0.13608   0.00000  Uiso   1.00
H479   H     0.59459   0.94658   0.10827   0.00000  Uiso   1.00
H480   H     0.64047   0.90507   0.09835   0.00000  Uiso   1.00
O481   O     0.94666   0.69863   0.09839   0.00000  Uiso   1.00
C482   C     0.95100   0.99045   0.12714   0.00000  Uiso   1.00
H483   H     0.95269   0.66832   0.17677   0.00000  Uiso   1.00
H484   H     0.97993   0.96845   0.11257   0.00000  Uiso   1.00
H485   H     0.92159   0.96452   0.11169   0.00000  Uiso   1.00
O486   O     0.54480   0.96838   0.19385   0.00000  Uiso   1.00
C487   C     0.55538   0.66880   0.24824   0.00000  Uiso   1.00
H488   H     0.57799   0.98505   0.27886   0.00000  Uiso   1.00
H489   H     0.52487   0.68389   0.26732   0.00000  Uiso   1.00
H490   H     0.57340   0.70243   0.23944   0.00000  Uiso   1.00
O491   O     0.53956   0.69621   0.11330   0.00000  Uiso   1.00
C492   C     0.54053   0.68995   0.05090   0.00000  Uiso   1.00
H493   H     0.55992   0.72133   0.03773   0.00000  Uiso   1.00
H494   H     0.50649   0.68795   0.02825   0.00000  Uiso   1.00
H495   H     0.55650   0.98735   0.03549   0.00000  Uiso   1.00
O496   O     0.96631   0.95558   0.25995   0.00000  Uiso   1.00
C497   C     0.96269   0.93491   0.31225   0.00000  Uiso   1.00
H498   H     0.99610   0.92953   0.00038   0.00000  Uiso   1.00
H499   H     0.94282   0.89835   0.30408   0.00000  Uiso   1.00
H500   H     0.94432   0.96132   0.01007   0.00000  Uiso   1.00
N501   N     0.74941   0.98580   0.08235   0.00000  Uiso   1.00
O502   O     0.78082   0.99709   0.05016   0.00000  Uiso   1.00
O503   O     0.71263   0.96285   0.05524   0.00000  Uiso   1.00
N504   N     0.75082   0.68086   0.25095   0.00000  Uiso   1.00
O505   O     0.71957   0.66968   0.28344   0.00000  Uiso   1.00
O506   O     0.78782   0.70351   0.27773   0.00000  Uiso   1.00
O507   O     0.69424   0.82069   0.32746   0.00000  Uiso   1.00
C508   C     0.67604   0.77110   0.31649   0.00000  Uiso   1.00
H509   H     0.63911   0.77195   0.31142   0.00000  Uiso   1.00
H510   H     0.68543   0.75095   0.02001   0.00000  Uiso   1.00
H511   H     0.68743   0.75050   0.27407   0.00000  Uiso   1.00
O512   O     0.80576   0.84593   0.00601   0.00000  Uiso   1.00
C513   C     0.82456   0.89526   0.01568   0.00000  Uiso   1.00
H514   H     0.81401   0.91683   0.05816   0.00000  Uiso   1.00
H515   H     0.81538   0.91485   0.31153   0.00000  Uiso   1.00
H516   H     0.86145   0.89375   0.02039   0.00000  Uiso   1.00
O517   O     0.25325   0.09538   0.53992   0.00000  Uiso   1.00
O518   O     0.24674   0.23796   0.46008   0.00000  Uiso   1.00
O519   O     0.24480   0.08559   0.43612   0.00000  Uiso   1.00
O520   O     0.25520   0.24774   0.56388   0.00000  Uiso   1.00
C521   C     0.24913   0.06735   0.48541   0.00000  Uiso   1.00
C522   C     0.25078   0.26597   0.51458   0.00000  Uiso   1.00
O523   O     0.18935   0.17155   0.55191   0.00000  Uiso   1.00
O524   O     0.31064   0.16179   0.44809   0.00000  Uiso   1.00
O525   O     0.18090   0.16176   0.44810   0.00000  Uiso   1.00
O526   O     0.31910   0.17157   0.55190   0.00000  Uiso   1.00
C527   C     0.16493   0.16755   0.50071   0.00000  Uiso   1.00
C528   C     0.33501   0.16516   0.49924   0.00000  Uiso   1.00
Cu529  Cu    0.25500   0.17246   0.56146   0.00000  Uiso   1.00
Cu530  Cu    0.24499   0.16087   0.43854   0.00000  Uiso   1.00
C531   C     0.40836   0.20977   0.51979   0.00000  Uiso   1.00
C532   C     0.09265   0.12026   0.48855   0.00000  Uiso   1.00
C533   C     0.38323   0.16466   0.49886   0.00000  Uiso   1.00
C534   C     0.11665   0.16678   0.50131   0.00000  Uiso   1.00
C535   C     0.40376   0.11860   0.48484   0.00000  Uiso   1.00
C536   C     0.09502   0.21235   0.51081   0.00000  Uiso   1.00
C537   C     0.45072   0.11830   0.48362   0.00000  Uiso   1.00
C538   C     0.04863   0.21151   0.51646   0.00000  Uiso   1.00
C539   C     0.47659   0.16394   0.50335   0.00000  Uiso   1.00
C540   C     0.02367   0.16460   0.50326   0.00000  Uiso   1.00
C541   C     0.45547   0.20909   0.52424   0.00000  Uiso   1.00
C542   C     0.04540   0.11892   0.48688   0.00000  Uiso   1.00
C543   C     0.47212   0.07347   0.46359   0.00000  Uiso   1.00
C544   C     0.02688   0.25621   0.53665   0.00000  Uiso   1.00
C545   C     0.01922   0.07372   0.46649   0.00000  Uiso   1.00
C546   C     0.48226   0.25240   0.55026   0.00000  Uiso   1.00
C547   C     0.24962   0.01236   0.47673   0.00000  Uiso   1.00
C548   C     0.25025   0.32095   0.52321   0.00000  Uiso   1.00
N549   N     0.23744   0.15214   0.34617   0.00000  Uiso   1.00
N550   N     0.26255   0.18119   0.65383   0.00000  Uiso   1.00
N551   N     0.38527   0.25611   0.53180   0.00000  Uiso   1.00
O552   O     0.35907   0.26747   0.48878   0.00000  Uiso   1.00
O553   O     0.37768   0.27568   0.58666   0.00000  Uiso   1.00
N554   N     0.11714   0.07511   0.47668   0.00000  Uiso   1.00
O555   O     0.13369   0.06235   0.42510   0.00000  Uiso   1.00
O556   O     0.13429   0.05689   0.52160   0.00000  Uiso   1.00
O557   O     0.37753   0.07408   0.47275   0.00000  Uiso   1.00
C558   C     0.36959   0.05992   0.52795   0.00000  Uiso   1.00
H559   H     0.40104   0.05231   0.55280   0.00000  Uiso   1.00
H560   H     0.34766   0.02519   0.51849   0.00000  Uiso   1.00
H561   H     0.35188   0.08880   0.55762   0.00000  Uiso   1.00
O562   O     0.12024   0.25743   0.51972   0.00000  Uiso   1.00
C563   C     0.12640   0.26954   0.46299   0.00000  Uiso   1.00
H564   H     0.15056   0.30232   0.46942   0.00000  Uiso   1.00
H565   H     0.09459   0.27991   0.44161   0.00000  Uiso   1.00
H566   H     0.14047   0.23841   0.43169   0.00000  Uiso   1.00
O567   O     0.44666   0.03196   0.43172   0.00000  Uiso   1.00
C568   C     0.45100   0.32379   0.46047   0.00000  Uiso   1.00
H569   H     0.45269   0.00166   0.51010   0.00000  Uiso   1.00
H570   H     0.47993   0.30179   0.44590   0.00000  Uiso   1.00
H571   H     0.42159   0.29786   0.44502   0.00000  Uiso   1.00
O572   O     0.04480   0.30171   0.52719   0.00000  Uiso   1.00
C573   C     0.05538   0.00213   0.58158   0.00000  Uiso   1.00
H574   H     0.07799   0.31839   0.61219   0.00000  Uiso   1.00
H575   H     0.02487   0.01722   0.60065   0.00000  Uiso   1.00
H576   H     0.07340   0.03577   0.57278   0.00000  Uiso   1.00
O577   O     0.03956   0.02954   0.44664   0.00000  Uiso   1.00
C578   C     0.04053   0.02329   0.38423   0.00000  Uiso   1.00
H579   H     0.05992   0.05466   0.37106   0.00000  Uiso   1.00
H580   H     0.00649   0.02129   0.36158   0.00000  Uiso   1.00
H581   H     0.05650   0.32068   0.36883   0.00000  Uiso   1.00
O582   O     0.46631   0.28892   0.59328   0.00000  Uiso   1.00
C583   C     0.46269   0.26824   0.64558   0.00000  Uiso   1.00
H584   H     0.49610   0.26287   0.33372   0.00000  Uiso   1.00
H585   H     0.44282   0.23168   0.63742   0.00000  Uiso   1.00
H586   H     0.44432   0.29465   0.34340   0.00000  Uiso   1.00
N587   N     0.24941   0.31913   0.41568   0.00000  Uiso   1.00
O588   O     0.28082   0.33042   0.38349   0.00000  Uiso   1.00
O589   O     0.21263   0.29618   0.38858   0.00000  Uiso   1.00
N590   N     0.25082   0.01419   0.58428   0.00000  Uiso   1.00
O591   O     0.21957   0.00302   0.61677   0.00000  Uiso   1.00
O592   O     0.28782   0.03684   0.61106   0.00000  Uiso   1.00
O593   O     0.19424   0.15402   0.66079   0.00000  Uiso   1.00
C594   C     0.17604   0.10444   0.64982   0.00000  Uiso   1.00
H595   H     0.13911   0.10528   0.64476   0.00000  Uiso   1.00
H596   H     0.18543   0.08429   0.35335   0.00000  Uiso   1.00
H597   H     0.18743   0.08383   0.60740   0.00000  Uiso   1.00
O598   O     0.30576   0.17926   0.33934   0.00000  Uiso   1.00
C599   C     0.32456   0.22859   0.34902   0.00000  Uiso   1.00
H600   H     0.31401   0.25016   0.39150   0.00000  Uiso   1.00
H601   H     0.31538   0.24819   0.64487   0.00000  Uiso   1.00
H602   H     0.36145   0.22708   0.35373   0.00000  Uiso   1.00
O603   O     0.75325   0.09538   0.53992   0.00000  Uiso   1.00
O604   O     0.74674   0.23796   0.46008   0.00000  Uiso   1.00
O605   O     0.74480   0.08559   0.43612   0.00000  Uiso   1.00
O606   O     0.75520   0.24774   0.56388   0.00000  Uiso   1.00
C607   C     0.74913   0.06735   0.48541   0.00000  Uiso   1.00
C608   C     0.75078   0.26597   0.51458   0.00000  Uiso   1.00
O609   O     0.68935   0.17155   0.55191   0.00000  Uiso   1.00
O610   O     0.81064   0.16179   0.44809   0.00000  Uiso   1.00
O611   O     0.68090   0.16176   0.44810   0.00000  Uiso   1.00
O612   O     0.81910   0.17157   0.55190   0.00000  Uiso   1.00
C613   C     0.66493   0.16755   0.50071   0.00000  Uiso   1.00
C614   C     0.83501   0.16516   0.49924   0.00000  Uiso   1.00
Cu615  Cu    0.75500   0.17246   0.56146   0.00000  Uiso   1.00
Cu616  Cu    0.74499   0.16087   0.43854   0.00000  Uiso   1.00
C617   C     0.90836   0.20977   0.51979   0.00000  Uiso   1.00
C618   C     0.59265   0.12026   0.48855   0.00000  Uiso   1.00
C619   C     0.88323   0.16466   0.49886   0.00000  Uiso   1.00
C620   C     0.61665   0.16678   0.50131   0.00000  Uiso   1.00
C621   C     0.90376   0.11860   0.48484   0.00000  Uiso   1.00
C622   C     0.59502   0.21235   0.51081   0.00000  Uiso   1.00
C623   C     0.95072   0.11830   0.48362   0.00000  Uiso   1.00
C624   C     0.54863   0.21151   0.51646   0.00000  Uiso   1.00
C625   C     0.97659   0.16394   0.50335   0.00000  Uiso   1.00
C626   C     0.52367   0.16460   0.50326   0.00000  Uiso   1.00
C627   C     0.95547   0.20909   0.52424   0.00000  Uiso   1.00
C628   C     0.54540   0.11892   0.48688   0.00000  Uiso   1.00
C629   C     0.97212   0.07347   0.46359   0.00000  Uiso   1.00
C630   C     0.52688   0.25621   0.53665   0.00000  Uiso   1.00
C631   C     0.51922   0.07372   0.46649   0.00000  Uiso   1.00
C632   C     0.98226   0.25240   0.55026   0.00000  Uiso   1.00
C633   C     0.74962   0.01236   0.47673   0.00000  Uiso   1.00
C634   C     0.75025   0.32095   0.52321   0.00000  Uiso   1.00
N635   N     0.73744   0.15214   0.34617   0.00000  Uiso   1.00
N636   N     0.76255   0.18119   0.65383   0.00000  Uiso   1.00
N637   N     0.88527   0.25611   0.53180   0.00000  Uiso   1.00
O638   O     0.85907   0.26747   0.48878   0.00000  Uiso   1.00
O639   O     0.87768   0.27568   0.58666   0.00000  Uiso   1.00
N640   N     0.61714   0.07511   0.47668   0.00000  Uiso   1.00
O641   O     0.63369   0.06235   0.42510   0.00000  Uiso   1.00
O642   O     0.63429   0.05689   0.52160   0.00000  Uiso   1.00
O643   O     0.87753   0.07408   0.47275   0.00000  Uiso   1.00
C644   C     0.86959   0.05992   0.52795   0.00000  Uiso   1.00
H645   H     0.90104   0.05231   0.55280   0.00000  Uiso   1.00
H646   H     0.84766   0.02519   0.51849   0.00000  Uiso   1.00
H647   H     0.85188   0.08880   0.55762   0.00000  Uiso   1.00
O648   O     0.62024   0.25743   0.51972   0.00000  Uiso   1.00
C649   C     0.62640   0.26954   0.46299   0.00000  Uiso   1.00
H650   H     0.65056   0.30232   0.46942   0.00000  Uiso   1.00
H651   H     0.59459   0.27991   0.44161   0.00000  Uiso   1.00
H652   H     0.64047   0.23841   0.43169   0.00000  Uiso   1.00
O653   O     0.94666   0.03196   0.43172   0.00000  Uiso   1.00
C654   C     0.95100   0.32379   0.46047   0.00000  Uiso   1.00
H655   H     0.95269   0.00166   0.51010   0.00000  Uiso   1.00
H656   H     0.97993   0.30179   0.44590   0.00000  Uiso   1.00
H657   H     0.92159   0.29786   0.44502   0.00000  Uiso   1.00
O658   O     0.54480   0.30171   0.52719   0.00000  Uiso   1.00
C659   C     0.55538   0.00213   0.58158   0.00000  Uiso   1.00
H660   H     0.57799   0.31839   0.61219   0.00000  Uiso   1.00
H661   H     0.52487   0.01722   0.60065   0.00000  Uiso   1.00
H662   H     0.57340   0.03577   0.57278   0.00000  Uiso   1.00
O663   O     0.53956   0.02954   0.44664   0.00000  Uiso   1.00
C664   C     0.54053   0.02329   0.38423   0.00000  Uiso   1.00
H665   H     0.55992   0.05466   0.37106   0.00000  Uiso   1.00
H666   H     0.50649   0.02129   0.36158   0.00000  Uiso   1.00
H667   H     0.55650   0.32068   0.36883   0.00000  Uiso   1.00
O668   O     0.96631   0.28892   0.59328   0.00000  Uiso   1.00
C669   C     0.96269   0.26824   0.64558   0.00000  Uiso   1.00
H670   H     0.99610   0.26287   0.33372   0.00000  Uiso   1.00
H671   H     0.94282   0.23168   0.63742   0.00000  Uiso   1.00
H672   H     0.94432   0.29465   0.34340   0.00000  Uiso   1.00
N673   N     0.74941   0.31913   0.41568   0.00000  Uiso   1.00
O674   O     0.78082   0.33042   0.38349   0.00000  Uiso   1.00
O675   O     0.71263   0.29618   0.38858   0.00000  Uiso   1.00
N676   N     0.75082   0.01419   0.58428   0.00000  Uiso   1.00
O677   O     0.71957   0.00302   0.61677   0.00000  Uiso   1.00
O678   O     0.78782   0.03684   0.61106   0.00000  Uiso   1.00
O679   O     0.69424   0.15402   0.66079   0.00000  Uiso   1.00
C680   C     0.67604   0.10444   0.64982   0.00000  Uiso   1.00
H681   H     0.63911   0.10528   0.64476   0.00000  Uiso   1.00
H682   H     0.68543   0.08429   0.35335   0.00000  Uiso   1.00
H683   H     0.68743   0.08383   0.60740   0.00000  Uiso   1.00
O684   O     0.80576   0.17926   0.33934   0.00000  Uiso   1.00
C685   C     0.82456   0.22859   0.34902   0.00000  Uiso   1.00
H686   H     0.81401   0.25016   0.39150   0.00000  Uiso   1.00
H687   H     0.81538   0.24819   0.64487   0.00000  Uiso   1.00
H688   H     0.86145   0.22708   0.35373   0.00000  Uiso   1.00
O689   O     0.25325   0.42871   0.53992   0.00000  Uiso   1.00
O690   O     0.24674   0.57129   0.46008   0.00000  Uiso   1.00
O691   O     0.24480   0.41892   0.43612   0.00000  Uiso   1.00
O692   O     0.25520   0.58108   0.56388   0.00000  Uiso   1.00
C693   C     0.24913   0.40069   0.48541   0.00000  Uiso   1.00
C694   C     0.25078   0.59930   0.51458   0.00000  Uiso   1.00
O695   O     0.18935   0.50488   0.55191   0.00000  Uiso   1.00
O696   O     0.31064   0.49512   0.44809   0.00000  Uiso   1.00
O697   O     0.18090   0.49510   0.44810   0.00000  Uiso   1.00
O698   O     0.31910   0.50490   0.55190   0.00000  Uiso   1.00
C699   C     0.16493   0.50089   0.50071   0.00000  Uiso   1.00
C700   C     0.33501   0.49850   0.49924   0.00000  Uiso   1.00
Cu701  Cu    0.25500   0.50579   0.56146   0.00000  Uiso   1.00
Cu702  Cu    0.24499   0.49421   0.43854   0.00000  Uiso   1.00
C703   C     0.40836   0.54311   0.51979   0.00000  Uiso   1.00
C704   C     0.09265   0.45360   0.48855   0.00000  Uiso   1.00
C705   C     0.38323   0.49799   0.49886   0.00000  Uiso   1.00
C706   C     0.11665   0.50012   0.50131   0.00000  Uiso   1.00
C707   C     0.40376   0.45193   0.48484   0.00000  Uiso   1.00
C708   C     0.09502   0.54569   0.51081   0.00000  Uiso   1.00
C709   C     0.45072   0.45164   0.48362   0.00000  Uiso   1.00
C710   C     0.04863   0.54484   0.51646   0.00000  Uiso   1.00
C711   C     0.47659   0.49727   0.50335   0.00000  Uiso   1.00
C712   C     0.02367   0.49793   0.50326   0.00000  Uiso   1.00
C713   C     0.45547   0.54242   0.52424   0.00000  Uiso   1.00
C714   C     0.04540   0.45225   0.48688   0.00000  Uiso   1.00
C715   C     0.47212   0.40680   0.46359   0.00000  Uiso   1.00
C716   C     0.02688   0.58954   0.53665   0.00000  Uiso   1.00
C717   C     0.01922   0.40705   0.46649   0.00000  Uiso   1.00
C718   C     0.48226   0.58574   0.55026   0.00000  Uiso   1.00
C719   C     0.24962   0.34569   0.47673   0.00000  Uiso   1.00
C720   C     0.25025   0.65428   0.52321   0.00000  Uiso   1.00
N721   N     0.23744   0.48547   0.34617   0.00000  Uiso   1.00
N722   N     0.26255   0.51453   0.65383   0.00000  Uiso   1.00
N723   N     0.38527   0.58944   0.53180   0.00000  Uiso   1.00
O724   O     0.35907   0.60080   0.48878   0.00000  Uiso   1.00
O725   O     0.37768   0.60901   0.58666   0.00000  Uiso   1.00
N726   N     0.11714   0.40845   0.47668   0.00000  Uiso   1.00
O727   O     0.13369   0.39569   0.42510   0.00000  Uiso   1.00
O728   O     0.13429   0.39023   0.52160   0.00000  Uiso   1.00
O729   O     0.37753   0.40742   0.47275   0.00000  Uiso   1.00
C730   C     0.36959   0.39325   0.52795   0.00000  Uiso   1.00
H731   H     0.40104   0.38564   0.55280   0.00000  Uiso   1.00
H732   H     0.34766   0.35852   0.51849   0.00000  Uiso   1.00
H733   H     0.35188   0.42213   0.55762   0.00000  Uiso   1.00
O734   O     0.12024   0.59077   0.51972   0.00000  Uiso   1.00
C735   C     0.12640   0.60287   0.46299   0.00000  Uiso   1.00
H736   H     0.15056   0.63566   0.46942   0.00000  Uiso   1.00
H737   H     0.09459   0.61325   0.44161   0.00000  Uiso   1.00
H738   H     0.14047   0.57174   0.43169   0.00000  Uiso   1.00
O739   O     0.44666   0.36529   0.43172   0.00000  Uiso   1.00
C740   C     0.45100   0.65712   0.46047   0.00000  Uiso   1.00
H741   H     0.45269   0.33499   0.51010   0.00000  Uiso   1.00
H742   H     0.47993   0.63512   0.44590   0.00000  Uiso   1.00
H743   H     0.42159   0.63119   0.44502   0.00000  Uiso   1.00
O744   O     0.04480   0.63504   0.52719   0.00000  Uiso   1.00
C745   C     0.05538   0.33546   0.58158   0.00000  Uiso   1.00
H746   H     0.07799   0.65172   0.61219   0.00000  Uiso   1.00
H747   H     0.02487   0.35056   0.60065   0.00000  Uiso   1.00
H748   H     0.07340   0.36910   0.57278   0.00000  Uiso   1.00
O749   O     0.03956   0.36287   0.44664   0.00000  Uiso   1.00
C750   C     0.04053   0.35662   0.38423   0.00000  Uiso   1.00
H751   H     0.05992   0.38800   0.37106   0.00000  Uiso   1.00
H752   H     0.00649   0.35462   0.36158   0.00000  Uiso   1.00
H753   H     0.05650   0.65401   0.36883   0.00000  Uiso   1.00
O754   O     0.46631   0.62225   0.59328   0.00000  Uiso   1.00
C755   C     0.46269   0.60158   0.64558   0.00000  Uiso   1.00
H756   H     0.49610   0.59620   0.33372   0.00000  Uiso   1.00
H757   H     0.44282   0.56502   0.63742   0.00000  Uiso   1.00
H758   H     0.44432   0.62799   0.34340   0.00000  Uiso   1.00
N759   N     0.24941   0.65246   0.41568   0.00000  Uiso   1.00
O760   O     0.28082   0.66376   0.38349   0.00000  Uiso   1.00
O761   O     0.21263   0.62952   0.38858   0.00000  Uiso   1.00
N762   N     0.25082   0.34753   0.58428   0.00000  Uiso   1.00
O763   O     0.21957   0.33635   0.61677   0.00000  Uiso   1.00
O764   O     0.28782   0.37018   0.61106   0.00000  Uiso   1.00
O765   O     0.19424   0.48736   0.66079   0.00000  Uiso   1.00
C766   C     0.17604   0.43777   0.64982   0.00000  Uiso   1.00
H767   H     0.13911   0.43861   0.64476   0.00000  Uiso   1.00
H768   H     0.18543   0.41762   0.35335   0.00000  Uiso   1.00
H769   H     0.18743   0.41716   0.60740   0.00000  Uiso   1.00
O770   O     0.30576   0.51259   0.33934   0.00000  Uiso   1.00
C771   C     0.32456   0.56193   0.34902   0.00000  Uiso   1.00
H772   H     0.31401   0.58350   0.39150   0.00000  Uiso   1.00
H773   H     0.31538   0.58152   0.64487   0.00000  Uiso   1.00
H774   H     0.36145   0.56041   0.35373   0.00000  Uiso   1.00
O775   O     0.75325   0.42871   0.53992   0.00000  Uiso   1.00
O776   O     0.74674   0.57129   0.46008   0.00000  Uiso   1.00
O777   O     0.74480   0.41892   0.43612   0.00000  Uiso   1.00
O778   O     0.75520   0.58108   0.56388   0.00000  Uiso   1.00
C779   C     0.74913   0.40069   0.48541   0.00000  Uiso   1.00
C780   C     0.75078   0.59930   0.51458   0.00000  Uiso   1.00
O781   O     0.68935   0.50488   0.55191   0.00000  Uiso   1.00
O782   O     0.81064   0.49512   0.44809   0.00000  Uiso   1.00
O783   O     0.68090   0.49510   0.44810   0.00000  Uiso   1.00
O784   O     0.81910   0.50490   0.55190   0.00000  Uiso   1.00
C785   C     0.66493   0.50089   0.50071   0.00000  Uiso   1.00
C786   C     0.83501   0.49850   0.49924   0.00000  Uiso   1.00
Cu787  Cu    0.75500   0.50579   0.56146   0.00000  Uiso   1.00
Cu788  Cu    0.74499   0.49421   0.43854   0.00000  Uiso   1.00
C789   C     0.90836   0.54311   0.51979   0.00000  Uiso   1.00
C790   C     0.59265   0.45360   0.48855   0.00000  Uiso   1.00
C791   C     0.88323   0.49799   0.49886   0.00000  Uiso   1.00
C792   C     0.61665   0.50012   0.50131   0.00000  Uiso   1.00
C793   C     0.90376   0.45193   0.48484   0.00000  Uiso   1.00
C794   C     0.59502   0.54569   0.51081   0.00000  Uiso   1.00
C795   C     0.95072   0.45164   0.48362   0.00000  Uiso   1.00
C796   C     0.54863   0.54484   0.51646   0.00000  Uiso   1.00
C797   C     0.97659   0.49727   0.50335   0.00000  Uiso   1.00
C798   C     0.52367   0.49793   0.50326   0.00000  Uiso   1.00
C799   C     0.95547   0.54242   0.52424   0.00000  Uiso   1.00
C800   C     0.54540   0.45225   0.48688   0.00000  Uiso   1.00
C801   C     0.97212   0.40680   0.46359   0.00000  Uiso   1.00
C802   C     0.52688   0.58954   0.53665   0.00000  Uiso   1.00
C803   C     0.51922   0.40705   0.46649   0.00000  Uiso   1.00
C804   C     0.98226   0.58574   0.55026   0.00000  Uiso   1.00
C805   C     0.74962   0.34569   0.47673   0.00000  Uiso   1.00
C806   C     0.75025   0.65428   0.52321   0.00000  Uiso   1.00
N807   N     0.73744   0.48547   0.34617   0.00000  Uiso   1.00
N808   N     0.76255   0.51453   0.65383   0.00000  Uiso   1.00
N809   N     0.88527   0.58944   0.53180   0.00000  Uiso   1.00
O810   O     0.85907   0.60080   0.48878   0.00000  Uiso   1.00
O811   O     0.87768   0.60901   0.58666   0.00000  Uiso   1.00
N812   N     0.61714   0.40845   0.47668   0.00000  Uiso   1.00
O813   O     0.63369   0.39569   0.42510   0.00000  Uiso   1.00
O814   O     0.63429   0.39023   0.52160   0.00000  Uiso   1.00
O815   O     0.87753   0.40742   0.47275   0.00000  Uiso   1.00
C816   C     0.86959   0.39325   0.52795   0.00000  Uiso   1.00
H817   H     0.90104   0.38564   0.55280   0.00000  Uiso   1.00
H818   H     0.84766   0.35852   0.51849   0.00000  Uiso   1.00
H819   H     0.85188   0.42213   0.55762   0.00000  Uiso   1.00
O820   O     0.62024   0.59077   0.51972   0.00000  Uiso   1.00
C821   C     0.62640   0.60287   0.46299   0.00000  Uiso   1.00
H822   H     0.65056   0.63566   0.46942   0.00000  Uiso   1.00
H823   H     0.59459   0.61325   0.44161   0.00000  Uiso   1.00
H824   H     0.64047   0.57174   0.43169   0.00000  Uiso   1.00
O825   O     0.94666   0.36529   0.43172   0.00000  Uiso   1.00
C826   C     0.95100   0.65712   0.46047   0.00000  Uiso   1.00
H827   H     0.95269   0.33499   0.51010   0.00000  Uiso   1.00
H828   H     0.97993   0.63512   0.44590   0.00000  Uiso   1.00
H829   H     0.92159   0.63119   0.44502   0.00000  Uiso   1.00
O830   O     0.54480   0.63504   0.52719   0.00000  Uiso   1.00
C831   C     0.55538   0.33546   0.58158   0.00000  Uiso   1.00
H832   H     0.57799   0.65172   0.61219   0.00000  Uiso   1.00
H833   H     0.52487   0.35056   0.60065   0.00000  Uiso   1.00
H834   H     0.57340   0.36910   0.57278   0.00000  Uiso   1.00
O835   O     0.53956   0.36287   0.44664   0.00000  Uiso   1.00
C836   C     0.54053   0.35662   0.38423   0.00000  Uiso   1.00
H837   H     0.55992   0.38800   0.37106   0.00000  Uiso   1.00
H838   H     0.50649   0.35462   0.36158   0.00000  Uiso   1.00
H839   H     0.55650   0.65401   0.36883   0.00000  Uiso   1.00
O840   O     0.96631   0.62225   0.59328   0.00000  Uiso   1.00
C841   C     0.96269   0.60158   0.64558   0.00000  Uiso   1.00
H842   H     0.99610   0.59620   0.33372   0.00000  Uiso   1.00
H843   H     0.94282   0.56502   0.63742   0.00000  Uiso   1.00
H844   H     0.94432   0.62799   0.34340   0.00000  Uiso   1.00
N845   N     0.74941   0.65246   0.41568   0.00000  Uiso   1.00
O846   O     0.78082   0.66376   0.38349   0.00000  Uiso   1.00
O847   O     0.71263   0.62952   0.38858   0.00000  Uiso   1.00
N848   N     0.75082   0.34753   0.58428   0.00000  Uiso   1.00
O849   O     0.71957   0.33635   0.61677   0.00000  Uiso   1.00
O850   O     0.78782   0.37018   0.61106   0.00000  Uiso   1.00
O851   O     0.69424   0.48736   0.66079   0.00000  Uiso   1.00
C852   C     0.67604   0.43777   0.64982   0.00000  Uiso   1.00
H853   H     0.63911   0.43861   0.64476   0.00000  Uiso   1.00
H854   H     0.68543   0.41762   0.35335   0.00000  Uiso   1.00
H855   H     0.68743   0.41716   0.60740   0.00000  Uiso   1.00
O856   O     0.80576   0.51259   0.33934   0.00000  Uiso   1.00
C857   C     0.82456   0.56193   0.34902   0.00000  Uiso   1.00
H858   H     0.81401   0.58350   0.39150   0.00000  Uiso   1.00
H859   H     0.81538   0.58152   0.64487   0.00000  Uiso   1.00
H860   H     0.86145   0.56041   0.35373   0.00000  Uiso   1.00
O861   O     0.25325   0.76204   0.53992   0.00000  Uiso   1.00
O862   O     0.24674   0.90462   0.46008   0.00000  Uiso   1.00
O863   O     0.24480   0.75226   0.43612   0.00000  Uiso   1.00
O864   O     0.25520   0.91441   0.56388   0.00000  Uiso   1.00
C865   C     0.24913   0.73402   0.48541   0.00000  Uiso   1.00
C866   C     0.25078   0.93264   0.51458   0.00000  Uiso   1.00
O867   O     0.18935   0.83821   0.55191   0.00000  Uiso   1.00
O868   O     0.31064   0.82845   0.44809   0.00000  Uiso   1.00
O869   O     0.18090   0.82843   0.44810   0.00000  Uiso   1.00
O870   O     0.31910   0.83824   0.55190   0.00000  Uiso   1.00
C871   C     0.16493   0.83422   0.50071   0.00000  Uiso   1.00
C872   C     0.33501   0.83183   0.49924   0.00000  Uiso   1.00
Cu873  Cu    0.25500   0.83913   0.56146   0.00000  Uiso   1.00
Cu874  Cu    0.24499   0.82754   0.43854   0.00000  Uiso   1.00
C875   C     0.40836   0.87644   0.51979   0.00000  Uiso   1.00
C876   C     0.09265   0.78693   0.48855   0.00000  Uiso   1.00
C877   C     0.38323   0.83133   0.49886   0.00000  Uiso   1.00
C878   C     0.11665   0.83345   0.50131   0.00000  Uiso   1.00
C879   C     0.40376   0.78527   0.48484   0.00000  Uiso   1.00
C880   C     0.09502   0.87902   0.51081   0.00000  Uiso   1.00
C881   C     0.45072   0.78497   0.48362   0.00000  Uiso   1.00
C882   C     0.04863   0.87818   0.51646   0.00000  Uiso   1.00
C883   C     0.47659   0.83060   0.50335   0.00000  Uiso   1.00
C884   C     0.02367   0.83126   0.50326   0.00000  Uiso   1.00
C885   C     0.45547   0.87575   0.52424   0.00000  Uiso   1.00
C886   C     0.04540   0.78558   0.48688   0.00000  Uiso   1.00
C887   C     0.47212   0.74014   0.46359   0.00000  Uiso   1.00
C888   C     0.02688   0.92288   0.53665   0.00000  Uiso   1.00
C889   C     0.01922   0.74038   0.46649   0.00000  Uiso   1.00
C890   C     0.48226   0.91907   0.55026   0.00000  Uiso   1.00
C891   C     0.24962   0.67903   0.47673   0.00000  Uiso   1.00
C892   C     0.25025   0.98761   0.52321   0.00000  Uiso   1.00
N893   N     0.23744   0.81881   0.34617   0.00000  Uiso   1.00
N894   N     0.26255   0.84786   0.65383   0.00000  Uiso   1.00
N895   N     0.38527   0.92277   0.53180   0.00000  Uiso   1.00
O896   O     0.35907   0.93414   0.48878   0.00000  Uiso   1.00
O897   O     0.37768   0.94235   0.58666   0.00000  Uiso   1.00
N898   N     0.11714   0.74178   0.47668   0.00000  Uiso   1.00
O899   O     0.13369   0.72902   0.42510   0.00000  Uiso   1.00
O900   O     0.13429   0.72356   0.52160   0.00000  Uiso   1.00
O901   O     0.37753   0.74075   0.47275   0.00000  Uiso   1.00
C902   C     0.36959   0.72659   0.52795   0.00000  Uiso   1.00
H903   H     0.40104   0.71898   0.55280   0.00000  Uiso   1.00
H904   H     0.34766   0.69185   0.51849   0.00000  Uiso   1.00
H905   H     0.35188   0.75546   0.55762   0.00000  Uiso   1.00
O906   O     0.12024   0.92410   0.51972   0.00000  Uiso   1.00
C907   C     0.12640   0.93621   0.46299   0.00000  Uiso   1.00
H908   H     0.15056   0.96899   0.46942   0.00000  Uiso   1.00
H909   H     0.09459   0.94658   0.44161   0.00000  Uiso   1.00
H910   H     0.14047   0.90507   0.43169   0.00000  Uiso   1.00
O911   O     0.44666   0.69863   0.43172   0.00000  Uiso   1.00
C912   C     0.45100   0.99045   0.46047   0.00000  Uiso   1.00
H913   H     0.45269   0.66832   0.51010   0.00000  Uiso   1.00
H914   H     0.47993   0.96845   0.44590   0.00000  Uiso   1.00
H915   H     0.42159   0.96452   0.44502   0.00000  Uiso   1.00
O916   O     0.04480   0.96838   0.52719   0.00000  Uiso   1.00
C917   C     0.05538   0.66880   0.58158   0.00000  Uiso   1.00
H918   H     0.07799   0.98505   0.61219   0.00000  Uiso   1.00
H919   H     0.02487   0.68389   0.60065   0.00000  Uiso   1.00
H920   H     0.07340   0.70243   0.57278   0.00000  Uiso   1.00
O921   O     0.03956   0.69621   0.44664   0.00000  Uiso   1.00
C922   C     0.04053   0.68995   0.38423   0.00000  Uiso   1.00
H923   H     0.05992   0.72133   0.37106   0.00000  Uiso   1.00
H924   H     0.00649   0.68795   0.36158   0.00000  Uiso   1.00
H925   H     0.05650   0.98735   0.36883   0.00000  Uiso   1.00
O926   O     0.46631   0.95558   0.59328   0.00000  Uiso   1.00
C927   C     0.46269   0.93491   0.64558   0.00000  Uiso   1.00
H928   H     0.49610   0.92953   0.33372   0.00000  Uiso   1.00
H929   H     0.44282   0.89835   0.63742   0.00000  Uiso   1.00
H930   H     0.44432   0.96132   0.34340   0.00000  Uiso   1.00
N931   N     0.24941   0.98580   0.41568   0.00000  Uiso   1.00
O932   O     0.28082   0.99709   0.38349   0.00000  Uiso   1.00
O933   O     0.21263   0.96285   0.38858   0.00000  Uiso   1.00
N934   N     0.25082   0.68086   0.58428   0.00000  Uiso   1.00
O935   O     0.21957   0.66968   0.61677   0.00000  Uiso   1.00
O936   O     0.28782   0.70351   0.61106   0.00000  Uiso   1.00
O937   O     0.19424   0.82069   0.66079   0.00000  Uiso   1.00
C938   C     0.17604   0.77110   0.64982   0.00000  Uiso   1.00
H939   H     0.13911   0.77195   0.64476   0.00000  Uiso   1.00
H940   H     0.18543   0.75095   0.35335   0.00000  Uiso   1.00
H941   H     0.18743   0.75050   0.60740   0.00000  Uiso   1.00
O942   O     0.30576   0.84593   0.33934   0.00000  Uiso   1.00
C943   C     0.32456   0.89526   0.34902   0.00000  Uiso   1.00
H944   H     0.31401   0.91683   0.39150   0.00000  Uiso   1.00
H945   H     0.31538   0.91485   0.64487   0.00000  Uiso   1.00
H946   H     0.36145   0.89375   0.35373   0.00000  Uiso   1.00
O947   O     0.75325   0.76204   0.53992   0.00000  Uiso   1.00
O948   O     0.74674   0.90462   0.46008   0.00000  Uiso   1.00
O949   O     0.74480   0.75226   0.43612   0.00000  Uiso   1.00
O950   O     0.75520   0.91441   0.56388   0.00000  Uiso   1.00
C951   C     0.74913   0.73402   0.48541   0.00000  Uiso   1.00
C952   C     0.75078   0.93264   0.51458   0.00000  Uiso   1.00
O953   O     0.68935   0.83821   0.55191   0.00000  Uiso   1.00
O954   O     0.81064   0.82845   0.44809   0.00000  Uiso   1.00
O955   O     0.68090   0.82843   0.44810   0.00000  Uiso   1.00
O956   O     0.81910   0.83824   0.55190   0.00000  Uiso   1.00
C957   C     0.66493   0.83422   0.50071   0.00000  Uiso   1.00
C958   C     0.83501   0.83183   0.49924   0.00000  Uiso   1.00
Cu959  Cu    0.75500   0.83913   0.56146   0.00000  Uiso   1.00
Cu960  Cu    0.74499   0.82754   0.43854   0.00000  Uiso   1.00
C961   C     0.90836   0.87644   0.51979   0.00000  Uiso   1.00
C962   C     0.59265   0.78693   0.48855   0.00000  Uiso   1.00
C963   C     0.88323   0.83133   0.49886   0.00000  Uiso   1.00
C964   C     0.61665   0.83345   0.50131   0.00000  Uiso   1.00
C965   C     0.90376   0.78527   0.48484   0.00000  Uiso   1.00
C966   C     0.59502   0.87902   0.51081   0.00000  Uiso   1.00
C967   C     0.95072   0.78497   0.48362   0.00000  Uiso   1.00
C968   C     0.54863   0.87818   0.51646   0.00000  Uiso   1.00
C969   C     0.97659   0.83060   0.50335   0.00000  Uiso   1.00
C970   C     0.52367   0.83126   0.50326   0.00000  Uiso   1.00
C971   C     0.95547   0.87575   0.52424   0.00000  Uiso   1.00
C972   C     0.54540   0.78558   0.48688   0.00000  Uiso   1.00
C973   C     0.97212   0.74014   0.46359   0.00000  Uiso   1.00
C974   C     0.52688   0.92288   0.53665   0.00000  Uiso   1.00
C975   C     0.51922   0.74038   0.46649   0.00000  Uiso   1.00
C976   C     0.98226   0.91907   0.55026   0.00000  Uiso   1.00
C977   C     0.74962   0.67903   0.47673   0.00000  Uiso   1.00
C978   C     0.75025   0.98761   0.52321   0.00000  Uiso   1.00
N979   N     0.73744   0.81881   0.34617   0.00000  Uiso   1.00
N980   N     0.76255   0.84786   0.65383   0.00000  Uiso   1.00
N981   N     0.88527   0.92277   0.53180   0.00000  Uiso   1.00
O982   O     0.85907   0.93414   0.48878   0.00000  Uiso   1.00
O983   O     0.87768   0.94235   0.58666   0.00000  Uiso   1.00
N984   N     0.61714   0.74178   0.47668   0.00000  Uiso   1.00
O985   O     0.63369   0.72902   0.42510   0.00000  Uiso   1.00
O986   O     0.63429   0.72356   0.52160   0.00000  Uiso   1.00
O987   O     0.87753   0.74075   0.47275   0.00000  Uiso   1.00
C988   C     0.86959   0.72659   0.52795   0.00000  Uiso   1.00
H989   H     0.90104   0.71898   0.55280   0.00000  Uiso   1.00
H990   H     0.84766   0.69185   0.51849   0.00000  Uiso   1.00
H991   H     0.85188   0.75546   0.55762   0.00000  Uiso   1.00
O992   O     0.62024   0.92410   0.51972   0.00000  Uiso   1.00
C993   C     0.62640   0.93621   0.46299   0.00000  Uiso   1.00
H994   H     0.65056   0.96899   0.46942   0.00000  Uiso   1.00
H995   H     0.59459   0.94658   0.44161   0.00000  Uiso   1.00
H996   H     0.64047   0.90507   0.43169   0.00000  Uiso   1.00
O997   O     0.94666   0.69863   0.43172   0.00000  Uiso   1.00
C998   C     0.95100   0.99045   0.46047   0.00000  Uiso   1.00
H999   H     0.95269   0.66832   0.51010   0.00000  Uiso   1.00
H1000  H     0.97993   0.96845   0.44590   0.00000  Uiso   1.00
H1001  H     0.92159   0.96452   0.44502   0.00000  Uiso   1.00
O1002  O     0.54480   0.96838   0.52719   0.00000  Uiso   1.00
C1003  C     0.55538   0.66880   0.58158   0.00000  Uiso   1.00
H1004  H     0.57799   0.98505   0.61219   0.00000  Uiso   1.00
H1005  H     0.52487   0.68389   0.60065   0.00000  Uiso   1.00
H1006  H     0.57340   0.70243   0.57278   0.00000  Uiso   1.00
O1007  O     0.53956   0.69621   0.44664   0.00000  Uiso   1.00
C1008  C     0.54053   0.68995   0.38423   0.00000  Uiso   1.00
H1009  H     0.55992   0.72133   0.37106   0.00000  Uiso   1.00
H1010  H     0.50649   0.68795   0.36158   0.00000  Uiso   1.00
H1011  H     0.55650   0.98735   0.36883   0.00000  Uiso   1.00
O1012  O     0.96631   0.95558   0.59328   0.00000  Uiso   1.00
C1013  C     0.96269   0.93491   0.64558   0.00000  Uiso   1.00
H1014  H     0.99610   0.92953   0.33372   0.00000  Uiso   1.00
H1015  H     0.94282   0.89835   0.63742   0.00000  Uiso   1.00
H1016  H     0.94432   0.96132   0.34340   0.00000  Uiso   1.00
N1017  N     0.74941   0.98580   0.41568   0.00000  Uiso   1.00
O1018  O     0.78082   0.99709   0.38349   0.00000  Uiso   1.00
O1019  O     0.71263   0.96285   0.38858   0.00000  Uiso   1.00
N1020  N     0.75082   0.68086   0.58428   0.00000  Uiso   1.00
O1021  O     0.71957   0.66968   0.61677   0.00000  Uiso   1.00
O1022  O     0.78782   0.70351   0.61106   0.00000  Uiso   1.00
O1023  O     0.69424   0.82069   0.66079   0.00000  Uiso   1.00
C1024  C     0.67604   0.77110   0.64982   0.00000  Uiso   1.00
H1025  H     0.63911   0.77195   0.64476   0.00000  Uiso   1.00
H1026  H     0.68543   0.75095   0.35335   0.00000  Uiso   1.00
H1027  H     0.68743   0.75050   0.60740   0.00000  Uiso   1.00
O1028  O     0.80576   0.84593   0.33934   0.00000  Uiso   1.00
C1029  C     0.82456   0.89526   0.34902   0.00000  Uiso   1.00
H1030  H     0.81401   0.91683   0.39150   0.00000  Uiso   1.00
H1031  H     0.81538   0.91485   0.64487   0.00000  Uiso   1.00
H1032  H     0.86145   0.89375   0.35373   0.00000  Uiso   1.00
O1033  O     0.25325   0.09538   0.87326   0.00000  Uiso   1.00
O1034  O     0.24674   0.23796   0.79341   0.00000  Uiso   1.00
O1035  O     0.24480   0.08559   0.76945   0.00000  Uiso   1.00
O1036  O     0.25520   0.24774   0.89721   0.00000  Uiso   1.00
C1037  C     0.24913   0.06735   0.81874   0.00000  Uiso   1.00
C1038  C     0.25078   0.26597   0.84792   0.00000  Uiso   1.00
O1039  O     0.18935   0.17155   0.88524   0.00000  Uiso   1.00
O1040  O     0.31064   0.16179   0.78143   0.00000  Uiso   1.00
O1041  O     0.18090   0.16176   0.78143   0.00000  Uiso   1.00
O1042  O     0.31910   0.17157   0.88523   0.00000  Uiso   1.00
C1043  C     0.16493   0.16755   0.83404   0.00000  Uiso   1.00
C1044  C     0.33501   0.16516   0.83257   0.00000  Uiso   1.00
Cu1045 Cu    0.25500   0.17246   0.89479   0.00000  Uiso   1.00
Cu1046 Cu    0.24499   0.16087   0.77187   0.00000  Uiso   1.00
C1047  C     0.40836   0.20977   0.85313   0.00000  Uiso   1.00
C1048  C     0.09265   0.12026   0.82188   0.00000  Uiso   1.00
C1049  C     0.38323   0.16466   0.83219   0.00000  Uiso   1.00
C1050  C     0.11665   0.16678   0.83465   0.00000  Uiso   1.00
C1051  C     0.40376   0.11860   0.81817   0.00000  Uiso   1.00
C1052  C     0.09502   0.21235   0.84414   0.00000  Uiso   1.00
C1053  C     0.45072   0.11830   0.81696   0.00000  Uiso   1.00
C1054  C     0.04863   0.21151   0.84979   0.00000  Uiso   1.00
C1055  C     0.47659   0.16394   0.83668   0.00000  Uiso   1.00
C1056  C     0.02367   0.16460   0.83659   0.00000  Uiso   1.00
C1057  C     0.45547   0.20909   0.85757   0.00000  Uiso   1.00
C1058  C     0.04540   0.11892   0.82021   0.00000  Uiso   1.00
C1059  C     0.47212   0.07347   0.79693   0.00000  Uiso   1.00
C1060  C     0.02688   0.25621   0.86999   0.00000  Uiso   1.00
C1061  C     0.01922   0.07372   0.79983   0.00000  Uiso   1.00
C1062  C     0.48226   0.25240   0.88360   0.00000  Uiso   1.00
C1063  C     0.24962   0.01236   0.81007   0.00000  Uiso   1.00
C1064  C     0.25025   0.32095   0.85654   0.00000  Uiso   1.00
N1065  N     0.23744   0.15214   0.67951   0.00000  Uiso   1.00
N1066  N     0.26255   0.18119   0.98716   0.00000  Uiso   1.00
N1067  N     0.38527   0.25611   0.86513   0.00000  Uiso   1.00
O1068  O     0.35907   0.26747   0.82211   0.00000  Uiso   1.00
O1069  O     0.37768   0.27568   0.91999   0.00000  Uiso   1.00
N1070  N     0.11714   0.07511   0.81002   0.00000  Uiso   1.00
O1071  O     0.13369   0.06235   0.75843   0.00000  Uiso   1.00
O1072  O     0.13429   0.05689   0.85493   0.00000  Uiso   1.00
O1073  O     0.37753   0.07408   0.80609   0.00000  Uiso   1.00
C1074  C     0.36959   0.05992   0.86129   0.00000  Uiso   1.00
H1075  H     0.40104   0.05231   0.88613   0.00000  Uiso   1.00
H1076  H     0.34766   0.02519   0.85182   0.00000  Uiso   1.00
H1077  H     0.35188   0.08880   0.89095   0.00000  Uiso   1.00
O1078  O     0.12024   0.25743   0.85306   0.00000  Uiso   1.00
C1079  C     0.12640   0.26954   0.79632   0.00000  Uiso   1.00
H1080  H     0.15056   0.30232   0.80275   0.00000  Uiso   1.00
H1081  H     0.09459   0.27991   0.77494   0.00000  Uiso   1.00
H1082  H     0.14047   0.23841   0.76502   0.00000  Uiso   1.00
O1083  O     0.44666   0.03196   0.76506   0.00000  Uiso   1.00
C1084  C     0.45100   0.32379   0.79381   0.00000  Uiso   1.00
H1085  H     0.45269   0.00166   0.84343   0.00000  Uiso   1.00
H1086  H     0.47993   0.30179   0.77923   0.00000  Uiso   1.00
H1087  H     0.42159   0.29786   0.77836   0.00000  Uiso   1.00
O1088  O     0.04480   0.30171   0.86052   0.00000  Uiso   1.00
C1089  C     0.05538   0.00213   0.91491   0.00000  Uiso   1.00
H1090  H     0.07799   0.31839   0.94553   0.00000  Uiso   1.00
H1091  H     0.02487   0.01722   0.93399   0.00000  Uiso   1.00
H1092  H     0.07340   0.03577   0.90611   0.00000  Uiso   1.00
O1093  O     0.03956   0.02954   0.77997   0.00000  Uiso   1.00
C1094  C     0.04053   0.02329   0.71756   0.00000  Uiso   1.00
H1095  H     0.05992   0.05466   0.70440   0.00000  Uiso   1.00
H1096  H     0.00649   0.02129   0.69492   0.00000  Uiso   1.00
H1097  H     0.05650   0.32068   0.70216   0.00000  Uiso   1.00
O1098  O     0.46631   0.28892   0.92662   0.00000  Uiso   1.00
C1099  C     0.46269   0.26824   0.97891   0.00000  Uiso   1.00
H1100  H     0.49610   0.26287   0.66705   0.00000  Uiso   1.00
H1101  H     0.44282   0.23168   0.97075   0.00000  Uiso   1.00
H1102  H     0.44432   0.29465   0.67674   0.00000  Uiso   1.00
N1103  N     0.24941   0.31913   0.74902   0.00000  Uiso   1.00
O1104  O     0.28082   0.33042   0.71682   0.00000  Uiso   1.00
O1105  O     0.21263   0.29618   0.72191   0.00000  Uiso   1.00
N1106  N     0.25082   0.01419   0.91761   0.00000  Uiso   1.00
O1107  O     0.21957   0.00302   0.95011   0.00000  Uiso   1.00
O1108  O     0.28782   0.03684   0.94440   0.00000  Uiso   1.00
O1109  O     0.19424   0.15402   0.99413   0.00000  Uiso   1.00
C1110  C     0.17604   0.10444   0.98316   0.00000  Uiso   1.00
H1111  H     0.13911   0.10528   0.97809   0.00000  Uiso   1.00
H1112  H     0.18543   0.08429   0.68668   0.00000  Uiso   1.00
H1113  H     0.18743   0.08383   0.94074   0.00000  Uiso   1.00
O1114  O     0.30576   0.17926   0.67268   0.00000  Uiso   1.00
C1115  C     0.32456   0.22859   0.68235   0.00000  Uiso   1.00
H1116  H     0.31401   0.25016   0.72483   0.00000  Uiso   1.00
H1117  H     0.31538   0.24819   0.97820   0.00000  Uiso   1.00
H1118  H     0.36145   0.22708   0.68706   0.00000  Uiso   1.00
O1119  O     0.75325   0.09538   0.87326   0.00000  Uiso   1.00
O1120  O     0.74674   0.23796   0.79341   0.00000  Uiso   1.00
O1121  O     0.74480   0.08559   0.76945   0.00000  Uiso   1.00
O1122  O     0.75520   0.24774   0.89721   0.00000  Uiso   1.00
C1123  C     0.74913   0.06735   0.81874   0.00000  Uiso   1.00
C1124  C     0.75078   0.26597   0.84792   0.00000  Uiso   1.00
O1125  O     0.68935   0.17155   0.88524   0.00000  Uiso   1.00
O1126  O     0.81064   0.16179   0.78143   0.00000  Uiso   1.00
O1127  O     0.68090   0.16176   0.78143   0.00000  Uiso   1.00
O1128  O     0.81910   0.17157   0.88523   0.00000  Uiso   1.00
C1129  C     0.66493   0.16755   0.83404   0.00000  Uiso   1.00
C1130  C     0.83501   0.16516   0.83257   0.00000  Uiso   1.00
Cu1131 Cu    0.75500   0.17246   0.89479   0.00000  Uiso   1.00
Cu1132 Cu    0.74499   0.16087   0.77187   0.00000  Uiso   1.00
C1133  C     0.90836   0.20977   0.85313   0.00000  Uiso   1.00
C1134  C     0.59265   0.12026   0.82188   0.00000  Uiso   1.00
C1135  C     0.88323   0.16466   0.83219   0.00000  Uiso   1.00
C1136  C     0.61665   0.16678   0.83465   0.00000  Uiso   1.00
C1137  C     0.90376   0.11860   0.81817   0.00000  Uiso   1.00
C1138  C     0.59502   0.21235   0.84414   0.00000  Uiso   1.00
C1139  C     0.95072   0.11830   0.81696   0.00000  Uiso   1.00
C1140  C     0.54863   0.21151   0.84979   0.00000  Uiso   1.00
C1141  C     0.97659   0.16394   0.83668   0.00000  Uiso   1.00
C1142  C     0.52367   0.16460   0.83659   0.00000  Uiso   1.00
C1143  C     0.95547   0.20909   0.85757   0.00000  Uiso   1.00
C1144  C     0.54540   0.11892   0.82021   0.00000  Uiso   1.00
C1145  C     0.97212   0.07347   0.79693   0.00000  Uiso   1.00
C1146  C     0.52688   0.25621   0.86999   0.00000  Uiso   1.00
C1147  C     0.51922   0.07372   0.79983   0.00000  Uiso   1.00
C1148  C     0.98226   0.25240   0.88360   0.00000  Uiso   1.00
C1149  C     0.74962   0.01236   0.81007   0.00000  Uiso   1.00
C1150  C     0.75025   0.32095   0.85654   0.00000  Uiso   1.00
N1151  N     0.73744   0.15214   0.67951   0.00000  Uiso   1.00
N1152  N     0.76255   0.18119   0.98716   0.00000  Uiso   1.00
N1153  N     0.88527   0.25611   0.86513   0.00000  Uiso   1.00
O1154  O     0.85907   0.26747   0.82211   0.00000  Uiso   1.00
O1155  O     0.87768   0.27568   0.91999   0.00000  Uiso   1.00
N1156  N     0.61714   0.07511   0.81002   0.00000  Uiso   1.00
O1157  O     0.63369   0.06235   0.75843   0.00000  Uiso   1.00
O1158  O     0.63429   0.05689   0.85493   0.00000  Uiso   1.00
O1159  O     0.87753   0.07408   0.80609   0.00000  Uiso   1.00
C1160  C     0.86959   0.05992   0.86129   0.00000  Uiso   1.00
H1161  H     0.90104   0.05231   0.88613   0.00000  Uiso   1.00
H1162  H     0.84766   0.02519   0.85182   0.00000  Uiso   1.00
H1163  H     0.85188   0.08880   0.89095   0.00000  Uiso   1.00
O1164  O     0.62024   0.25743   0.85306   0.00000  Uiso   1.00
C1165  C     0.62640   0.26954   0.79632   0.00000  Uiso   1.00
H1166  H     0.65056   0.30232   0.80275   0.00000  Uiso   1.00
H1167  H     0.59459   0.27991   0.77494   0.00000  Uiso   1.00
H1168  H     0.64047   0.23841   0.76502   0.00000  Uiso   1.00
O1169  O     0.94666   0.03196   0.76506   0.00000  Uiso   1.00
C1170  C     0.95100   0.32379   0.79381   0.00000  Uiso   1.00
H1171  H     0.95269   0.00166   0.84343   0.00000  Uiso   1.00
H1172  H     0.97993   0.30179   0.77923   0.00000  Uiso   1.00
H1173  H     0.92159   0.29786   0.77836   0.00000  Uiso   1.00
O1174  O     0.54480   0.30171   0.86052   0.00000  Uiso   1.00
C1175  C     0.55538   0.00213   0.91491   0.00000  Uiso   1.00
H1176  H     0.57799   0.31839   0.94553   0.00000  Uiso   1.00
H1177  H     0.52487   0.01722   0.93399   0.00000  Uiso   1.00
H1178  H     0.57340   0.03577   0.90611   0.00000  Uiso   1.00
O1179  O     0.53956   0.02954   0.77997   0.00000  Uiso   1.00
C1180  C     0.54053   0.02329   0.71756   0.00000  Uiso   1.00
H1181  H     0.55992   0.05466   0.70440   0.00000  Uiso   1.00
H1182  H     0.50649   0.02129   0.69492   0.00000  Uiso   1.00
H1183  H     0.55650   0.32068   0.70216   0.00000  Uiso   1.00
O1184  O     0.96631   0.28892   0.92662   0.00000  Uiso   1.00
C1185  C     0.96269   0.26824   0.97891   0.00000  Uiso   1.00
H1186  H     0.99610   0.26287   0.66705   0.00000  Uiso   1.00
H1187  H     0.94282   0.23168   0.97075   0.00000  Uiso   1.00
H1188  H     0.94432   0.29465   0.67674   0.00000  Uiso   1.00
N1189  N     0.74941   0.31913   0.74902   0.00000  Uiso   1.00
O1190  O     0.78082   0.33042   0.71682   0.00000  Uiso   1.00
O1191  O     0.71263   0.29618   0.72191   0.00000  Uiso   1.00
N1192  N     0.75082   0.01419   0.91761   0.00000  Uiso   1.00
O1193  O     0.71957   0.00302   0.95011   0.00000  Uiso   1.00
O1194  O     0.78782   0.03684   0.94440   0.00000  Uiso   1.00
O1195  O     0.69424   0.15402   0.99413   0.00000  Uiso   1.00
C1196  C     0.67604   0.10444   0.98316   0.00000  Uiso   1.00
H1197  H     0.63911   0.10528   0.97809   0.00000  Uiso   1.00
H1198  H     0.68543   0.08429   0.68668   0.00000  Uiso   1.00
H1199  H     0.68743   0.08383   0.94074   0.00000  Uiso   1.00
O1200  O     0.80576   0.17926   0.67268   0.00000  Uiso   1.00
C1201  C     0.82456   0.22859   0.68235   0.00000  Uiso   1.00
H1202  H     0.81401   0.25016   0.72483   0.00000  Uiso   1.00
H1203  H     0.81538   0.24819   0.97820   0.00000  Uiso   1.00
H1204  H     0.86145   0.22708   0.68706   0.00000  Uiso   1.00
O1205  O     0.25325   0.42871   0.87326   0.00000  Uiso   1.00
O1206  O     0.24674   0.57129   0.79341   0.00000  Uiso   1.00
O1207  O     0.24480   0.41892   0.76945   0.00000  Uiso   1.00
O1208  O     0.25520   0.58108   0.89721   0.00000  Uiso   1.00
C1209  C     0.24913   0.40069   0.81874   0.00000  Uiso   1.00
C1210  C     0.25078   0.59930   0.84792   0.00000  Uiso   1.00
O1211  O     0.18935   0.50488   0.88524   0.00000  Uiso   1.00
O1212  O     0.31064   0.49512   0.78143   0.00000  Uiso   1.00
O1213  O     0.18090   0.49510   0.78143   0.00000  Uiso   1.00
O1214  O     0.31910   0.50490   0.88523   0.00000  Uiso   1.00
C1215  C     0.16493   0.50089   0.83404   0.00000  Uiso   1.00
C1216  C     0.33501   0.49850   0.83257   0.00000  Uiso   1.00
Cu1217 Cu    0.25500   0.50579   0.89479   0.00000  Uiso   1.00
Cu1218 Cu    0.24499   0.49421   0.77187   0.00000  Uiso   1.00
C1219  C     0.40836   0.54311   0.85313   0.00000  Uiso   1.00
C1220  C     0.09265   0.45360   0.82188   0.00000  Uiso   1.00
C1221  C     0.38323   0.49799   0.83219   0.00000  Uiso   1.00
C1222  C     0.11665   0.50012   0.83465   0.00000  Uiso   1.00
C1223  C     0.40376   0.45193   0.81817   0.00000  Uiso   1.00
C1224  C     0.09502   0.54569   0.84414   0.00000  Uiso   1.00
C1225  C     0.45072   0.45164   0.81696   0.00000  Uiso   1.00
C1226  C     0.04863   0.54484   0.84979   0.00000  Uiso   1.00
C1227  C     0.47659   0.49727   0.83668   0.00000  Uiso   1.00
C1228  C     0.02367   0.49793   0.83659   0.00000  Uiso   1.00
C1229  C     0.45547   0.54242   0.85757   0.00000  Uiso   1.00
C1230  C     0.04540   0.45225   0.82021   0.00000  Uiso   1.00
C1231  C     0.47212   0.40680   0.79693   0.00000  Uiso   1.00
C1232  C     0.02688   0.58954   0.86999   0.00000  Uiso   1.00
C1233  C     0.01922   0.40705   0.79983   0.00000  Uiso   1.00
C1234  C     0.48226   0.58574   0.88360   0.00000  Uiso   1.00
C1235  C     0.24962   0.34569   0.81007   0.00000  Uiso   1.00
C1236  C     0.25025   0.65428   0.85654   0.00000  Uiso   1.00
N1237  N     0.23744   0.48547   0.67951   0.00000  Uiso   1.00
N1238  N     0.26255   0.51453   0.98716   0.00000  Uiso   1.00
N1239  N     0.38527   0.58944   0.86513   0.00000  Uiso   1.00
O1240  O     0.35907   0.60080   0.82211   0.00000  Uiso   1.00
O1241  O     0.37768   0.60901   0.91999   0.00000  Uiso   1.00
N1242  N     0.11714   0.40845   0.81002   0.00000  Uiso   1.00
O1243  O     0.13369   0.39569   0.75843   0.00000  Uiso   1.00
O1244  O     0.13429   0.39023   0.85493   0.00000  Uiso   1.00
O1245  O     0.37753   0.40742   0.80609   0.00000  Uiso   1.00
C1246  C     0.36959   0.39325   0.86129   0.00000  Uiso   1.00
H1247  H     0.40104   0.38564   0.88613   0.00000  Uiso   1.00
H1248  H     0.34766   0.35852   0.85182   0.00000  Uiso   1.00
H1249  H     0.35188   0.42213   0.89095   0.00000  Uiso   1.00
O1250  O     0.12024   0.59077   0.85306   0.00000  Uiso   1.00
C1251  C     0.12640   0.60287   0.79632   0.00000  Uiso   1.00
H1252  H     0.15056   0.63566   0.80275   0.00000  Uiso   1.00
H1253  H     0.09459   0.61325   0.77494   0.00000  Uiso   1.00
H1254  H     0.14047   0.57174   0.76502   0.00000  Uiso   1.00
O1255  O     0.44666   0.36529   0.76506   0.00000  Uiso   1.00
C1256  C     0.45100   0.65712   0.79381   0.00000  Uiso   1.00
H1257  H     0.45269   0.33499   0.84343   0.00000  Uiso   1.00
H1258  H     0.47993   0.63512   0.77923   0.00000  Uiso   1.00
H1259  H     0.42159   0.63119   0.77836   0.00000  Uiso   1.00
O1260  O     0.04480   0.63504   0.86052   0.00000  Uiso   1.00
C1261  C     0.05538   0.33546   0.91491   0.00000  Uiso   1.00
H1262  H     0.07799   0.65172   0.94553   0.00000  Uiso   1.00
H1263  H     0.02487   0.35056   0.93399   0.00000  Uiso   1.00
H1264  H     0.07340   0.36910   0.90611   0.00000  Uiso   1.00
O1265  O     0.03956   0.36287   0.77997   0.00000  Uiso   1.00
C1266  C     0.04053   0.35662   0.71756   0.00000  Uiso   1.00
H1267  H     0.05992   0.38800   0.70440   0.00000  Uiso   1.00
H1268  H     0.00649   0.35462   0.69492   0.00000  Uiso   1.00
H1269  H     0.05650   0.65401   0.70216   0.00000  Uiso   1.00
O1270  O     0.46631   0.62225   0.92662   0.00000  Uiso   1.00
C1271  C     0.46269   0.60158   0.97891   0.00000  Uiso   1.00
H1272  H     0.49610   0.59620   0.66705   0.00000  Uiso   1.00
H1273  H     0.44282   0.56502   0.97075   0.00000  Uiso   1.00
H1274  H     0.44432   0.62799   0.67674   0.00000  Uiso   1.00
N1275  N     0.24941   0.65246   0.74902   0.00000  Uiso   1.00
O1276  O     0.28082   0.66376   0.71682   0.00000  Uiso   1.00
O1277  O     0.21263   0.62952   0.72191   0.00000  Uiso   1.00
N1278  N     0.25082   0.34753   0.91761   0.00000  Uiso   1.00
O1279  O     0.21957   0.33635   0.95011   0.00000  Uiso   1.00
O1280  O     0.28782   0.37018   0.94440   0.00000  Uiso   1.00
O1281  O     0.19424   0.48736   0.99413   0.00000  Uiso   1.00
C1282  C     0.17604   0.43777   0.98316   0.00000  Uiso   1.00
H1283  H     0.13911   0.43861   0.97809   0.00000  Uiso   1.00
H1284  H     0.18543   0.41762   0.68668   0.00000  Uiso   1.00
H1285  H     0.18743   0.41716   0.94074   0.00000  Uiso   1.00
O1286  O     0.30576   0.51259   0.67268   0.00000  Uiso   1.00
C1287  C     0.32456   0.56193   0.68235   0.00000  Uiso   1.00
H1288  H     0.31401   0.58350   0.72483   0.00000  Uiso   1.00
H1289  H     0.31538   0.58152   0.97820   0.00000  Uiso   1.00
H1290  H     0.36145   0.56041   0.68706   0.00000  Uiso   1.00
O1291  O     0.75325   0.42871   0.87326   0.00000  Uiso   1.00
O1292  O     0.74674   0.57129   0.79341   0.00000  Uiso   1.00
O1293  O     0.74480   0.41892   0.76945   0.00000  Uiso   1.00
O1294  O     0.75520   0.58108   0.89721   0.00000  Uiso   1.00
C1295  C     0.74913   0.40069   0.81874   0.00000  Uiso   1.00
C1296  C     0.75078   0.59930   0.84792   0.00000  Uiso   1.00
O1297  O     0.68935   0.50488   0.88524   0.00000  Uiso   1.00
O1298  O     0.81064   0.49512   0.78143   0.00000  Uiso   1.00
O1299  O     0.68090   0.49510   0.78143   0.00000  Uiso   1.00
O1300  O     0.81910   0.50490   0.88523   0.00000  Uiso   1.00
C1301  C     0.66493   0.50089   0.83404   0.00000  Uiso   1.00
C1302  C     0.83501   0.49850   0.83257   0.00000  Uiso   1.00
Cu1303 Cu    0.75500   0.50579   0.89479   0.00000  Uiso   1.00
Cu1304 Cu    0.74499   0.49421   0.77187   0.00000  Uiso   1.00
C1305  C     0.90836   0.54311   0.85313   0.00000  Uiso   1.00
C1306  C     0.59265   0.45360   0.82188   0.00000  Uiso   1.00
C1307  C     0.88323   0.49799   0.83219   0.00000  Uiso   1.00
C1308  C     0.61665   0.50012   0.83465   0.00000  Uiso   1.00
C1309  C     0.90376   0.45193   0.81817   0.00000  Uiso   1.00
C1310  C     0.59502   0.54569   0.84414   0.00000  Uiso   1.00
C1311  C     0.95072   0.45164   0.81696   0.00000  Uiso   1.00
C1312  C     0.54863   0.54484   0.84979   0.00000  Uiso   1.00
C1313  C     0.97659   0.49727   0.83668   0.00000  Uiso   1.00
C1314  C     0.52367   0.49793   0.83659   0.00000  Uiso   1.00
C1315  C     0.95547   0.54242   0.85757   0.00000  Uiso   1.00
C1316  C     0.54540   0.45225   0.82021   0.00000  Uiso   1.00
C1317  C     0.97212   0.40680   0.79693   0.00000  Uiso   1.00
C1318  C     0.52688   0.58954   0.86999   0.00000  Uiso   1.00
C1319  C     0.51922   0.40705   0.79983   0.00000  Uiso   1.00
C1320  C     0.98226   0.58574   0.88360   0.00000  Uiso   1.00
C1321  C     0.74962   0.34569   0.81007   0.00000  Uiso   1.00
C1322  C     0.75025   0.65428   0.85654   0.00000  Uiso   1.00
N1323  N     0.73744   0.48547   0.67951   0.00000  Uiso   1.00
N1324  N     0.76255   0.51453   0.98716   0.00000  Uiso   1.00
N1325  N     0.88527   0.58944   0.86513   0.00000  Uiso   1.00
O1326  O     0.85907   0.60080   0.82211   0.00000  Uiso   1.00
O1327  O     0.87768   0.60901   0.91999   0.00000  Uiso   1.00
N1328  N     0.61714   0.40845   0.81002   0.00000  Uiso   1.00
O1329  O     0.63369   0.39569   0.75843   0.00000  Uiso   1.00
O1330  O     0.63429   0.39023   0.85493   0.00000  Uiso   1.00
O1331  O     0.87753   0.40742   0.80609   0.00000  Uiso   1.00
C1332  C     0.86959   0.39325   0.86129   0.00000  Uiso   1.00
H1333  H     0.90104   0.38564   0.88613   0.00000  Uiso   1.00
H1334  H     0.84766   0.35852   0.85182   0.00000  Uiso   1.00
H1335  H     0.85188   0.42213   0.89095   0.00000  Uiso   1.00
O1336  O     0.62024   0.59077   0.85306   0.00000  Uiso   1.00
C1337  C     0.62640   0.60287   0.79632   0.00000  Uiso   1.00
H1338  H     0.65056   0.63566   0.80275   0.00000  Uiso   1.00
H1339  H     0.59459   0.61325   0.77494   0.00000  Uiso   1.00
H1340  H     0.64047   0.57174   0.76502   0.00000  Uiso   1.00
O1341  O     0.94666   0.36529   0.76506   0.00000  Uiso   1.00
C1342  C     0.95100   0.65712   0.79381   0.00000  Uiso   1.00
H1343  H     0.95269   0.33499   0.84343   0.00000  Uiso   1.00
H1344  H     0.97993   0.63512   0.77923   0.00000  Uiso   1.00
H1345  H     0.92159   0.63119   0.77836   0.00000  Uiso   1.00
O1346  O     0.54480   0.63504   0.86052   0.00000  Uiso   1.00
C1347  C     0.55538   0.33546   0.91491   0.00000  Uiso   1.00
H1348  H     0.57799   0.65172   0.94553   0.00000  Uiso   1.00
H1349  H     0.52487   0.35056   0.93399   0.00000  Uiso   1.00
H1350  H     0.57340   0.36910   0.90611   0.00000  Uiso   1.00
O1351  O     0.53956   0.36287   0.77997   0.00000  Uiso   1.00
C1352  C     0.54053   0.35662   0.71756   0.00000  Uiso   1.00
H1353  H     0.55992   0.38800   0.70440   0.00000  Uiso   1.00
H1354  H     0.50649   0.35462   0.69492   0.00000  Uiso   1.00
H1355  H     0.55650   0.65401   0.70216   0.00000  Uiso   1.00
O1356  O     0.96631   0.62225   0.92662   0.00000  Uiso   1.00
C1357  C     0.96269   0.60158   0.97891   0.00000  Uiso   1.00
H1358  H     0.99610   0.59620   0.66705   0.00000  Uiso   1.00
H1359  H     0.94282   0.56502   0.97075   0.00000  Uiso   1.00
H1360  H     0.94432   0.62799   0.67674   0.00000  Uiso   1.00
N1361  N     0.74941   0.65246   0.74902   0.00000  Uiso   1.00
O1362  O     0.78082   0.66376   0.71682   0.00000  Uiso   1.00
O1363  O     0.71263   0.62952   0.72191   0.00000  Uiso   1.00
N1364  N     0.75082   0.34753   0.91761   0.00000  Uiso   1.00
O1365  O     0.71957   0.33635   0.95011   0.00000  Uiso   1.00
O1366  O     0.78782   0.37018   0.94440   0.00000  Uiso   1.00
O1367  O     0.69424   0.48736   0.99413   0.00000  Uiso   1.00
C1368  C     0.67604   0.43777   0.98316   0.00000  Uiso   1.00
H1369  H     0.63911   0.43861   0.97809   0.00000  Uiso   1.00
H1370  H     0.68543   0.41762   0.68668   0.00000  Uiso   1.00
H1371  H     0.68743   0.41716   0.94074   0.00000  Uiso   1.00
O1372  O     0.80576   0.51259   0.67268   0.00000  Uiso   1.00
C1373  C     0.82456   0.56193   0.68235   0.00000  Uiso   1.00
H1374  H     0.81401   0.58350   0.72483   0.00000  Uiso   1.00
H1375  H     0.81538   0.58152   0.97820   0.00000  Uiso   1.00
H1376  H     0.86145   0.56041   0.68706   0.00000  Uiso   1.00
O1377  O     0.25325   0.76204   0.87326   0.00000  Uiso   1.00
O1378  O     0.24674   0.90462   0.79341   0.00000  Uiso   1.00
O1379  O     0.24480   0.75226   0.76945   0.00000  Uiso   1.00
O1380  O     0.25520   0.91441   0.89721   0.00000  Uiso   1.00
C1381  C     0.24913   0.73402   0.81874   0.00000  Uiso   1.00
C1382  C     0.25078   0.93264   0.84792   0.00000  Uiso   1.00
O1383  O     0.18935   0.83821   0.88524   0.00000  Uiso   1.00
O1384  O     0.31064   0.82845   0.78143   0.00000  Uiso   1.00
O1385  O     0.18090   0.82843   0.78143   0.00000  Uiso   1.00
O1386  O     0.31910   0.83824   0.88523   0.00000  Uiso   1.00
C1387  C     0.16493   0.83422   0.83404   0.00000  Uiso   1.00
C1388  C     0.33501   0.83183   0.83257   0.00000  Uiso   1.00
Cu1389 Cu    0.25500   0.83913   0.89479   0.00000  Uiso   1.00
Cu1390 Cu    0.24499   0.82754   0.77187   0.00000  Uiso   1.00
C1391  C     0.40836   0.87644   0.85313   0.00000  Uiso   1.00
C1392  C     0.09265   0.78693   0.82188   0.00000  Uiso   1.00
C1393  C     0.38323   0.83133   0.83219   0.00000  Uiso   1.00
C1394  C     0.11665   0.83345   0.83465   0.00000  Uiso   1.00
C1395  C     0.40376   0.78527   0.81817   0.00000  Uiso   1.00
C1396  C     0.09502   0.87902   0.84414   0.00000  Uiso   1.00
C1397  C     0.45072   0.78497   0.81696   0.00000  Uiso   1.00
C1398  C     0.04863   0.87818   0.84979   0.00000  Uiso   1.00
C1399  C     0.47659   0.83060   0.83668   0.00000  Uiso   1.00
C1400  C     0.02367   0.83126   0.83659   0.00000  Uiso   1.00
C1401  C     0.45547   0.87575   0.85757   0.00000  Uiso   1.00
C1402  C     0.04540   0.78558   0.82021   0.00000  Uiso   1.00
C1403  C     0.47212   0.74014   0.79693   0.00000  Uiso   1.00
C1404  C     0.02688   0.92288   0.86999   0.00000  Uiso   1.00
C1405  C     0.01922   0.74038   0.79983   0.00000  Uiso   1.00
C1406  C     0.48226   0.91907   0.88360   0.00000  Uiso   1.00
C1407  C     0.24962   0.67903   0.81007   0.00000  Uiso   1.00
C1408  C     0.25025   0.98761   0.85654   0.00000  Uiso   1.00
N1409  N     0.23744   0.81881   0.67951   0.00000  Uiso   1.00
N1410  N     0.26255   0.84786   0.98716   0.00000  Uiso   1.00
N1411  N     0.38527   0.92277   0.86513   0.00000  Uiso   1.00
O1412  O     0.35907   0.93414   0.82211   0.00000  Uiso   1.00
O1413  O     0.37768   0.94235   0.91999   0.00000  Uiso   1.00
N1414  N     0.11714   0.74178   0.81002   0.00000  Uiso   1.00
O1415  O     0.13369   0.72902   0.75843   0.00000  Uiso   1.00
O1416  O     0.13429   0.72356   0.85493   0.00000  Uiso   1.00
O1417  O     0.37753   0.74075   0.80609   0.00000  Uiso   1.00
C1418  C     0.36959   0.72659   0.86129   0.00000  Uiso   1.00
H1419  H     0.40104   0.71898   0.88613   0.00000  Uiso   1.00
H1420  H     0.34766   0.69185   0.85182   0.00000  Uiso   1.00
H1421  H     0.35188   0.75546   0.89095   0.00000  Uiso   1.00
O1422  O     0.12024   0.92410   0.85306   0.00000  Uiso   1.00
C1423  C     0.12640   0.93621   0.79632   0.00000  Uiso   1.00
H1424  H     0.15056   0.96899   0.80275   0.00000  Uiso   1.00
H1425  H     0.09459   0.94658   0.77494   0.00000  Uiso   1.00
H1426  H     0.14047   0.90507   0.76502   0.00000  Uiso   1.00
O1427  O     0.44666   0.69863   0.76506   0.00000  Uiso   1.00
C1428  C     0.45100   0.99045   0.79381   0.00000  Uiso   1.00
H1429  H     0.45269   0.66832   0.84343   0.00000  Uiso   1.00
H1430  H     0.47993   0.96845   0.77923   0.00000  Uiso   1.00
H1431  H     0.42159   0.96452   0.77836   0.00000  Uiso   1.00
O1432  O     0.04480   0.96838   0.86052   0.00000  Uiso   1.00
C1433  C     0.05538   0.66880   0.91491   0.00000  Uiso   1.00
H1434  H     0.07799   0.98505   0.94553   0.00000  Uiso   1.00
H1435  H     0.02487   0.68389   0.93399   0.00000  Uiso   1.00
H1436  H     0.07340   0.70243   0.90611   0.00000  Uiso   1.00
O1437  O     0.03956   0.69621   0.77997   0.00000  Uiso   1.00
C1438  C     0.04053   0.68995   0.71756   0.00000  Uiso   1.00
H1439  H     0.05992   0.72133   0.70440   0.00000  Uiso   1.00
H1440  H     0.00649   0.68795   0.69492   0.00000  Uiso   1.00
H1441  H     0.05650   0.98735   0.70216   0.00000  Uiso   1.00
O1442  O     0.46631   0.95558   0.92662   0.00000  Uiso   1.00
C1443  C     0.46269   0.93491   0.97891   0.00000  Uiso   1.00
H1444  H     0.49610   0.92953   0.66705   0.00000  Uiso   1.00
H1445  H     0.44282   0.89835   0.97075   0.00000  Uiso   1.00
H1446  H     0.44432   0.96132   0.67674   0.00000  Uiso   1.00
N1447  N     0.24941   0.98580   0.74902   0.00000  Uiso   1.00
O1448  O     0.28082   0.99709   0.71682   0.00000  Uiso   1.00
O1449  O     0.21263   0.96285   0.72191   0.00000  Uiso   1.00
N1450  N     0.25082   0.68086   0.91761   0.00000  Uiso   1.00
O1451  O     0.21957   0.66968   0.95011   0.00000  Uiso   1.00
O1452  O     0.28782   0.70351   0.94440   0.00000  Uiso   1.00
O1453  O     0.19424   0.82069   0.99413   0.00000  Uiso   1.00
C1454  C     0.17604   0.77110   0.98316   0.00000  Uiso   1.00
H1455  H     0.13911   0.77195   0.97809   0.00000  Uiso   1.00
H1456  H     0.18543   0.75095   0.68668   0.00000  Uiso   1.00
H1457  H     0.18743   0.75050   0.94074   0.00000  Uiso   1.00
O1458  O     0.30576   0.84593   0.67268   0.00000  Uiso   1.00
C1459  C     0.32456   0.89526   0.68235   0.00000  Uiso   1.00
H1460  H     0.31401   0.91683   0.72483   0.00000  Uiso   1.00
H1461  H     0.31538   0.91485   0.97820   0.00000  Uiso   1.00
H1462  H     0.36145   0.89375   0.68706   0.00000  Uiso   1.00
O1463  O     0.75325   0.76204   0.87326   0.00000  Uiso   1.00
O1464  O     0.74674   0.90462   0.79341   0.00000  Uiso   1.00
O1465  O     0.74480   0.75226   0.76945   0.00000  Uiso   1.00
O1466  O     0.75520   0.91441   0.89721   0.00000  Uiso   1.00
C1467  C     0.74913   0.73402   0.81874   0.00000  Uiso   1.00
C1468  C     0.75078   0.93264   0.84792   0.00000  Uiso   1.00
O1469  O     0.68935   0.83821   0.88524   0.00000  Uiso   1.00
O1470  O     0.81064   0.82845   0.78143   0.00000  Uiso   1.00
O1471  O     0.68090   0.82843   0.78143   0.00000  Uiso   1.00
O1472  O     0.81910   0.83824   0.88523   0.00000  Uiso   1.00
C1473  C     0.66493   0.83422   0.83404   0.00000  Uiso   1.00
C1474  C     0.83501   0.83183   0.83257   0.00000  Uiso   1.00
Cu1475 Cu    0.75500   0.83913   0.89479   0.00000  Uiso   1.00
Cu1476 Cu    0.74499   0.82754   0.77187   0.00000  Uiso   1.00
C1477  C     0.90836   0.87644   0.85313   0.00000  Uiso   1.00
C1478  C     0.59265   0.78693   0.82188   0.00000  Uiso   1.00
C1479  C     0.88323   0.83133   0.83219   0.00000  Uiso   1.00
C1480  C     0.61665   0.83345   0.83465   0.00000  Uiso   1.00
C1481  C     0.90376   0.78527   0.81817   0.00000  Uiso   1.00
C1482  C     0.59502   0.87902   0.84414   0.00000  Uiso   1.00
C1483  C     0.95072   0.78497   0.81696   0.00000  Uiso   1.00
C1484  C     0.54863   0.87818   0.84979   0.00000  Uiso   1.00
C1485  C     0.97659   0.83060   0.83668   0.00000  Uiso   1.00
C1486  C     0.52367   0.83126   0.83659   0.00000  Uiso   1.00
C1487  C     0.95547   0.87575   0.85757   0.00000  Uiso   1.00
C1488  C     0.54540   0.78558   0.82021   0.00000  Uiso   1.00
C1489  C     0.97212   0.74014   0.79693   0.00000  Uiso   1.00
C1490  C     0.52688   0.92288   0.86999   0.00000  Uiso   1.00
C1491  C     0.51922   0.74038   0.79983   0.00000  Uiso   1.00
C1492  C     0.98226   0.91907   0.88360   0.00000  Uiso   1.00
C1493  C     0.74962   0.67903   0.81007   0.00000  Uiso   1.00
C1494  C     0.75025   0.98761   0.85654   0.00000  Uiso   1.00
N1495  N     0.73744   0.81881   0.67951   0.00000  Uiso   1.00
N1496  N     0.76255   0.84786   0.98716   0.00000  Uiso   1.00
N1497  N     0.88527   0.92277   0.86513   0.00000  Uiso   1.00
O1498  O     0.85907   0.93414   0.82211   0.00000  Uiso   1.00
O1499  O     0.87768   0.94235   0.91999   0.00000  Uiso   1.00
N1500  N     0.61714   0.74178   0.81002   0.00000  Uiso   1.00
O1501  O     0.63369   0.72902   0.75843   0.00000  Uiso   1.00
O1502  O     0.63429   0.72356   0.85493   0.00000  Uiso   1.00
O1503  O     0.87753   0.74075   0.80609   0.00000  Uiso   1.00
C1504  C     0.86959   0.72659   0.86129   0.00000  Uiso   1.00
H1505  H     0.90104   0.71898   0.88613   0.00000  Uiso   1.00
H1506  H     0.84766   0.69185   0.85182   0.00000  Uiso   1.00
H1507  H     0.85188   0.75546   0.89095   0.00000  Uiso   1.00
O1508  O     0.62024   0.92410   0.85306   0.00000  Uiso   1.00
C1509  C     0.62640   0.93621   0.79632   0.00000  Uiso   1.00
H1510  H     0.65056   0.96899   0.80275   0.00000  Uiso   1.00
H1511  H     0.59459   0.94658   0.77494   0.00000  Uiso   1.00
H1512  H     0.64047   0.90507   0.76502   0.00000  Uiso   1.00
O1513  O     0.94666   0.69863   0.76506   0.00000  Uiso   1.00
C1514  C     0.95100   0.99045   0.79381   0.00000  Uiso   1.00
H1515  H     0.95269   0.66832   0.84343   0.00000  Uiso   1.00
H1516  H     0.97993   0.96845   0.77923   0.00000  Uiso   1.00
H1517  H     0.92159   0.96452   0.77836   0.00000  Uiso   1.00
O1518  O     0.54480   0.96838   0.86052   0.00000  Uiso   1.00
C1519  C     0.55538   0.66880   0.91491   0.00000  Uiso   1.00
H1520  H     0.57799   0.98505   0.94553   0.00000  Uiso   1.00
H1521  H     0.52487   0.68389   0.93399   0.00000  Uiso   1.00
H1522  H     0.57340   0.70243   0.90611   0.00000  Uiso   1.00
O1523  O     0.53956   0.69621   0.77997   0.00000  Uiso   1.00
C1524  C     0.54053   0.68995   0.71756   0.00000  Uiso   1.00
H1525  H     0.55992   0.72133   0.70440   0.00000  Uiso   1.00
H1526  H     0.50649   0.68795   0.69492   0.00000  Uiso   1.00
H1527  H     0.55650   0.98735   0.70216   0.00000  Uiso   1.00
O1528  O     0.96631   0.95558   0.92662   0.00000  Uiso   1.00
C1529  C     0.96269   0.93491   0.97891   0.00000  Uiso   1.00
H1530  H     0.99610   0.92953   0.66705   0.00000  Uiso   1.00
H1531  H     0.94282   0.89835   0.97075   0.00000  Uiso   1.00
H1532  H     0.94432   0.96132   0.67674   0.00000  Uiso   1.00
N1533  N     0.74941   0.98580   0.74902   0.00000  Uiso   1.00
O1534  O     0.78082   0.99709   0.71682   0.00000  Uiso   1.00
O1535  O     0.71263   0.96285   0.72191   0.00000  Uiso   1.00
N1536  N     0.75082   0.68086   0.91761   0.00000  Uiso   1.00
O1537  O     0.71957   0.66968   0.95011   0.00000  Uiso   1.00
O1538  O     0.78782   0.70351   0.94440   0.00000  Uiso   1.00
O1539  O     0.69424   0.82069   0.99413   0.00000  Uiso   1.00
C1540  C     0.67604   0.77110   0.98316   0.00000  Uiso   1.00
H1541  H     0.63911   0.77195   0.97809   0.00000  Uiso   1.00
H1542  H     0.68543   0.75095   0.68668   0.00000  Uiso   1.00
H1543  H     0.68743   0.75050   0.94074   0.00000  Uiso   1.00
O1544  O     0.80576   0.84593   0.67268   0.00000  Uiso   1.00
C1545  C     0.82456   0.89526   0.68235   0.00000  Uiso   1.00
H1546  H     0.81401   0.91683   0.72483   0.00000  Uiso   1.00
H1547  H     0.81538   0.91485   0.97820   0.00000  Uiso   1.00
H1548  H     0.86145   0.89375   0.68706   0.00000  Uiso   1.00
loop_
_geom_bond_atom_site_label_1
_geom_bond_atom_site_label_2
_geom_bond_distance
_geom_bond_site_symmetry_2
_ccdc_geom_bond_type
O1     C5      1.318   .     A
O1     Cu13    2.041   .     S
O2     C6      1.318   .     A
O2     Cu14    2.041   .     S
O3     Cu14    2.020   .     S
O3     C5      1.306   .     A
O4     Cu13    2.020   .     S
O4     C6      1.307   .     A
C5     C31     1.459   .     S
C6     C32     1.459   .     S
O7     C11     1.313   .     A
O7     Cu13    1.969   .     S
O8     C12     1.313   .     A
O8     Cu14    1.969   .     S
O9     Cu14    1.957   .     S
O9     C11     1.306   .     A
O10    C12     1.306   .     A
O10    Cu13    1.957   .     S
C11    C18     1.453   .     S
C12    C17     1.452   .     S
Cu13   Cu14    2.745   .     S
Cu13   N34     2.062   .     S
Cu14   N33     2.062   .     S
C15    C25     1.414   .     A
C15    N35     1.441   .     S
C15    C17     1.394   .     A
C16    C26     1.418   .     A
C16    C18     1.396   .     A
C16    N38     1.436   .     S
C17    C19     1.399   .     A
C18    C20     1.398   .     A
C19    C21     1.415   .     A
C19    O41     1.385   .     S
C20    C22     1.411   .     A
C20    O46     1.384   .     S
C21    C27     1.404   .     A
C21    C23     1.412   .     A
C22    C28     1.407   .     A
C22    C24     1.419   .     A
C23    C25     1.410   .     A
C23    C110    1.416   .     S
C24    C26     1.414   .     A
C24    C109    1.416   1_455 S
C25    C30     1.402   .     A
C26    C29     1.409   .     A
C27    O51     1.384   .     S
C27    C115    1.413   .     S
C28    O56     1.384   .     S
C28    C116    1.405   1_455 S
C29    O61     1.372   .     S
C29    C113    1.413   1_455 S
C30    O66     1.376   .     S
C30    C114    1.405   .     S
C31    C376    1.352   1_545 S
C31    N415    1.435   1_545 S
C32    C203    1.352   .     S
C32    N246    1.435   .     S
N33    N1066   1.314   1_554 S
N33    O1109   1.342   1_554 S
N34    N549    1.314   .     S
N34    O598    1.343   .     S
N35    O36     1.298   .     A
N35    O37     1.299   .     A
N38    O39     1.299   .     A
N38    O40     1.296   .     A
O41    C42     1.414   .     S
C42    H44     1.104   .     S
C42    H45     1.108   .     S
C42    H43     1.110   .     S
O46    C47     1.413   .     S
C47    H49     1.109   .     S
C47    H50     1.110   .     S
C47    H48     1.106   .     S
O51    C396    1.405   1_545 S
C52    H54     1.106   .     S
C52    H55     1.101   .     S
C52    O223    1.405   .     S
C52    H225    1.108   .     S
H53    C396    1.108   1_545 S
O56    C229    1.397   .     S
C57    H60     1.100   .     S
C57    H59     1.102   .     S
C57    O400    1.397   1_545 S
C57    H402    1.110   1_545 S
H58    C229    1.110   .     S
O61    C62     1.399   .     S
C62    H64     1.106   .     S
C62    H63     1.112   .     S
C62    H409    1.105   1_545 S
H65    C234    1.105   .     S
O66    C67     1.416   .     S
C67    H69     1.113   .     S
C67    H584    1.110   .     S
C67    H586    1.099   .     S
H68    C1099   1.110   1_554 S
H70    C1099   1.099   1_554 S
N71    O73     1.301   .     A
N71    O72     1.300   .     A
N71    C203    1.435   .     S
N74    O76     1.301   .     A
N74    O75     1.300   .     A
N74    C376    1.435   1_545 S
O77    C78     1.398   .     S
O77    N549    1.342   .     S
C78    H79     1.110   .     S
C78    H81     1.102   .     S
C78    H596    1.107   .     S
H80    C1110   1.107   1_554 S
O82    C83     1.399   .     S
O82    N1066   1.343   1_554 S
C83    H84     1.103   .     S
C83    H86     1.109   .     S
C83    H1117   1.108   1_554 S
H85    C599    1.108   .     S
O87    C91     1.318   .     A
O87    Cu99    2.041   .     S
O88    C92     1.318   .     A
O88    Cu100   2.041   .     S
O89    Cu100   2.020   .     S
O89    C91     1.306   .     A
O90    Cu99    2.020   .     S
O90    C92     1.307   .     A
C91    C117    1.459   .     S
C92    C118    1.459   .     S
O93    C97     1.313   .     A
O93    Cu99    1.969   .     S
O94    C98     1.313   .     A
O94    Cu100   1.969   .     S
O95    Cu100   1.957   .     S
O95    C97     1.306   .     A
O96    C98     1.306   .     A
O96    Cu99    1.957   .     S
C97    C104    1.453   .     S
C98    C103    1.452   .     S
Cu99   Cu100   2.745   .     S
Cu99   N120    2.062   .     S
Cu100  N119    2.062   .     S
C101   C111    1.414   .     A
C101   N121    1.441   .     S
C101   C103    1.394   .     A
C102   C112    1.418   .     A
C102   C104    1.396   .     A
C102   N124    1.436   .     S
C103   C105    1.399   .     A
C104   C106    1.398   .     A
C105   C107    1.415   .     A
C105   O127    1.385   .     S
C106   C108    1.411   .     A
C106   O132    1.384   .     S
C107   C113    1.404   .     A
C107   C109    1.412   .     A
C108   C114    1.407   .     A
C108   C110    1.419   .     A
C109   C111    1.410   .     A
C109   C24     1.416   1_655 S
C110   C112    1.414   .     A
C111   C116    1.402   .     A
C112   C115    1.409   .     A
C113   O137    1.384   .     S
C113   C29     1.413   1_655 S
C114   O142    1.384   .     S
C115   O147    1.372   .     S
C116   O152    1.376   .     S
C116   C28     1.405   1_655 S
C117   C462    1.352   1_545 S
C117   N501    1.435   1_545 S
C118   C289    1.352   .     S
C118   N332    1.435   .     S
N119   N1152   1.314   1_554 S
N119   O1195   1.342   1_554 S
N120   N635    1.314   .     S
N120   O684    1.343   .     S
N121   O122    1.298   .     A
N121   O123    1.299   .     A
N124   O125    1.299   .     A
N124   O126    1.296   .     A
O127   C128    1.414   .     S
C128   H130    1.104   .     S
C128   H131    1.108   .     S
C128   H129    1.110   .     S
O132   C133    1.413   .     S
C133   H135    1.109   .     S
C133   H136    1.110   .     S
C133   H134    1.106   .     S
O137   C482    1.405   1_545 S
C138   H140    1.106   .     S
C138   H141    1.101   .     S
C138   O309    1.405   .     S
C138   H311    1.108   .     S
H139   C482    1.108   1_545 S
O142   C315    1.397   .     S
C143   H146    1.100   .     S
C143   H145    1.102   .     S
C143   O486    1.397   1_545 S
C143   H488    1.110   1_545 S
H144   C315    1.110   .     S
O147   C148    1.399   .     S
C148   H150    1.106   .     S
C148   H149    1.112   .     S
C148   H495    1.105   1_545 S
H151   C320    1.105   .     S
O152   C153    1.416   .     S
C153   H155    1.113   .     S
C153   H670    1.110   .     S
C153   H672    1.099   .     S
H154   C1185   1.110   1_554 S
H156   C1185   1.099   1_554 S
N157   O159    1.301   .     A
N157   O158    1.300   .     A
N157   C289    1.435   .     S
N160   O162    1.301   .     A
N160   O161    1.300   .     A
N160   C462    1.435   1_545 S
O163   C164    1.398   .     S
O163   N635    1.342   .     S
C164   H165    1.110   .     S
C164   H167    1.102   .     S
C164   H682    1.107   .     S
H166   C1196   1.107   1_554 S
O168   C169    1.399   .     S
O168   N1152   1.343   1_554 S
C169   H170    1.103   .     S
C169   H172    1.109   .     S
C169   H1203   1.108   1_554 S
H171   C685    1.108   .     S
O173   C177    1.318   .     A
O173   Cu185   2.041   .     S
O174   C178    1.318   .     A
O174   Cu186   2.041   .     S
O175   Cu186   2.020   .     S
O175   C177    1.306   .     A
O176   Cu185   2.020   .     S
O176   C178    1.307   .     A
C177   C203    1.459   .     S
C178   C204    1.459   .     S
O179   C183    1.313   .     A
O179   Cu185   1.969   .     S
O180   C184    1.313   .     A
O180   Cu186   1.969   .     S
O181   Cu186   1.957   .     S
O181   C183    1.306   .     A
O182   C184    1.306   .     A
O182   Cu185   1.957   .     S
C183   C190    1.453   .     S
C184   C189    1.452   .     S
Cu185  Cu186   2.745   .     S
Cu185  N206    2.062   .     S
Cu186  N205    2.062   .     S
C187   C197    1.414   .     A
C187   N207    1.441   .     S
C187   C189    1.394   .     A
C188   C198    1.418   .     A
C188   C190    1.396   .     A
C188   N210    1.436   .     S
C189   C191    1.399   .     A
C190   C192    1.398   .     A
C191   C193    1.415   .     A
C191   O213    1.385   .     S
C192   C194    1.411   .     A
C192   O218    1.384   .     S
C193   C199    1.404   .     A
C193   C195    1.412   .     A
C194   C200    1.407   .     A
C194   C196    1.419   .     A
C195   C197    1.410   .     A
C195   C282    1.416   .     S
C196   C198    1.414   .     A
C196   C281    1.416   1_455 S
C197   C202    1.402   .     A
C198   C201    1.409   .     A
C199   O223    1.384   .     S
C199   C287    1.413   .     S
C200   O228    1.384   .     S
C200   C288    1.405   1_455 S
C201   O233    1.372   .     S
C201   C285    1.413   1_455 S
C202   O238    1.376   .     S
C202   C286    1.405   .     S
C204   C375    1.352   .     S
C204   N418    1.435   .     S
N205   N1238   1.314   1_554 S
N205   O1281   1.342   1_554 S
N206   N721    1.314   .     S
N206   O770    1.343   .     S
N207   O208    1.298   .     A
N207   O209    1.299   .     A
N210   O211    1.299   .     A
N210   O212    1.296   .     A
O213   C214    1.414   .     S
C214   H216    1.104   .     S
C214   H217    1.108   .     S
C214   H215    1.110   .     S
O218   C219    1.413   .     S
C219   H221    1.109   .     S
C219   H222    1.110   .     S
C219   H220    1.106   .     S
C224   H226    1.106   .     S
C224   H227    1.101   .     S
C224   O395    1.405   .     S
C224   H397    1.108   .     S
O228   C401    1.397   .     S
C229   H232    1.100   .     S
C229   H231    1.102   .     S
H230   C401    1.110   .     S
O233   C234    1.399   .     S
C234   H236    1.106   .     S
C234   H235    1.112   .     S
H237   C406    1.105   .     S
O238   C239    1.416   .     S
C239   H241    1.113   .     S
C239   H756    1.110   .     S
C239   H758    1.099   .     S
H240   C1271   1.110   1_554 S
H242   C1271   1.099   1_554 S
N243   O245    1.301   .     A
N243   O244    1.300   .     A
N243   C375    1.435   .     S
N246   O248    1.301   .     A
N246   O247    1.300   .     A
O249   C250    1.398   .     S
O249   N721    1.342   .     S
C250   H251    1.110   .     S
C250   H253    1.102   .     S
C250   H768    1.107   .     S
H252   C1282   1.107   1_554 S
O254   C255    1.399   .     S
O254   N1238   1.343   1_554 S
C255   H256    1.103   .     S
C255   H258    1.109   .     S
C255   H1289   1.108   1_554 S
H257   C771    1.108   .     S
O259   C263    1.318   .     A
O259   Cu271   2.041   .     S
O260   C264    1.318   .     A
O260   Cu272   2.041   .     S
O261   Cu272   2.020   .     S
O261   C263    1.306   .     A
O262   Cu271   2.020   .     S
O262   C264    1.307   .     A
C263   C289    1.459   .     S
C264   C290    1.459   .     S
O265   C269    1.313   .     A
O265   Cu271   1.969   .     S
O266   C270    1.313   .     A
O266   Cu272   1.969   .     S
O267   Cu272   1.957   .     S
O267   C269    1.306   .     A
O268   C270    1.306   .     A
O268   Cu271   1.957   .     S
C269   C276    1.453   .     S
C270   C275    1.452   .     S
Cu271  Cu272   2.745   .     S
Cu271  N292    2.062   .     S
Cu272  N291    2.062   .     S
C273   C283    1.414   .     A
C273   N293    1.441   .     S
C273   C275    1.394   .     A
C274   C284    1.418   .     A
C274   C276    1.396   .     A
C274   N296    1.436   .     S
C275   C277    1.399   .     A
C276   C278    1.398   .     A
C277   C279    1.415   .     A
C277   O299    1.385   .     S
C278   C280    1.411   .     A
C278   O304    1.384   .     S
C279   C285    1.404   .     A
C279   C281    1.412   .     A
C280   C286    1.407   .     A
C280   C282    1.419   .     A
C281   C283    1.410   .     A
C281   C196    1.416   1_655 S
C282   C284    1.414   .     A
C283   C288    1.402   .     A
C284   C287    1.409   .     A
C285   O309    1.384   .     S
C285   C201    1.413   1_655 S
C286   O314    1.384   .     S
C287   O319    1.372   .     S
C288   O324    1.376   .     S
C288   C200    1.405   1_655 S
C290   C461    1.352   .     S
C290   N504    1.435   .     S
N291   N1324   1.314   1_554 S
N291   O1367   1.342   1_554 S
N292   N807    1.314   .     S
N292   O856    1.343   .     S
N293   O294    1.298   .     A
N293   O295    1.299   .     A
N296   O297    1.299   .     A
N296   O298    1.296   .     A
O299   C300    1.414   .     S
C300   H302    1.104   .     S
C300   H303    1.108   .     S
C300   H301    1.110   .     S
O304   C305    1.413   .     S
C305   H307    1.109   .     S
C305   H308    1.110   .     S
C305   H306    1.106   .     S
C310   H312    1.106   .     S
C310   H313    1.101   .     S
C310   O481    1.405   .     S
C310   H483    1.108   .     S
O314   C487    1.397   .     S
C315   H318    1.100   .     S
C315   H317    1.102   .     S
H316   C487    1.110   .     S
O319   C320    1.399   .     S
C320   H322    1.106   .     S
C320   H321    1.112   .     S
H323   C492    1.105   .     S
O324   C325    1.416   .     S
C325   H327    1.113   .     S
C325   H842    1.110   .     S
C325   H844    1.099   .     S
H326   C1357   1.110   1_554 S
H328   C1357   1.099   1_554 S
N329   O331    1.301   .     A
N329   O330    1.300   .     A
N329   C461    1.435   .     S
N332   O334    1.301   .     A
N332   O333    1.300   .     A
O335   C336    1.398   .     S
O335   N807    1.342   .     S
C336   H337    1.110   .     S
C336   H339    1.102   .     S
C336   H854    1.107   .     S
H338   C1368   1.107   1_554 S
O340   C341    1.399   .     S
O340   N1324   1.343   1_554 S
C341   H342    1.103   .     S
C341   H344    1.109   .     S
C341   H1375   1.108   1_554 S
H343   C857    1.108   .     S
O345   C349    1.318   .     A
O345   Cu357   2.041   .     S
O346   C350    1.318   .     A
O346   Cu358   2.041   .     S
O347   Cu358   2.020   .     S
O347   C349    1.306   .     A
O348   Cu357   2.020   .     S
O348   C350    1.307   .     A
C349   C375    1.459   .     S
C350   C376    1.459   .     S
O351   C355    1.313   .     A
O351   Cu357   1.969   .     S
O352   C356    1.313   .     A
O352   Cu358   1.969   .     S
O353   Cu358   1.957   .     S
O353   C355    1.306   .     A
O354   C356    1.306   .     A
O354   Cu357   1.957   .     S
C355   C362    1.453   .     S
C356   C361    1.452   .     S
Cu357  Cu358   2.745   .     S
Cu357  N378    2.062   .     S
Cu358  N377    2.062   .     S
C359   C369    1.414   .     A
C359   N379    1.441   .     S
C359   C361    1.394   .     A
C360   C370    1.418   .     A
C360   C362    1.396   .     A
C360   N382    1.436   .     S
C361   C363    1.399   .     A
C362   C364    1.398   .     A
C363   C365    1.415   .     A
C363   O385    1.385   .     S
C364   C366    1.411   .     A
C364   O390    1.384   .     S
C365   C371    1.404   .     A
C365   C367    1.412   .     A
C366   C372    1.407   .     A
C366   C368    1.419   .     A
C367   C369    1.410   .     A
C367   C454    1.416   .     S
C368   C370    1.414   .     A
C368   C453    1.416   1_455 S
C369   C374    1.402   .     A
C370   C373    1.409   .     A
C371   O395    1.384   .     S
C371   C459    1.413   .     S
C372   O400    1.384   .     S
C372   C460    1.405   1_455 S
C373   O405    1.372   .     S
C373   C457    1.413   1_455 S
C374   O410    1.376   .     S
C374   C458    1.405   .     S
C376   C31     1.352   1_565 S
C376   N74     1.435   1_565 S
N377   N1410   1.314   1_554 S
N377   O1453   1.342   1_554 S
N378   N893    1.314   .     S
N378   O942    1.343   .     S
N379   O380    1.298   .     A
N379   O381    1.299   .     A
N382   O383    1.299   .     A
N382   O384    1.296   .     A
O385   C386    1.414   .     S
C386   H388    1.104   .     S
C386   H389    1.108   .     S
C386   H387    1.110   .     S
O390   C391    1.413   .     S
C391   H393    1.109   .     S
C391   H394    1.110   .     S
C391   H392    1.106   .     S
C396   H398    1.106   .     S
C396   H399    1.101   .     S
C396   O51     1.405   1_565 S
C396   H53     1.108   1_565 S
O400   C57     1.397   1_565 S
C401   H404    1.100   .     S
C401   H403    1.102   .     S
H402   C57     1.110   1_565 S
O405   C406    1.399   .     S
C406   H408    1.106   .     S
C406   H407    1.112   .     S
H409   C62     1.105   1_565 S
O410   C411    1.416   .     S
C411   H413    1.113   .     S
C411   H928    1.110   .     S
C411   H930    1.099   .     S
H412   C1443   1.110   1_554 S
H414   C1443   1.099   1_554 S
N415   O417    1.301   .     A
N415   O416    1.300   .     A
N415   C31     1.435   1_565 S
N418   O420    1.301   .     A
N418   O419    1.300   .     A
O421   C422    1.398   .     S
O421   N893    1.342   .     S
C422   H423    1.110   .     S
C422   H425    1.102   .     S
C422   H940    1.107   .     S
H424   C1454   1.107   1_554 S
O426   C427    1.399   .     S
O426   N1410   1.343   1_554 S
C427   H428    1.103   .     S
C427   H430    1.109   .     S
C427   H1461   1.108   1_554 S
H429   C943    1.108   .     S
O431   C435    1.318   .     A
O431   Cu443   2.041   .     S
O432   C436    1.318   .     A
O432   Cu444   2.041   .     S
O433   Cu444   2.020   .     S
O433   C435    1.306   .     A
O434   Cu443   2.020   .     S
O434   C436    1.307   .     A
C435   C461    1.459   .     S
C436   C462    1.459   .     S
O437   C441    1.313   .     A
O437   Cu443   1.969   .     S
O438   C442    1.313   .     A
O438   Cu444   1.969   .     S
O439   Cu444   1.957   .     S
O439   C441    1.306   .     A
O440   C442    1.306   .     A
O440   Cu443   1.957   .     S
C441   C448    1.453   .     S
C442   C447    1.452   .     S
Cu443  Cu444   2.745   .     S
Cu443  N464    2.062   .     S
Cu444  N463    2.062   .     S
C445   C455    1.414   .     A
C445   N465    1.441   .     S
C445   C447    1.394   .     A
C446   C456    1.418   .     A
C446   C448    1.396   .     A
C446   N468    1.436   .     S
C447   C449    1.399   .     A
C448   C450    1.398   .     A
C449   C451    1.415   .     A
C449   O471    1.385   .     S
C450   C452    1.411   .     A
C450   O476    1.384   .     S
C451   C457    1.404   .     A
C451   C453    1.412   .     A
C452   C458    1.407   .     A
C452   C454    1.419   .     A
C453   C455    1.410   .     A
C453   C368    1.416   1_655 S
C454   C456    1.414   .     A
C455   C460    1.402   .     A
C456   C459    1.409   .     A
C457   O481    1.384   .     S
C457   C373    1.413   1_655 S
C458   O486    1.384   .     S
C459   O491    1.372   .     S
C460   O496    1.376   .     S
C460   C372    1.405   1_655 S
C462   C117    1.352   1_565 S
C462   N160    1.435   1_565 S
N463   N1496   1.314   1_554 S
N463   O1539   1.342   1_554 S
N464   N979    1.314   .     S
N464   O1028   1.343   .     S
N465   O466    1.298   .     A
N465   O467    1.299   .     A
N468   O469    1.299   .     A
N468   O470    1.296   .     A
O471   C472    1.414   .     S
C472   H474    1.104   .     S
C472   H475    1.108   .     S
C472   H473    1.110   .     S
O476   C477    1.413   .     S
C477   H479    1.109   .     S
C477   H480    1.110   .     S
C477   H478    1.106   .     S
C482   H484    1.106   .     S
C482   H485    1.101   .     S
C482   O137    1.405   1_565 S
C482   H139    1.108   1_565 S
O486   C143    1.397   1_565 S
C487   H490    1.100   .     S
C487   H489    1.102   .     S
H488   C143    1.110   1_565 S
O491   C492    1.399   .     S
C492   H494    1.106   .     S
C492   H493    1.112   .     S
H495   C148    1.105   1_565 S
O496   C497    1.416   .     S
C497   H499    1.113   .     S
C497   H1014   1.110   .     S
C497   H1016   1.099   .     S
H498   C1529   1.110   1_554 S
H500   C1529   1.099   1_554 S
N501   O503    1.301   .     A
N501   O502    1.300   .     A
N501   C117    1.435   1_565 S
N504   O506    1.301   .     A
N504   O505    1.300   .     A
O507   C508    1.398   .     S
O507   N979    1.342   .     S
C508   H509    1.110   .     S
C508   H511    1.102   .     S
C508   H1026   1.107   .     S
H510   C1540   1.107   1_554 S
O512   C513    1.399   .     S
O512   N1496   1.343   1_554 S
C513   H514    1.103   .     S
C513   H516    1.109   .     S
C513   H1547   1.108   1_554 S
H515   C1029   1.108   .     S
O517   C521    1.318   .     A
O517   Cu529   2.041   .     S
O518   C522    1.318   .     A
O518   Cu530   2.041   .     S
O519   Cu530   2.020   .     S
O519   C521    1.306   .     A
O520   Cu529   2.020   .     S
O520   C522    1.307   .     A
C521   C547    1.459   .     S
C522   C548    1.459   .     S
O523   C527    1.313   .     A
O523   Cu529   1.969   .     S
O524   C528    1.313   .     A
O524   Cu530   1.969   .     S
O525   Cu530   1.957   .     S
O525   C527    1.306   .     A
O526   C528    1.306   .     A
O526   Cu529   1.957   .     S
C527   C534    1.453   .     S
C528   C533    1.452   .     S
Cu529  Cu530   2.745   .     S
Cu529  N550    2.062   .     S
Cu530  N549    2.062   .     S
C531   C541    1.414   .     A
C531   N551    1.441   .     S
C531   C533    1.394   .     A
C532   C542    1.418   .     A
C532   C534    1.396   .     A
C532   N554    1.436   .     S
C533   C535    1.399   .     A
C534   C536    1.398   .     A
C535   C537    1.415   .     A
C535   O557    1.385   .     S
C536   C538    1.411   .     A
C536   O562    1.384   .     S
C537   C543    1.404   .     A
C537   C539    1.412   .     A
C538   C544    1.407   .     A
C538   C540    1.419   .     A
C539   C541    1.410   .     A
C539   C626    1.416   .     S
C540   C542    1.414   .     A
C540   C625    1.416   1_455 S
C541   C546    1.402   .     A
C542   C545    1.409   .     A
C543   O567    1.384   .     S
C543   C631    1.413   .     S
C544   O572    1.384   .     S
C544   C632    1.405   1_455 S
C545   O577    1.372   .     S
C545   C629    1.413   1_455 S
C546   O582    1.376   .     S
C546   C630    1.405   .     S
C547   C892    1.352   1_545 S
C547   N931    1.435   1_545 S
C548   C719    1.352   .     S
C548   N762    1.435   .     S
N550   N1065   1.314   .     S
N550   O1114   1.343   .     S
N551   O552    1.298   .     A
N551   O553    1.299   .     A
N554   O555    1.299   .     A
N554   O556    1.296   .     A
O557   C558    1.414   .     S
C558   H560    1.104   .     S
C558   H561    1.108   .     S
C558   H559    1.110   .     S
O562   C563    1.413   .     S
C563   H565    1.109   .     S
C563   H566    1.110   .     S
C563   H564    1.106   .     S
O567   C912    1.405   1_545 S
C568   H570    1.106   .     S
C568   H571    1.101   .     S
C568   O739    1.405   .     S
C568   H741    1.108   .     S
H569   C912    1.108   1_545 S
O572   C745    1.397   .     S
C573   H576    1.100   .     S
C573   H575    1.102   .     S
C573   O916    1.397   1_545 S
C573   H918    1.110   1_545 S
H574   C745    1.110   .     S
O577   C578    1.399   .     S
C578   H580    1.106   .     S
C578   H579    1.112   .     S
C578   H925    1.105   1_545 S
H581   C750    1.105   .     S
O582   C583    1.416   .     S
C583   H585    1.113   .     S
C583   H1100   1.110   .     S
C583   H1102   1.099   .     S
N587   O589    1.301   .     A
N587   O588    1.300   .     A
N587   C719    1.435   .     S
N590   O592    1.301   .     A
N590   O591    1.300   .     A
N590   C892    1.435   1_545 S
O593   C594    1.398   .     S
O593   N1065   1.342   .     S
C594   H595    1.110   .     S
C594   H597    1.102   .     S
C594   H1112   1.107   .     S
O598   C599    1.399   .     S
C599   H600    1.103   .     S
C599   H602    1.109   .     S
H601   C1115   1.108   .     S
O603   C607    1.318   .     A
O603   Cu615   2.041   .     S
O604   C608    1.318   .     A
O604   Cu616   2.041   .     S
O605   Cu616   2.020   .     S
O605   C607    1.306   .     A
O606   Cu615   2.020   .     S
O606   C608    1.307   .     A
C607   C633    1.459   .     S
C608   C634    1.459   .     S
O609   C613    1.313   .     A
O609   Cu615   1.969   .     S
O610   C614    1.313   .     A
O610   Cu616   1.969   .     S
O611   Cu616   1.957   .     S
O611   C613    1.306   .     A
O612   C614    1.306   .     A
O612   Cu615   1.957   .     S
C613   C620    1.453   .     S
C614   C619    1.452   .     S
Cu615  Cu616   2.745   .     S
Cu615  N636    2.062   .     S
Cu616  N635    2.062   .     S
C617   C627    1.414   .     A
C617   N637    1.441   .     S
C617   C619    1.394   .     A
C618   C628    1.418   .     A
C618   C620    1.396   .     A
C618   N640    1.436   .     S
C619   C621    1.399   .     A
C620   C622    1.398   .     A
C621   C623    1.415   .     A
C621   O643    1.385   .     S
C622   C624    1.411   .     A
C622   O648    1.384   .     S
C623   C629    1.404   .     A
C623   C625    1.412   .     A
C624   C630    1.407   .     A
C624   C626    1.419   .     A
C625   C627    1.410   .     A
C625   C540    1.416   1_655 S
C626   C628    1.414   .     A
C627   C632    1.402   .     A
C628   C631    1.409   .     A
C629   O653    1.384   .     S
C629   C545    1.413   1_655 S
C630   O658    1.384   .     S
C631   O663    1.372   .     S
C632   O668    1.376   .     S
C632   C544    1.405   1_655 S
C633   C978    1.352   1_545 S
C633   N1017   1.435   1_545 S
C634   C805    1.352   .     S
C634   N848    1.435   .     S
N636   N1151   1.314   .     S
N636   O1200   1.343   .     S
N637   O638    1.298   .     A
N637   O639    1.299   .     A
N640   O641    1.299   .     A
N640   O642    1.296   .     A
O643   C644    1.414   .     S
C644   H646    1.104   .     S
C644   H647    1.108   .     S
C644   H645    1.110   .     S
O648   C649    1.413   .     S
C649   H651    1.109   .     S
C649   H652    1.110   .     S
C649   H650    1.106   .     S
O653   C998    1.405   1_545 S
C654   H656    1.106   .     S
C654   H657    1.101   .     S
C654   O825    1.405   .     S
C654   H827    1.108   .     S
H655   C998    1.108   1_545 S
O658   C831    1.397   .     S
C659   H662    1.100   .     S
C659   H661    1.102   .     S
C659   O1002   1.397   1_545 S
C659   H1004   1.110   1_545 S
H660   C831    1.110   .     S
O663   C664    1.399   .     S
C664   H666    1.106   .     S
C664   H665    1.112   .     S
C664   H1011   1.105   1_545 S
H667   C836    1.105   .     S
O668   C669    1.416   .     S
C669   H671    1.113   .     S
C669   H1186   1.110   .     S
C669   H1188   1.099   .     S
N673   O675    1.301   .     A
N673   O674    1.300   .     A
N673   C805    1.435   .     S
N676   O678    1.301   .     A
N676   O677    1.300   .     A
N676   C978    1.435   1_545 S
O679   C680    1.398   .     S
O679   N1151   1.342   .     S
C680   H681    1.110   .     S
C680   H683    1.102   .     S
C680   H1198   1.107   .     S
O684   C685    1.399   .     S
C685   H686    1.103   .     S
C685   H688    1.109   .     S
H687   C1201   1.108   .     S
O689   C693    1.318   .     A
O689   Cu701   2.041   .     S
O690   C694    1.318   .     A
O690   Cu702   2.041   .     S
O691   Cu702   2.020   .     S
O691   C693    1.306   .     A
O692   Cu701   2.020   .     S
O692   C694    1.307   .     A
C693   C719    1.459   .     S
C694   C720    1.459   .     S
O695   C699    1.313   .     A
O695   Cu701   1.969   .     S
O696   C700    1.313   .     A
O696   Cu702   1.969   .     S
O697   Cu702   1.957   .     S
O697   C699    1.306   .     A
O698   C700    1.306   .     A
O698   Cu701   1.957   .     S
C699   C706    1.453   .     S
C700   C705    1.452   .     S
Cu701  Cu702   2.745   .     S
Cu701  N722    2.062   .     S
Cu702  N721    2.062   .     S
C703   C713    1.414   .     A
C703   N723    1.441   .     S
C703   C705    1.394   .     A
C704   C714    1.418   .     A
C704   C706    1.396   .     A
C704   N726    1.436   .     S
C705   C707    1.399   .     A
C706   C708    1.398   .     A
C707   C709    1.415   .     A
C707   O729    1.385   .     S
C708   C710    1.411   .     A
C708   O734    1.384   .     S
C709   C715    1.404   .     A
C709   C711    1.412   .     A
C710   C716    1.407   .     A
C710   C712    1.419   .     A
C711   C713    1.410   .     A
C711   C798    1.416   .     S
C712   C714    1.414   .     A
C712   C797    1.416   1_455 S
C713   C718    1.402   .     A
C714   C717    1.409   .     A
C715   O739    1.384   .     S
C715   C803    1.413   .     S
C716   O744    1.384   .     S
C716   C804    1.405   1_455 S
C717   O749    1.372   .     S
C717   C801    1.413   1_455 S
C718   O754    1.376   .     S
C718   C802    1.405   .     S
C720   C891    1.352   .     S
C720   N934    1.435   .     S
N722   N1237   1.314   .     S
N722   O1286   1.343   .     S
N723   O724    1.298   .     A
N723   O725    1.299   .     A
N726   O727    1.299   .     A
N726   O728    1.296   .     A
O729   C730    1.414   .     S
C730   H732    1.104   .     S
C730   H733    1.108   .     S
C730   H731    1.110   .     S
O734   C735    1.413   .     S
C735   H737    1.109   .     S
C735   H738    1.110   .     S
C735   H736    1.106   .     S
C740   H742    1.106   .     S
C740   H743    1.101   .     S
C740   O911    1.405   .     S
C740   H913    1.108   .     S
O744   C917    1.397   .     S
C745   H748    1.100   .     S
C745   H747    1.102   .     S
H746   C917    1.110   .     S
O749   C750    1.399   .     S
C750   H752    1.106   .     S
C750   H751    1.112   .     S
H753   C922    1.105   .     S
O754   C755    1.416   .     S
C755   H757    1.113   .     S
C755   H1272   1.110   .     S
C755   H1274   1.099   .     S
N759   O761    1.301   .     A
N759   O760    1.300   .     A
N759   C891    1.435   .     S
N762   O764    1.301   .     A
N762   O763    1.300   .     A
O765   C766    1.398   .     S
O765   N1237   1.342   .     S
C766   H767    1.110   .     S
C766   H769    1.102   .     S
C766   H1284   1.107   .     S
O770   C771    1.399   .     S
C771   H772    1.103   .     S
C771   H774    1.109   .     S
H773   C1287   1.108   .     S
O775   C779    1.318   .     A
O775   Cu787   2.041   .     S
O776   C780    1.318   .     A
O776   Cu788   2.041   .     S
O777   Cu788   2.020   .     S
O777   C779    1.306   .     A
O778   Cu787   2.020   .     S
O778   C780    1.307   .     A
C779   C805    1.459   .     S
C780   C806    1.459   .     S
O781   C785    1.313   .     A
O781   Cu787   1.969   .     S
O782   C786    1.313   .     A
O782   Cu788   1.969   .     S
O783   Cu788   1.957   .     S
O783   C785    1.306   .     A
O784   C786    1.306   .     A
O784   Cu787   1.957   .     S
C785   C792    1.453   .     S
C786   C791    1.452   .     S
Cu787  Cu788   2.745   .     S
Cu787  N808    2.062   .     S
Cu788  N807    2.062   .     S
C789   C799    1.414   .     A
C789   N809    1.441   .     S
C789   C791    1.394   .     A
C790   C800    1.418   .     A
C790   C792    1.396   .     A
C790   N812    1.436   .     S
C791   C793    1.399   .     A
C792   C794    1.398   .     A
C793   C795    1.415   .     A
C793   O815    1.385   .     S
C794   C796    1.411   .     A
C794   O820    1.384   .     S
C795   C801    1.404   .     A
C795   C797    1.412   .     A
C796   C802    1.407   .     A
C796   C798    1.419   .     A
C797   C799    1.410   .     A
C797   C712    1.416   1_655 S
C798   C800    1.414   .     A
C799   C804    1.402   .     A
C800   C803    1.409   .     A
C801   O825    1.384   .     S
C801   C717    1.413   1_655 S
C802   O830    1.384   .     S
C803   O835    1.372   .     S
C804   O840    1.376   .     S
C804   C716    1.405   1_655 S
C806   C977    1.352   .     S
C806   N1020   1.435   .     S
N808   N1323   1.314   .     S
N808   O1372   1.343   .     S
N809   O810    1.298   .     A
N809   O811    1.299   .     A
N812   O813    1.299   .     A
N812   O814    1.296   .     A
O815   C816    1.414   .     S
C816   H818    1.104   .     S
C816   H819    1.108   .     S
C816   H817    1.110   .     S
O820   C821    1.413   .     S
C821   H823    1.109   .     S
C821   H824    1.110   .     S
C821   H822    1.106   .     S
C826   H828    1.106   .     S
C826   H829    1.101   .     S
C826   O997    1.405   .     S
C826   H999    1.108   .     S
O830   C1003   1.397   .     S
C831   H834    1.100   .     S
C831   H833    1.102   .     S
H832   C1003   1.110   .     S
O835   C836    1.399   .     S
C836   H838    1.106   .     S
C836   H837    1.112   .     S
H839   C1008   1.105   .     S
O840   C841    1.416   .     S
C841   H843    1.113   .     S
C841   H1358   1.110   .     S
C841   H1360   1.099   .     S
N845   O847    1.301   .     A
N845   O846    1.300   .     A
N845   C977    1.435   .     S
N848   O850    1.301   .     A
N848   O849    1.300   .     A
O851   C852    1.398   .     S
O851   N1323   1.342   .     S
C852   H853    1.110   .     S
C852   H855    1.102   .     S
C852   H1370   1.107   .     S
O856   C857    1.399   .     S
C857   H858    1.103   .     S
C857   H860    1.109   .     S
H859   C1373   1.108   .     S
O861   C865    1.318   .     A
O861   Cu873   2.041   .     S
O862   C866    1.318   .     A
O862   Cu874   2.041   .     S
O863   Cu874   2.020   .     S
O863   C865    1.306   .     A
O864   Cu873   2.020   .     S
O864   C866    1.307   .     A
C865   C891    1.459   .     S
C866   C892    1.459   .     S
O867   C871    1.313   .     A
O867   Cu873   1.969   .     S
O868   C872    1.313   .     A
O868   Cu874   1.969   .     S
O869   Cu874   1.957   .     S
O869   C871    1.306   .     A
O870   C872    1.306   .     A
O870   Cu873   1.957   .     S
C871   C878    1.453   .     S
C872   C877    1.452   .     S
Cu873  Cu874   2.745   .     S
Cu873  N894    2.062   .     S
Cu874  N893    2.062   .     S
C875   C885    1.414   .     A
C875   N895    1.441   .     S
C875   C877    1.394   .     A
C876   C886    1.418   .     A
C876   C878    1.396   .     A
C876   N898    1.436   .     S
C877   C879    1.399   .     A
C878   C880    1.398   .     A
C879   C881    1.415   .     A
C879   O901    1.385   .     S
C880   C882    1.411   .     A
C880   O906    1.384   .     S
C881   C887    1.404   .     A
C881   C883    1.412   .     A
C882   C888    1.407   .     A
C882   C884    1.419   .     A
C883   C885    1.410   .     A
C883   C970    1.416   .     S
C884   C886    1.414   .     A
C884   C969    1.416   1_455 S
C885   C890    1.402   .     A
C886   C889    1.409   .     A
C887   O911    1.384   .     S
C887   C975    1.413   .     S
C888   O916    1.384   .     S
C888   C976    1.405   1_455 S
C889   O921    1.372   .     S
C889   C973    1.413   1_455 S
C890   O926    1.376   .     S
C890   C974    1.405   .     S
C892   C547    1.352   1_565 S
C892   N590    1.435   1_565 S
N894   N1409   1.314   .     S
N894   O1458   1.343   .     S
N895   O896    1.298   .     A
N895   O897    1.299   .     A
N898   O899    1.299   .     A
N898   O900    1.296   .     A
O901   C902    1.414   .     S
C902   H904    1.104   .     S
C902   H905    1.108   .     S
C902   H903    1.110   .     S
O906   C907    1.413   .     S
C907   H909    1.109   .     S
C907   H910    1.110   .     S
C907   H908    1.106   .     S
C912   H914    1.106   .     S
C912   H915    1.101   .     S
C912   O567    1.405   1_565 S
C912   H569    1.108   1_565 S
O916   C573    1.397   1_565 S
C917   H920    1.100   .     S
C917   H919    1.102   .     S
H918   C573    1.110   1_565 S
O921   C922    1.399   .     S
C922   H924    1.106   .     S
C922   H923    1.112   .     S
H925   C578    1.105   1_565 S
O926   C927    1.416   .     S
C927   H929    1.113   .     S
C927   H1444   1.110   .     S
C927   H1446   1.099   .     S
N931   O933    1.301   .     A
N931   O932    1.300   .     A
N931   C547    1.435   1_565 S
N934   O936    1.301   .     A
N934   O935    1.300   .     A
O937   C938    1.398   .     S
O937   N1409   1.342   .     S
C938   H939    1.110   .     S
C938   H941    1.102   .     S
C938   H1456   1.107   .     S
O942   C943    1.399   .     S
C943   H944    1.103   .     S
C943   H946    1.109   .     S
H945   C1459   1.108   .     S
O947   C951    1.318   .     A
O947   Cu959   2.041   .     S
O948   C952    1.318   .     A
O948   Cu960   2.041   .     S
O949   Cu960   2.020   .     S
O949   C951    1.306   .     A
O950   Cu959   2.020   .     S
O950   C952    1.307   .     A
C951   C977    1.459   .     S
C952   C978    1.459   .     S
O953   C957    1.313   .     A
O953   Cu959   1.969   .     S
O954   C958    1.313   .     A
O954   Cu960   1.969   .     S
O955   Cu960   1.957   .     S
O955   C957    1.306   .     A
O956   C958    1.306   .     A
O956   Cu959   1.957   .     S
C957   C964    1.453   .     S
C958   C963    1.452   .     S
Cu959  Cu960   2.745   .     S
Cu959  N980    2.062   .     S
Cu960  N979    2.062   .     S
C961   C971    1.414   .     A
C961   N981    1.441   .     S
C961   C963    1.394   .     A
C962   C972    1.418   .     A
C962   C964    1.396   .     A
C962   N984    1.436   .     S
C963   C965    1.399   .     A
C964   C966    1.398   .     A
C965   C967    1.415   .     A
C965   O987    1.385   .     S
C966   C968    1.411   .     A
C966   O992    1.384   .     S
C967   C973    1.404   .     A
C967   C969    1.412   .     A
C968   C974    1.407   .     A
C968   C970    1.419   .     A
C969   C971    1.410   .     A
C969   C884    1.416   1_655 S
C970   C972    1.414   .     A
C971   C976    1.402   .     A
C972   C975    1.409   .     A
C973   O997    1.384   .     S
C973   C889    1.413   1_655 S
C974   O1002   1.384   .     S
C975   O1007   1.372   .     S
C976   O1012   1.376   .     S
C976   C888    1.405   1_655 S
C978   C633    1.352   1_565 S
C978   N676    1.435   1_565 S
N980   N1495   1.314   .     S
N980   O1544   1.343   .     S
N981   O982    1.298   .     A
N981   O983    1.299   .     A
N984   O985    1.299   .     A
N984   O986    1.296   .     A
O987   C988    1.414   .     S
C988   H990    1.104   .     S
C988   H991    1.108   .     S
C988   H989    1.110   .     S
O992   C993    1.413   .     S
C993   H995    1.109   .     S
C993   H996    1.110   .     S
C993   H994    1.106   .     S
C998   H1000   1.106   .     S
C998   H1001   1.101   .     S
C998   O653    1.405   1_565 S
C998   H655    1.108   1_565 S
O1002  C659    1.397   1_565 S
C1003  H1006   1.100   .     S
C1003  H1005   1.102   .     S
H1004  C659    1.110   1_565 S
O1007  C1008   1.399   .     S
C1008  H1010   1.106   .     S
C1008  H1009   1.112   .     S
H1011  C664    1.105   1_565 S
O1012  C1013   1.416   .     S
C1013  H1015   1.113   .     S
C1013  H1530   1.110   .     S
C1013  H1532   1.099   .     S
N1017  O1019   1.301   .     A
N1017  O1018   1.300   .     A
N1017  C633    1.435   1_565 S
N1020  O1022   1.301   .     A
N1020  O1021   1.300   .     A
O1023  C1024   1.398   .     S
O1023  N1495   1.342   .     S
C1024  H1025   1.110   .     S
C1024  H1027   1.102   .     S
C1024  H1542   1.107   .     S
O1028  C1029   1.399   .     S
C1029  H1030   1.103   .     S
C1029  H1032   1.109   .     S
H1031  C1545   1.108   .     S
O1033  C1037   1.318   .     A
O1033  Cu1045  2.041   .     S
O1034  C1038   1.318   .     A
O1034  Cu1046  2.041   .     S
O1035  Cu1046  2.020   .     S
O1035  C1037   1.306   .     A
O1036  Cu1045  2.020   .     S
O1036  C1038   1.307   .     A
C1037  C1063   1.459   .     S
C1038  C1064   1.459   .     S
O1039  C1043   1.313   .     A
O1039  Cu1045  1.969   .     S
O1040  C1044   1.313   .     A
O1040  Cu1046  1.969   .     S
O1041  Cu1046  1.957   .     S
O1041  C1043   1.306   .     A
O1042  C1044   1.306   .     A
O1042  Cu1045  1.957   .     S
C1043  C1050   1.453   .     S
C1044  C1049   1.452   .     S
Cu1045 Cu1046  2.745   .     S
Cu1045 N1066   2.062   .     S
Cu1046 N1065   2.062   .     S
C1047  C1057   1.414   .     A
C1047  N1067   1.441   .     S
C1047  C1049   1.394   .     A
C1048  C1058   1.418   .     A
C1048  C1050   1.396   .     A
C1048  N1070   1.436   .     S
C1049  C1051   1.399   .     A
C1050  C1052   1.398   .     A
C1051  C1053   1.415   .     A
C1051  O1073   1.385   .     S
C1052  C1054   1.411   .     A
C1052  O1078   1.384   .     S
C1053  C1059   1.404   .     A
C1053  C1055   1.412   .     A
C1054  C1060   1.407   .     A
C1054  C1056   1.419   .     A
C1055  C1057   1.410   .     A
C1055  C1142   1.416   .     S
C1056  C1058   1.414   .     A
C1056  C1141   1.416   1_455 S
C1057  C1062   1.402   .     A
C1058  C1061   1.409   .     A
C1059  O1083   1.384   .     S
C1059  C1147   1.413   .     S
C1060  O1088   1.384   .     S
C1060  C1148   1.405   1_455 S
C1061  O1093   1.372   .     S
C1061  C1145   1.413   1_455 S
C1062  O1098   1.376   .     S
C1062  C1146   1.405   .     S
C1063  C1408   1.352   1_545 S
C1063  N1447   1.435   1_545 S
C1064  C1235   1.352   .     S
C1064  N1278   1.435   .     S
N1066  N33     1.314   1_556 S
N1066  O82     1.343   1_556 S
N1067  O1068   1.298   .     A
N1067  O1069   1.299   .     A
N1070  O1071   1.299   .     A
N1070  O1072   1.296   .     A
O1073  C1074   1.414   .     S
C1074  H1076   1.104   .     S
C1074  H1077   1.108   .     S
C1074  H1075   1.110   .     S
O1078  C1079   1.413   .     S
C1079  H1081   1.109   .     S
C1079  H1082   1.110   .     S
C1079  H1080   1.106   .     S
O1083  C1428   1.405   1_545 S
C1084  H1086   1.106   .     S
C1084  H1087   1.101   .     S
C1084  O1255   1.405   .     S
C1084  H1257   1.108   .     S
H1085  C1428   1.108   1_545 S
O1088  C1261   1.397   .     S
C1089  H1092   1.100   .     S
C1089  H1091   1.102   .     S
C1089  O1432   1.397   1_545 S
C1089  H1434   1.110   1_545 S
H1090  C1261   1.110   .     S
O1093  C1094   1.399   .     S
C1094  H1096   1.106   .     S
C1094  H1095   1.112   .     S
C1094  H1441   1.105   1_545 S
H1097  C1266   1.105   .     S
O1098  C1099   1.416   .     S
C1099  H1101   1.113   .     S
C1099  H68     1.110   1_556 S
C1099  H70     1.099   1_556 S
N1103  O1105   1.301   .     A
N1103  O1104   1.300   .     A
N1103  C1235   1.435   .     S
N1106  O1108   1.301   .     A
N1106  O1107   1.300   .     A
N1106  C1408   1.435   1_545 S
O1109  C1110   1.398   .     S
O1109  N33     1.342   1_556 S
C1110  H1111   1.110   .     S
C1110  H1113   1.102   .     S
C1110  H80     1.107   1_556 S
O1114  C1115   1.399   .     S
C1115  H1116   1.103   .     S
C1115  H1118   1.109   .     S
H1117  C83     1.108   1_556 S
O1119  C1123   1.318   .     A
O1119  Cu1131  2.041   .     S
O1120  C1124   1.318   .     A
O1120  Cu1132  2.041   .     S
O1121  Cu1132  2.020   .     S
O1121  C1123   1.306   .     A
O1122  Cu1131  2.020   .     S
O1122  C1124   1.307   .     A
C1123  C1149   1.459   .     S
C1124  C1150   1.459   .     S
O1125  C1129   1.313   .     A
O1125  Cu1131  1.969   .     S
O1126  C1130   1.313   .     A
O1126  Cu1132  1.969   .     S
O1127  Cu1132  1.957   .     S
O1127  C1129   1.306   .     A
O1128  C1130   1.306   .     A
O1128  Cu1131  1.957   .     S
C1129  C1136   1.453   .     S
C1130  C1135   1.452   .     S
Cu1131 Cu1132  2.745   .     S
Cu1131 N1152   2.062   .     S
Cu1132 N1151   2.062   .     S
C1133  C1143   1.414   .     A
C1133  N1153   1.441   .     S
C1133  C1135   1.394   .     A
C1134  C1144   1.418   .     A
C1134  C1136   1.396   .     A
C1134  N1156   1.436   .     S
C1135  C1137   1.399   .     A
C1136  C1138   1.398   .     A
C1137  C1139   1.415   .     A
C1137  O1159   1.385   .     S
C1138  C1140   1.411   .     A
C1138  O1164   1.384   .     S
C1139  C1145   1.404   .     A
C1139  C1141   1.412   .     A
C1140  C1146   1.407   .     A
C1140  C1142   1.419   .     A
C1141  C1143   1.410   .     A
C1141  C1056   1.416   1_655 S
C1142  C1144   1.414   .     A
C1143  C1148   1.402   .     A
C1144  C1147   1.409   .     A
C1145  O1169   1.384   .     S
C1145  C1061   1.413   1_655 S
C1146  O1174   1.384   .     S
C1147  O1179   1.372   .     S
C1148  O1184   1.376   .     S
C1148  C1060   1.405   1_655 S
C1149  C1494   1.352   1_545 S
C1149  N1533   1.435   1_545 S
C1150  C1321   1.352   .     S
C1150  N1364   1.435   .     S
N1152  N119    1.314   1_556 S
N1152  O168    1.343   1_556 S
N1153  O1154   1.298   .     A
N1153  O1155   1.299   .     A
N1156  O1157   1.299   .     A
N1156  O1158   1.296   .     A
O1159  C1160   1.414   .     S
C1160  H1162   1.104   .     S
C1160  H1163   1.108   .     S
C1160  H1161   1.110   .     S
O1164  C1165   1.413   .     S
C1165  H1167   1.109   .     S
C1165  H1168   1.110   .     S
C1165  H1166   1.106   .     S
O1169  C1514   1.405   1_545 S
C1170  H1172   1.106   .     S
C1170  H1173   1.101   .     S
C1170  O1341   1.405   .     S
C1170  H1343   1.108   .     S
H1171  C1514   1.108   1_545 S
O1174  C1347   1.397   .     S
C1175  H1178   1.100   .     S
C1175  H1177   1.102   .     S
C1175  O1518   1.397   1_545 S
C1175  H1520   1.110   1_545 S
H1176  C1347   1.110   .     S
O1179  C1180   1.399   .     S
C1180  H1182   1.106   .     S
C1180  H1181   1.112   .     S
C1180  H1527   1.105   1_545 S
H1183  C1352   1.105   .     S
O1184  C1185   1.416   .     S
C1185  H1187   1.113   .     S
C1185  H154    1.110   1_556 S
C1185  H156    1.099   1_556 S
N1189  O1191   1.301   .     A
N1189  O1190   1.300   .     A
N1189  C1321   1.435   .     S
N1192  O1194   1.301   .     A
N1192  O1193   1.300   .     A
N1192  C1494   1.435   1_545 S
O1195  C1196   1.398   .     S
O1195  N119    1.342   1_556 S
C1196  H1197   1.110   .     S
C1196  H1199   1.102   .     S
C1196  H166    1.107   1_556 S
O1200  C1201   1.399   .     S
C1201  H1202   1.103   .     S
C1201  H1204   1.109   .     S
H1203  C169    1.108   1_556 S
O1205  C1209   1.318   .     A
O1205  Cu1217  2.041   .     S
O1206  C1210   1.318   .     A
O1206  Cu1218  2.041   .     S
O1207  Cu1218  2.020   .     S
O1207  C1209   1.306   .     A
O1208  Cu1217  2.020   .     S
O1208  C1210   1.307   .     A
C1209  C1235   1.459   .     S
C1210  C1236   1.459   .     S
O1211  C1215   1.313   .     A
O1211  Cu1217  1.969   .     S
O1212  C1216   1.313   .     A
O1212  Cu1218  1.969   .     S
O1213  Cu1218  1.957   .     S
O1213  C1215   1.306   .     A
O1214  C1216   1.306   .     A
O1214  Cu1217  1.957   .     S
C1215  C1222   1.453   .     S
C1216  C1221   1.452   .     S
Cu1217 Cu1218  2.745   .     S
Cu1217 N1238   2.062   .     S
Cu1218 N1237   2.062   .     S
C1219  C1229   1.414   .     A
C1219  N1239   1.441   .     S
C1219  C1221   1.394   .     A
C1220  C1230   1.418   .     A
C1220  C1222   1.396   .     A
C1220  N1242   1.436   .     S
C1221  C1223   1.399   .     A
C1222  C1224   1.398   .     A
C1223  C1225   1.415   .     A
C1223  O1245   1.385   .     S
C1224  C1226   1.411   .     A
C1224  O1250   1.384   .     S
C1225  C1231   1.404   .     A
C1225  C1227   1.412   .     A
C1226  C1232   1.407   .     A
C1226  C1228   1.419   .     A
C1227  C1229   1.410   .     A
C1227  C1314   1.416   .     S
C1228  C1230   1.414   .     A
C1228  C1313   1.416   1_455 S
C1229  C1234   1.402   .     A
C1230  C1233   1.409   .     A
C1231  O1255   1.384   .     S
C1231  C1319   1.413   .     S
C1232  O1260   1.384   .     S
C1232  C1320   1.405   1_455 S
C1233  O1265   1.372   .     S
C1233  C1317   1.413   1_455 S
C1234  O1270   1.376   .     S
C1234  C1318   1.405   .     S
C1236  C1407   1.352   .     S
C1236  N1450   1.435   .     S
N1238  N205    1.314   1_556 S
N1238  O254    1.343   1_556 S
N1239  O1240   1.298   .     A
N1239  O1241   1.299   .     A
N1242  O1243   1.299   .     A
N1242  O1244   1.296   .     A
O1245  C1246   1.414   .     S
C1246  H1248   1.104   .     S
C1246  H1249   1.108   .     S
C1246  H1247   1.110   .     S
O1250  C1251   1.413   .     S
C1251  H1253   1.109   .     S
C1251  H1254   1.110   .     S
C1251  H1252   1.106   .     S
C1256  H1258   1.106   .     S
C1256  H1259   1.101   .     S
C1256  O1427   1.405   .     S
C1256  H1429   1.108   .     S
O1260  C1433   1.397   .     S
C1261  H1264   1.100   .     S
C1261  H1263   1.102   .     S
H1262  C1433   1.110   .     S
O1265  C1266   1.399   .     S
C1266  H1268   1.106   .     S
C1266  H1267   1.112   .     S
H1269  C1438   1.105   .     S
O1270  C1271   1.416   .     S
C1271  H1273   1.113   .     S
C1271  H240    1.110   1_556 S
C1271  H242    1.099   1_556 S
N1275  O1277   1.301   .     A
N1275  O1276   1.300   .     A
N1275  C1407   1.435   .     S
N1278  O1280   1.301   .     A
N1278  O1279   1.300   .     A
O1281  C1282   1.398   .     S
O1281  N205    1.342   1_556 S
C1282  H1283   1.110   .     S
C1282  H1285   1.102   .     S
C1282  H252    1.107   1_556 S
O1286  C1287   1.399   .     S
C1287  H1288   1.103   .     S
C1287  H1290   1.109   .     S
H1289  C255    1.108   1_556 S
O1291  C1295   1.318   .     A
O1291  Cu1303  2.041   .     S
O1292  C1296   1.318   .     A
O1292  Cu1304  2.041   .     S
O1293  Cu1304  2.020   .     S
O1293  C1295   1.306   .     A
O1294  Cu1303  2.020   .     S
O1294  C1296   1.307   .     A
C1295  C1321   1.459   .     S
C1296  C1322   1.459   .     S
O1297  C1301   1.313   .     A
O1297  Cu1303  1.969   .     S
O1298  C1302   1.313   .     A
O1298  Cu1304  1.969   .     S
O1299  Cu1304  1.957   .     S
O1299  C1301   1.306   .     A
O1300  C1302   1.306   .     A
O1300  Cu1303  1.957   .     S
C1301  C1308   1.453   .     S
C1302  C1307   1.452   .     S
Cu1303 Cu1304  2.745   .     S
Cu1303 N1324   2.062   .     S
Cu1304 N1323   2.062   .     S
C1305  C1315   1.414   .     A
C1305  N1325   1.441   .     S
C1305  C1307   1.394   .     A
C1306  C1316   1.418   .     A
C1306  C1308   1.396   .     A
C1306  N1328   1.436   .     S
C1307  C1309   1.399   .     A
C1308  C1310   1.398   .     A
C1309  C1311   1.415   .     A
C1309  O1331   1.385   .     S
C1310  C1312   1.411   .     A
C1310  O1336   1.384   .     S
C1311  C1317   1.404   .     A
C1311  C1313   1.412   .     A
C1312  C1318   1.407   .     A
C1312  C1314   1.419   .     A
C1313  C1315   1.410   .     A
C1313  C1228   1.416   1_655 S
C1314  C1316   1.414   .     A
C1315  C1320   1.402   .     A
C1316  C1319   1.409   .     A
C1317  O1341   1.384   .     S
C1317  C1233   1.413   1_655 S
C1318  O1346   1.384   .     S
C1319  O1351   1.372   .     S
C1320  O1356   1.376   .     S
C1320  C1232   1.405   1_655 S
C1322  C1493   1.352   .     S
C1322  N1536   1.435   .     S
N1324  N291    1.314   1_556 S
N1324  O340    1.343   1_556 S
N1325  O1326   1.298   .     A
N1325  O1327   1.299   .     A
N1328  O1329   1.299   .     A
N1328  O1330   1.296   .     A
O1331  C1332   1.414   .     S
C1332  H1334   1.104   .     S
C1332  H1335   1.108   .     S
C1332  H1333   1.110   .     S
O1336  C1337   1.413   .     S
C1337  H1339   1.109   .     S
C1337  H1340   1.110   .     S
C1337  H1338   1.106   .     S
C1342  H1344   1.106   .     S
C1342  H1345   1.101   .     S
C1342  O1513   1.405   .     S
C1342  H1515   1.108   .     S
O1346  C1519   1.397   .     S
C1347  H1350   1.100   .     S
C1347  H1349   1.102   .     S
H1348  C1519   1.110   .     S
O1351  C1352   1.399   .     S
C1352  H1354   1.106   .     S
C1352  H1353   1.112   .     S
H1355  C1524   1.105   .     S
O1356  C1357   1.416   .     S
C1357  H1359   1.113   .     S
C1357  H326    1.110   1_556 S
C1357  H328    1.099   1_556 S
N1361  O1363   1.301   .     A
N1361  O1362   1.300   .     A
N1361  C1493   1.435   .     S
N1364  O1366   1.301   .     A
N1364  O1365   1.300   .     A
O1367  C1368   1.398   .     S
O1367  N291    1.342   1_556 S
C1368  H1369   1.110   .     S
C1368  H1371   1.102   .     S
C1368  H338    1.107   1_556 S
O1372  C1373   1.399   .     S
C1373  H1374   1.103   .     S
C1373  H1376   1.109   .     S
H1375  C341    1.108   1_556 S
O1377  C1381   1.318   .     A
O1377  Cu1389  2.041   .     S
O1378  C1382   1.318   .     A
O1378  Cu1390  2.041   .     S
O1379  Cu1390  2.020   .     S
O1379  C1381   1.306   .     A
O1380  Cu1389  2.020   .     S
O1380  C1382   1.307   .     A
C1381  C1407   1.459   .     S
C1382  C1408   1.459   .     S
O1383  C1387   1.313   .     A
O1383  Cu1389  1.969   .     S
O1384  C1388   1.313   .     A
O1384  Cu1390  1.969   .     S
O1385  Cu1390  1.957   .     S
O1385  C1387   1.306   .     A
O1386  C1388   1.306   .     A
O1386  Cu1389  1.957   .     S
C1387  C1394   1.453   .     S
C1388  C1393   1.452   .     S
Cu1389 Cu1390  2.745   .     S
Cu1389 N1410   2.062   .     S
Cu1390 N1409   2.062   .     S
C1391  C1401   1.414   .     A
C1391  N1411   1.441   .     S
C1391  C1393   1.394   .     A
C1392  C1402   1.418   .     A
C1392  C1394   1.396   .     A
C1392  N1414   1.436   .     S
C1393  C1395   1.399   .     A
C1394  C1396   1.398   .     A
C1395  C1397   1.415   .     A
C1395  O1417   1.385   .     S
C1396  C1398   1.411   .     A
C1396  O1422   1.384   .     S
C1397  C1403   1.404   .     A
C1397  C1399   1.412   .     A
C1398  C1404   1.407   .     A
C1398  C1400   1.419   .     A
C1399  C1401   1.410   .     A
C1399  C1486   1.416   .     S
C1400  C1402   1.414   .     A
C1400  C1485   1.416   1_455 S
C1401  C1406   1.402   .     A
C1402  C1405   1.409   .     A
C1403  O1427   1.384   .     S
C1403  C1491   1.413   .     S
C1404  O1432   1.384   .     S
C1404  C1492   1.405   1_455 S
C1405  O1437   1.372   .     S
C1405  C1489   1.413   1_455 S
C1406  O1442   1.376   .     S
C1406  C1490   1.405   .     S
C1408  C1063   1.352   1_565 S
C1408  N1106   1.435   1_565 S
N1410  N377    1.314   1_556 S
N1410  O426    1.343   1_556 S
N1411  O1412   1.298   .     A
N1411  O1413   1.299   .     A
N1414  O1415   1.299   .     A
N1414  O1416   1.296   .     A
O1417  C1418   1.414   .     S
C1418  H1420   1.104   .     S
C1418  H1421   1.108   .     S
C1418  H1419   1.110   .     S
O1422  C1423   1.413   .     S
C1423  H1425   1.109   .     S
C1423  H1426   1.110   .     S
C1423  H1424   1.106   .     S
C1428  H1430   1.106   .     S
C1428  H1431   1.101   .     S
C1428  O1083   1.405   1_565 S
C1428  H1085   1.108   1_565 S
O1432  C1089   1.397   1_565 S
C1433  H1436   1.100   .     S
C1433  H1435   1.102   .     S
H1434  C1089   1.110   1_565 S
O1437  C1438   1.399   .     S
C1438  H1440   1.106   .     S
C1438  H1439   1.112   .     S
H1441  C1094   1.105   1_565 S
O1442  C1443   1.416   .     S
C1443  H1445   1.113   .     S
C1443  H412    1.110   1_556 S
C1443  H414    1.099   1_556 S
N1447  O1449   1.301   .     A
N1447  O1448   1.300   .     A
N1447  C1063   1.435   1_565 S
N1450  O1452   1.301   .     A
N1450  O1451   1.300   .     A
O1453  C1454   1.398   .     S
O1453  N377    1.342   1_556 S
C1454  H1455   1.110   .     S
C1454  H1457   1.102   .     S
C1454  H424    1.107   1_556 S
O1458  C1459   1.399   .     S
C1459  H1460   1.103   .     S
C1459  H1462   1.109   .     S
H1461  C427    1.108   1_556 S
O1463  C1467   1.318   .     A
O1463  Cu1475  2.041   .     S
O1464  C1468   1.318   .     A
O1464  Cu1476  2.041   .     S
O1465  Cu1476  2.020   .     S
O1465  C1467   1.306   .     A
O1466  Cu1475  2.020   .     S
O1466  C1468   1.307   .     A
C1467  C1493   1.459   .     S
C1468  C1494   1.459   .     S
O1469  C1473   1.313   .     A
O1469  Cu1475  1.969   .     S
O1470  C1474   1.313   .     A
O1470  Cu1476  1.969   .     S
O1471  Cu1476  1.957   .     S
O1471  C1473   1.306   .     A
O1472  C1474   1.306   .     A
O1472  Cu1475  1.957   .     S
C1473  C1480   1.453   .     S
C1474  C1479   1.452   .     S
Cu1475 Cu1476  2.745   .     S
Cu1475 N1496   2.062   .     S
Cu1476 N1495   2.062   .     S
C1477  C1487   1.414   .     A
C1477  N1497   1.441   .     S
C1477  C1479   1.394   .     A
C1478  C1488   1.418   .     A
C1478  C1480   1.396   .     A
C1478  N1500   1.436   .     S
C1479  C1481   1.399   .     A
C1480  C1482   1.398   .     A
C1481  C1483   1.415   .     A
C1481  O1503   1.385   .     S
C1482  C1484   1.411   .     A
C1482  O1508   1.384   .     S
C1483  C1489   1.404   .     A
C1483  C1485   1.412   .     A
C1484  C1490   1.407   .     A
C1484  C1486   1.419   .     A
C1485  C1487   1.410   .     A
C1485  C1400   1.416   1_655 S
C1486  C1488   1.414   .     A
C1487  C1492   1.402   .     A
C1488  C1491   1.409   .     A
C1489  O1513   1.384   .     S
C1489  C1405   1.413   1_655 S
C1490  O1518   1.384   .     S
C1491  O1523   1.372   .     S
C1492  O1528   1.376   .     S
C1492  C1404   1.405   1_655 S
C1494  C1149   1.352   1_565 S
C1494  N1192   1.435   1_565 S
N1496  N463    1.314   1_556 S
N1496  O512    1.343   1_556 S
N1497  O1498   1.298   .     A
N1497  O1499   1.299   .     A
N1500  O1501   1.299   .     A
N1500  O1502   1.296   .     A
O1503  C1504   1.414   .     S
C1504  H1506   1.104   .     S
C1504  H1507   1.108   .     S
C1504  H1505   1.110   .     S
O1508  C1509   1.413   .     S
C1509  H1511   1.109   .     S
C1509  H1512   1.110   .     S
C1509  H1510   1.106   .     S
C1514  H1516   1.106   .     S
C1514  H1517   1.101   .     S
C1514  O1169   1.405   1_565 S
C1514  H1171   1.108   1_565 S
O1518  C1175   1.397   1_565 S
C1519  H1522   1.100   .     S
C1519  H1521   1.102   .     S
H1520  C1175   1.110   1_565 S
O1523  C1524   1.399   .     S
C1524  H1526   1.106   .     S
C1524  H1525   1.112   .     S
H1527  C1180   1.105   1_565 S
O1528  C1529   1.416   .     S
C1529  H1531   1.113   .     S
C1529  H498    1.110   1_556 S
C1529  H500    1.099   1_556 S
N1533  O1535   1.301   .     A
N1533  O1534   1.300   .     A
N1533  C1149   1.435   1_565 S
N1536  O1538   1.301   .     A
N1536  O1537   1.300   .     A
O1539  C1540   1.398   .     S
O1539  N463    1.342   1_556 S
C1540  H1541   1.110   .     S
C1540  H1543   1.102   .     S
C1540  H510    1.107   1_556 S
O1544  C1545   1.399   .     S
C1545  H1546   1.103   .     S
C1545  H1548   1.109   .     S
H1547  C513    1.108   1_556 S
