data_str_m2_o1_o17_pcu_sym.46
_audit_creation_date              2020-01-03
_audit_creation_method            'Materials Studio'
_symmetry_space_group_name_H-M    'P1'
_symmetry_Int_Tables_number       1
_symmetry_cell_setting            triclinic
loop_
_symmetry_equiv_pos_as_xyz
  x,y,z
_cell_length_a                    32.4529
_cell_length_b                    28.5692
_cell_length_c                    30.0927
_cell_angle_alpha                 89.7657
_cell_angle_beta                  90.7887
_cell_angle_gamma                 89.9876
loop_
_atom_site_label
_atom_site_type_symbol
_atom_site_fract_x
_atom_site_fract_y
_atom_site_fract_z
_atom_site_U_iso_or_equiv
_atom_site_adp_type
_atom_site_occupancy
C1     C     0.08737   0.16667   0.25041   0.00000  Uiso   1.00
C2     C     0.04274   0.16664   0.25059   0.00000  Uiso   1.00
C3     C     0.13786   0.02492   0.22594   0.00000  Uiso   1.00
C4     C     0.19554   0.30841   0.27392   0.00000  Uiso   1.00
C5     C     0.19562   0.02463   0.27375   0.00000  Uiso   1.00
C6     C     0.13789   0.30865   0.22589   0.00000  Uiso   1.00
C7     C     0.16630   0.16674   0.16454   0.00000  Uiso   1.00
C8     C     0.16760   0.16661   0.33547   0.00000  Uiso   1.00
C9     C     0.20425   0.15841   0.40729   0.00000  Uiso   1.00
C10    C     0.12961   0.17416   0.09266   0.00000  Uiso   1.00
C11    C     0.16735   0.16654   0.38366   0.00000  Uiso   1.00
C12    C     0.24597   0.16666   0.25008   0.00000  Uiso   1.00
C13    C     0.16667   0.16684   0.11638   0.00000  Uiso   1.00
C14    C     0.13042   0.17616   0.40558   0.00000  Uiso   1.00
C15    C     0.20397   0.15905   0.09449   0.00000  Uiso   1.00
C16    C     0.13019   0.17693   0.45244   0.00000  Uiso   1.00
C17    C     0.20444   0.15968   0.04764   0.00000  Uiso   1.00
C18    C     0.16727   0.16826   0.47656   0.00000  Uiso   1.00
C19    C     0.16730   0.16809   0.02351   0.00000  Uiso   1.00
C20    C     0.20442   0.16001   0.45389   0.00000  Uiso   1.00
C21    C     0.13013   0.17629   0.04616   0.00000  Uiso   1.00
C22    C     0.09385   0.18597   0.47578   0.00000  Uiso   1.00
C23    C     0.09399   0.18618   0.02189   0.00000  Uiso   1.00
C24    C     0.24121   0.15320   0.02431   0.00000  Uiso   1.00
C25    C     0.25039   0.10631   0.37921   0.00000  Uiso   1.00
C26    C     0.29590   0.10198   0.36772   0.00000  Uiso   1.00
C27    C     0.30745   0.05190   0.35570   0.00000  Uiso   1.00
C28    C     0.07653   0.13772   0.12917   0.00000  Uiso   1.00
C29    C     0.03917   0.12434   0.10033   0.00000  Uiso   1.00
C30    C     0.01600   0.08290   0.12011   0.00000  Uiso   1.00
C31    C     0.06927   0.14524   0.36959   0.00000  Uiso   1.00
C32    C     0.26473   0.19017   0.13143   0.00000  Uiso   1.00
C33    C     0.24120   0.15367   0.47820   0.00000  Uiso   1.00
C34    C     0.02127   0.12424   0.24723   0.00000  Uiso   1.00
C35    C     0.31206   0.20902   0.25363   0.00000  Uiso   1.00
C36    C     0.31200   0.12427   0.24675   0.00000  Uiso   1.00
C37    C     0.02132   0.20902   0.25379   0.00000  Uiso   1.00
C38    C     0.29058   0.16664   0.25014   0.00000  Uiso   1.00
Cu39   Cu    0.16667   0.21355   0.25000   0.00000  Uiso   1.00
Cu40   Cu    0.16667   0.11978   0.25000   0.00000  Uiso   1.00
H41    H     0.06481   0.19264   0.45892   0.00000  Uiso   1.00
H42    H     0.21867   0.28967   0.29314   0.00000  Uiso   1.00
H43    H     0.21902   0.04309   0.29246   0.00000  Uiso   1.00
H44    H     0.11489   0.29007   0.20651   0.00000  Uiso   1.00
H45    H     0.23139   0.09179   0.35169   0.00000  Uiso   1.00
H46    H     0.24479   0.08526   0.40986   0.00000  Uiso   1.00
H47    H     0.30284   0.12541   0.33930   0.00000  Uiso   1.00
H48    H     0.31489   0.11333   0.39672   0.00000  Uiso   1.00
H49    H     0.30088   0.02781   0.38378   0.00000  Uiso   1.00
H50    H     0.00754   0.05020   0.34839   0.00000  Uiso   1.00
H51    H     0.28992   0.04043   0.32573   0.00000  Uiso   1.00
H52    H     0.27046   0.14798   0.04123   0.00000  Uiso   1.00
H53    H     0.06616   0.14223   0.16376   0.00000  Uiso   1.00
H54    H     0.09909   0.10816   0.12974   0.00000  Uiso   1.00
H55    H     0.01783   0.15466   0.09734   0.00000  Uiso   1.00
H56    H     0.04963   0.11469   0.06659   0.00000  Uiso   1.00
H57    H     0.03689   0.05233   0.12425   0.00000  Uiso   1.00
H58    H     0.32347   0.07294   0.09754   0.00000  Uiso   1.00
H59    H     0.00317   0.09241   0.15288   0.00000  Uiso   1.00
H60    H     0.07742   0.21443   0.38986   0.00000  Uiso   1.00
H61    H     0.05747   0.12923   0.40061   0.00000  Uiso   1.00
H62    H     0.08756   0.11889   0.35134   0.00000  Uiso   1.00
H63    H     0.06539   0.19396   0.03841   0.00000  Uiso   1.00
H64    H     0.04272   0.15588   0.34824   0.00000  Uiso   1.00
H65    H     0.25747   0.12152   0.10937   0.00000  Uiso   1.00
H66    H     0.27668   0.20702   0.10088   0.00000  Uiso   1.00
H67    H     0.29129   0.17945   0.15277   0.00000  Uiso   1.00
H68    H     0.24601   0.21585   0.15003   0.00000  Uiso   1.00
H69    H     0.27030   0.14867   0.46171   0.00000  Uiso   1.00
H70    H     0.03728   0.09112   0.24461   0.00000  Uiso   1.00
H71    H     0.29603   0.24213   0.25630   0.00000  Uiso   1.00
H72    H     0.29594   0.09116   0.24393   0.00000  Uiso   1.00
H73    H     0.03739   0.24214   0.25652   0.00000  Uiso   1.00
H74    H     0.11482   0.04369   0.20659   0.00000  Uiso   1.00
N75    N     0.16667   0.28402   0.25000   0.00000  Uiso   1.00
N76    N     0.16667   0.04931   0.25000   0.00000  Uiso   1.00
N77    N     0.09419   0.18585   0.37977   0.00000  Uiso   1.00
N78    N     0.24028   0.14945   0.12024   0.00000  Uiso   1.00
O79    O     0.10655   0.20625   0.25000   0.00000  Uiso   1.00
O80    O     0.09303   0.18120   0.11501   0.00000  Uiso   1.00
O81    O     0.22679   0.12709   0.25001   0.00000  Uiso   1.00
O82    O     0.22679   0.20625   0.25001   0.00000  Uiso   1.00
O83    O     0.10655   0.12709   0.25000   0.00000  Uiso   1.00
O84    O     0.16666   0.20627   0.18513   0.00000  Uiso   1.00
O85    O     0.16668   0.12707   0.31487   0.00000  Uiso   1.00
O86    O     0.16668   0.20627   0.31487   0.00000  Uiso   1.00
O87    O     0.16666   0.12707   0.18513   0.00000  Uiso   1.00
O88    O     0.24091   0.15420   0.38462   0.00000  Uiso   1.00
C89    C     0.42070   0.16667   0.25041   0.00000  Uiso   1.00
C90    C     0.37608   0.16664   0.25059   0.00000  Uiso   1.00
C91    C     0.47119   0.02492   0.22594   0.00000  Uiso   1.00
C92    C     0.52887   0.30841   0.27392   0.00000  Uiso   1.00
C93    C     0.52896   0.02463   0.27375   0.00000  Uiso   1.00
C94    C     0.47123   0.30865   0.22589   0.00000  Uiso   1.00
C95    C     0.49963   0.16674   0.16454   0.00000  Uiso   1.00
C96    C     0.50094   0.16661   0.33547   0.00000  Uiso   1.00
C97    C     0.53758   0.15841   0.40729   0.00000  Uiso   1.00
C98    C     0.46294   0.17416   0.09266   0.00000  Uiso   1.00
C99    C     0.50069   0.16654   0.38366   0.00000  Uiso   1.00
C100   C     0.57930   0.16666   0.25008   0.00000  Uiso   1.00
C101   C     0.50000   0.16684   0.11638   0.00000  Uiso   1.00
C102   C     0.46376   0.17616   0.40558   0.00000  Uiso   1.00
C103   C     0.53730   0.15905   0.09449   0.00000  Uiso   1.00
C104   C     0.46352   0.17693   0.45244   0.00000  Uiso   1.00
C105   C     0.53778   0.15968   0.04764   0.00000  Uiso   1.00
C106   C     0.50061   0.16826   0.47656   0.00000  Uiso   1.00
C107   C     0.50064   0.16809   0.02351   0.00000  Uiso   1.00
C108   C     0.53775   0.16001   0.45389   0.00000  Uiso   1.00
C109   C     0.46347   0.17629   0.04616   0.00000  Uiso   1.00
C110   C     0.42719   0.18597   0.47578   0.00000  Uiso   1.00
C111   C     0.42732   0.18618   0.02189   0.00000  Uiso   1.00
C112   C     0.57454   0.15320   0.02431   0.00000  Uiso   1.00
C113   C     0.58372   0.10631   0.37921   0.00000  Uiso   1.00
C114   C     0.62923   0.10198   0.36772   0.00000  Uiso   1.00
C115   C     0.64079   0.05190   0.35570   0.00000  Uiso   1.00
C116   C     0.40986   0.13772   0.12917   0.00000  Uiso   1.00
C117   C     0.37250   0.12434   0.10033   0.00000  Uiso   1.00
C118   C     0.34933   0.08290   0.12011   0.00000  Uiso   1.00
C119   C     0.40260   0.14524   0.36959   0.00000  Uiso   1.00
C120   C     0.59806   0.19017   0.13143   0.00000  Uiso   1.00
C121   C     0.57453   0.15367   0.47820   0.00000  Uiso   1.00
C122   C     0.35460   0.12424   0.24723   0.00000  Uiso   1.00
C123   C     0.64539   0.20902   0.25363   0.00000  Uiso   1.00
C124   C     0.64533   0.12427   0.24675   0.00000  Uiso   1.00
C125   C     0.35466   0.20902   0.25379   0.00000  Uiso   1.00
C126   C     0.62391   0.16664   0.25014   0.00000  Uiso   1.00
Cu127  Cu    0.50000   0.21355   0.25000   0.00000  Uiso   1.00
Cu128  Cu    0.50000   0.11978   0.25000   0.00000  Uiso   1.00
H129   H     0.39815   0.19264   0.45892   0.00000  Uiso   1.00
H130   H     0.55201   0.28967   0.29314   0.00000  Uiso   1.00
H131   H     0.55235   0.04309   0.29246   0.00000  Uiso   1.00
H132   H     0.44822   0.29007   0.20651   0.00000  Uiso   1.00
H133   H     0.56472   0.09179   0.35169   0.00000  Uiso   1.00
H134   H     0.57812   0.08526   0.40986   0.00000  Uiso   1.00
H135   H     0.63617   0.12541   0.33930   0.00000  Uiso   1.00
H136   H     0.64822   0.11333   0.39672   0.00000  Uiso   1.00
H137   H     0.63421   0.02781   0.38378   0.00000  Uiso   1.00
H138   H     0.34087   0.05020   0.34839   0.00000  Uiso   1.00
H139   H     0.62325   0.04043   0.32573   0.00000  Uiso   1.00
H140   H     0.60380   0.14798   0.04123   0.00000  Uiso   1.00
H141   H     0.39949   0.14223   0.16376   0.00000  Uiso   1.00
H142   H     0.43242   0.10816   0.12974   0.00000  Uiso   1.00
H143   H     0.35116   0.15466   0.09734   0.00000  Uiso   1.00
H144   H     0.38296   0.11469   0.06659   0.00000  Uiso   1.00
H145   H     0.37022   0.05233   0.12425   0.00000  Uiso   1.00
H146   H     0.65681   0.07294   0.09754   0.00000  Uiso   1.00
H147   H     0.33650   0.09241   0.15288   0.00000  Uiso   1.00
H148   H     0.41075   0.21443   0.38986   0.00000  Uiso   1.00
H149   H     0.39081   0.12923   0.40061   0.00000  Uiso   1.00
H150   H     0.42089   0.11889   0.35134   0.00000  Uiso   1.00
H151   H     0.39873   0.19396   0.03841   0.00000  Uiso   1.00
H152   H     0.37605   0.15588   0.34824   0.00000  Uiso   1.00
H153   H     0.59080   0.12152   0.10937   0.00000  Uiso   1.00
H154   H     0.61001   0.20702   0.10088   0.00000  Uiso   1.00
H155   H     0.62462   0.17945   0.15277   0.00000  Uiso   1.00
H156   H     0.57935   0.21585   0.15003   0.00000  Uiso   1.00
H157   H     0.60364   0.14867   0.46171   0.00000  Uiso   1.00
H158   H     0.37062   0.09112   0.24461   0.00000  Uiso   1.00
H159   H     0.62937   0.24213   0.25630   0.00000  Uiso   1.00
H160   H     0.62927   0.09116   0.24393   0.00000  Uiso   1.00
H161   H     0.37072   0.24214   0.25652   0.00000  Uiso   1.00
H162   H     0.44816   0.04369   0.20659   0.00000  Uiso   1.00
N163   N     0.50000   0.28402   0.25000   0.00000  Uiso   1.00
N164   N     0.50000   0.04931   0.25000   0.00000  Uiso   1.00
N165   N     0.42753   0.18585   0.37977   0.00000  Uiso   1.00
N166   N     0.57362   0.14945   0.12024   0.00000  Uiso   1.00
O167   O     0.43988   0.20625   0.25000   0.00000  Uiso   1.00
O168   O     0.42636   0.18120   0.11501   0.00000  Uiso   1.00
O169   O     0.56012   0.12709   0.25001   0.00000  Uiso   1.00
O170   O     0.56012   0.20625   0.25001   0.00000  Uiso   1.00
O171   O     0.43988   0.12709   0.25000   0.00000  Uiso   1.00
O172   O     0.49999   0.20627   0.18513   0.00000  Uiso   1.00
O173   O     0.50001   0.12707   0.31487   0.00000  Uiso   1.00
O174   O     0.50001   0.20627   0.31487   0.00000  Uiso   1.00
O175   O     0.49999   0.12707   0.18513   0.00000  Uiso   1.00
O176   O     0.57424   0.15420   0.38462   0.00000  Uiso   1.00
C177   C     0.75404   0.16667   0.25041   0.00000  Uiso   1.00
C178   C     0.70941   0.16664   0.25059   0.00000  Uiso   1.00
C179   C     0.80453   0.02492   0.22594   0.00000  Uiso   1.00
C180   C     0.86220   0.30841   0.27392   0.00000  Uiso   1.00
C181   C     0.86229   0.02463   0.27375   0.00000  Uiso   1.00
C182   C     0.80456   0.30865   0.22589   0.00000  Uiso   1.00
C183   C     0.83296   0.16674   0.16454   0.00000  Uiso   1.00
C184   C     0.83427   0.16661   0.33547   0.00000  Uiso   1.00
C185   C     0.87091   0.15841   0.40729   0.00000  Uiso   1.00
C186   C     0.79628   0.17416   0.09266   0.00000  Uiso   1.00
C187   C     0.83402   0.16654   0.38366   0.00000  Uiso   1.00
C188   C     0.91264   0.16666   0.25008   0.00000  Uiso   1.00
C189   C     0.83334   0.16684   0.11638   0.00000  Uiso   1.00
C190   C     0.79709   0.17616   0.40558   0.00000  Uiso   1.00
C191   C     0.87064   0.15905   0.09449   0.00000  Uiso   1.00
C192   C     0.79685   0.17693   0.45244   0.00000  Uiso   1.00
C193   C     0.87111   0.15968   0.04764   0.00000  Uiso   1.00
C194   C     0.83394   0.16826   0.47656   0.00000  Uiso   1.00
C195   C     0.83397   0.16809   0.02351   0.00000  Uiso   1.00
C196   C     0.87109   0.16001   0.45389   0.00000  Uiso   1.00
C197   C     0.79680   0.17629   0.04616   0.00000  Uiso   1.00
C198   C     0.76052   0.18597   0.47578   0.00000  Uiso   1.00
C199   C     0.76065   0.18618   0.02189   0.00000  Uiso   1.00
C200   C     0.90788   0.15320   0.02431   0.00000  Uiso   1.00
C201   C     0.91705   0.10631   0.37921   0.00000  Uiso   1.00
C202   C     0.96257   0.10198   0.36772   0.00000  Uiso   1.00
C203   C     0.97412   0.05190   0.35570   0.00000  Uiso   1.00
C204   C     0.74320   0.13772   0.12917   0.00000  Uiso   1.00
C205   C     0.70584   0.12434   0.10033   0.00000  Uiso   1.00
C206   C     0.68266   0.08290   0.12011   0.00000  Uiso   1.00
C207   C     0.73593   0.14524   0.36959   0.00000  Uiso   1.00
C208   C     0.93140   0.19017   0.13143   0.00000  Uiso   1.00
C209   C     0.90787   0.15367   0.47820   0.00000  Uiso   1.00
C210   C     0.68793   0.12424   0.24723   0.00000  Uiso   1.00
C211   C     0.97872   0.20902   0.25363   0.00000  Uiso   1.00
C212   C     0.97867   0.12427   0.24675   0.00000  Uiso   1.00
C213   C     0.68799   0.20902   0.25379   0.00000  Uiso   1.00
C214   C     0.95725   0.16664   0.25014   0.00000  Uiso   1.00
Cu215  Cu    0.83333   0.21355   0.25000   0.00000  Uiso   1.00
Cu216  Cu    0.83333   0.11978   0.25000   0.00000  Uiso   1.00
H217   H     0.73148   0.19264   0.45892   0.00000  Uiso   1.00
H218   H     0.88534   0.28967   0.29314   0.00000  Uiso   1.00
H219   H     0.88568   0.04309   0.29246   0.00000  Uiso   1.00
H220   H     0.78155   0.29007   0.20651   0.00000  Uiso   1.00
H221   H     0.89805   0.09179   0.35169   0.00000  Uiso   1.00
H222   H     0.91145   0.08526   0.40986   0.00000  Uiso   1.00
H223   H     0.96950   0.12541   0.33930   0.00000  Uiso   1.00
H224   H     0.98156   0.11333   0.39672   0.00000  Uiso   1.00
H225   H     0.96755   0.02781   0.38378   0.00000  Uiso   1.00
H226   H     0.67420   0.05020   0.34839   0.00000  Uiso   1.00
H227   H     0.95658   0.04043   0.32573   0.00000  Uiso   1.00
H228   H     0.93713   0.14798   0.04123   0.00000  Uiso   1.00
H229   H     0.73282   0.14223   0.16376   0.00000  Uiso   1.00
H230   H     0.76576   0.10816   0.12974   0.00000  Uiso   1.00
H231   H     0.68450   0.15466   0.09734   0.00000  Uiso   1.00
H232   H     0.71629   0.11469   0.06659   0.00000  Uiso   1.00
H233   H     0.70356   0.05233   0.12425   0.00000  Uiso   1.00
H234   H     0.99014   0.07294   0.09754   0.00000  Uiso   1.00
H235   H     0.66984   0.09241   0.15288   0.00000  Uiso   1.00
H236   H     0.74408   0.21443   0.38986   0.00000  Uiso   1.00
H237   H     0.72414   0.12923   0.40061   0.00000  Uiso   1.00
H238   H     0.75423   0.11889   0.35134   0.00000  Uiso   1.00
H239   H     0.73206   0.19396   0.03841   0.00000  Uiso   1.00
H240   H     0.70938   0.15588   0.34824   0.00000  Uiso   1.00
H241   H     0.92414   0.12152   0.10937   0.00000  Uiso   1.00
H242   H     0.94335   0.20702   0.10088   0.00000  Uiso   1.00
H243   H     0.95796   0.17945   0.15277   0.00000  Uiso   1.00
H244   H     0.91268   0.21585   0.15003   0.00000  Uiso   1.00
H245   H     0.93697   0.14867   0.46171   0.00000  Uiso   1.00
H246   H     0.70395   0.09112   0.24461   0.00000  Uiso   1.00
H247   H     0.96270   0.24213   0.25630   0.00000  Uiso   1.00
H248   H     0.96261   0.09116   0.24393   0.00000  Uiso   1.00
H249   H     0.70405   0.24214   0.25652   0.00000  Uiso   1.00
H250   H     0.78149   0.04369   0.20659   0.00000  Uiso   1.00
N251   N     0.83333   0.28402   0.25000   0.00000  Uiso   1.00
N252   N     0.83333   0.04931   0.25000   0.00000  Uiso   1.00
N253   N     0.76086   0.18585   0.37977   0.00000  Uiso   1.00
N254   N     0.90695   0.14945   0.12024   0.00000  Uiso   1.00
O255   O     0.77321   0.20625   0.25000   0.00000  Uiso   1.00
O256   O     0.75969   0.18120   0.11501   0.00000  Uiso   1.00
O257   O     0.89345   0.12709   0.25001   0.00000  Uiso   1.00
O258   O     0.89345   0.20625   0.25001   0.00000  Uiso   1.00
O259   O     0.77321   0.12709   0.25000   0.00000  Uiso   1.00
O260   O     0.83332   0.20627   0.18513   0.00000  Uiso   1.00
O261   O     0.83334   0.12707   0.31487   0.00000  Uiso   1.00
O262   O     0.83334   0.20627   0.31487   0.00000  Uiso   1.00
O263   O     0.83332   0.12707   0.18513   0.00000  Uiso   1.00
O264   O     0.90757   0.15420   0.38462   0.00000  Uiso   1.00
C265   C     0.08737   0.50000   0.25041   0.00000  Uiso   1.00
C266   C     0.04274   0.49998   0.25059   0.00000  Uiso   1.00
C267   C     0.13786   0.35826   0.22594   0.00000  Uiso   1.00
C268   C     0.19554   0.64174   0.27392   0.00000  Uiso   1.00
C269   C     0.19562   0.35797   0.27375   0.00000  Uiso   1.00
C270   C     0.13789   0.64198   0.22589   0.00000  Uiso   1.00
C271   C     0.16630   0.50007   0.16454   0.00000  Uiso   1.00
C272   C     0.16760   0.49994   0.33547   0.00000  Uiso   1.00
C273   C     0.20425   0.49174   0.40729   0.00000  Uiso   1.00
C274   C     0.12961   0.50749   0.09266   0.00000  Uiso   1.00
C275   C     0.16735   0.49987   0.38366   0.00000  Uiso   1.00
C276   C     0.24597   0.49999   0.25008   0.00000  Uiso   1.00
C277   C     0.16667   0.50017   0.11638   0.00000  Uiso   1.00
C278   C     0.13042   0.50950   0.40558   0.00000  Uiso   1.00
C279   C     0.20397   0.49239   0.09449   0.00000  Uiso   1.00
C280   C     0.13019   0.51027   0.45244   0.00000  Uiso   1.00
C281   C     0.20444   0.49302   0.04764   0.00000  Uiso   1.00
C282   C     0.16727   0.50160   0.47656   0.00000  Uiso   1.00
C283   C     0.16730   0.50142   0.02351   0.00000  Uiso   1.00
C284   C     0.20442   0.49334   0.45389   0.00000  Uiso   1.00
C285   C     0.13013   0.50963   0.04616   0.00000  Uiso   1.00
C286   C     0.09385   0.51930   0.47578   0.00000  Uiso   1.00
C287   C     0.09399   0.51951   0.02189   0.00000  Uiso   1.00
C288   C     0.24121   0.48653   0.02431   0.00000  Uiso   1.00
C289   C     0.25039   0.43964   0.37921   0.00000  Uiso   1.00
C290   C     0.29590   0.43532   0.36772   0.00000  Uiso   1.00
C291   C     0.30745   0.38523   0.35570   0.00000  Uiso   1.00
C292   C     0.07653   0.47105   0.12917   0.00000  Uiso   1.00
C293   C     0.03917   0.45767   0.10033   0.00000  Uiso   1.00
C294   C     0.01600   0.41623   0.12011   0.00000  Uiso   1.00
C295   C     0.06927   0.47858   0.36959   0.00000  Uiso   1.00
C296   C     0.26473   0.52350   0.13143   0.00000  Uiso   1.00
C297   C     0.24120   0.48700   0.47820   0.00000  Uiso   1.00
C298   C     0.02127   0.45758   0.24723   0.00000  Uiso   1.00
C299   C     0.31206   0.54235   0.25363   0.00000  Uiso   1.00
C300   C     0.31200   0.45760   0.24675   0.00000  Uiso   1.00
C301   C     0.02132   0.54235   0.25379   0.00000  Uiso   1.00
C302   C     0.29058   0.49998   0.25014   0.00000  Uiso   1.00
Cu303  Cu    0.16667   0.54689   0.25000   0.00000  Uiso   1.00
Cu304  Cu    0.16667   0.45311   0.25000   0.00000  Uiso   1.00
H305   H     0.06481   0.52597   0.45892   0.00000  Uiso   1.00
H306   H     0.21867   0.62301   0.29314   0.00000  Uiso   1.00
H307   H     0.21902   0.37642   0.29246   0.00000  Uiso   1.00
H308   H     0.11489   0.62341   0.20651   0.00000  Uiso   1.00
H309   H     0.23139   0.42513   0.35169   0.00000  Uiso   1.00
H310   H     0.24479   0.41859   0.40986   0.00000  Uiso   1.00
H311   H     0.30284   0.45874   0.33930   0.00000  Uiso   1.00
H312   H     0.31489   0.44667   0.39672   0.00000  Uiso   1.00
H313   H     0.30088   0.36114   0.38378   0.00000  Uiso   1.00
H314   H     0.00754   0.38353   0.34839   0.00000  Uiso   1.00
H315   H     0.28992   0.37377   0.32573   0.00000  Uiso   1.00
H316   H     0.27046   0.48131   0.04123   0.00000  Uiso   1.00
H317   H     0.06616   0.47556   0.16376   0.00000  Uiso   1.00
H318   H     0.09909   0.44150   0.12974   0.00000  Uiso   1.00
H319   H     0.01783   0.48799   0.09734   0.00000  Uiso   1.00
H320   H     0.04963   0.44802   0.06659   0.00000  Uiso   1.00
H321   H     0.03689   0.38567   0.12425   0.00000  Uiso   1.00
H322   H     0.32347   0.40627   0.09754   0.00000  Uiso   1.00
H323   H     0.00317   0.42575   0.15288   0.00000  Uiso   1.00
H324   H     0.07742   0.54777   0.38986   0.00000  Uiso   1.00
H325   H     0.05747   0.46257   0.40061   0.00000  Uiso   1.00
H326   H     0.08756   0.45222   0.35134   0.00000  Uiso   1.00
H327   H     0.06539   0.52729   0.03841   0.00000  Uiso   1.00
H328   H     0.04272   0.48921   0.34824   0.00000  Uiso   1.00
H329   H     0.25747   0.45485   0.10937   0.00000  Uiso   1.00
H330   H     0.27668   0.54035   0.10088   0.00000  Uiso   1.00
H331   H     0.29129   0.51278   0.15277   0.00000  Uiso   1.00
H332   H     0.24601   0.54918   0.15003   0.00000  Uiso   1.00
H333   H     0.27030   0.48200   0.46171   0.00000  Uiso   1.00
H334   H     0.03728   0.42446   0.24461   0.00000  Uiso   1.00
H335   H     0.29603   0.57547   0.25630   0.00000  Uiso   1.00
H336   H     0.29594   0.42449   0.24393   0.00000  Uiso   1.00
H337   H     0.03739   0.57547   0.25652   0.00000  Uiso   1.00
H338   H     0.11482   0.37702   0.20659   0.00000  Uiso   1.00
N339   N     0.16667   0.61736   0.25000   0.00000  Uiso   1.00
N340   N     0.16667   0.38264   0.25000   0.00000  Uiso   1.00
N341   N     0.09419   0.51918   0.37977   0.00000  Uiso   1.00
N342   N     0.24028   0.48278   0.12024   0.00000  Uiso   1.00
O343   O     0.10655   0.53958   0.25000   0.00000  Uiso   1.00
O344   O     0.09303   0.51454   0.11501   0.00000  Uiso   1.00
O345   O     0.22679   0.46042   0.25001   0.00000  Uiso   1.00
O346   O     0.22679   0.53958   0.25001   0.00000  Uiso   1.00
O347   O     0.10655   0.46042   0.25000   0.00000  Uiso   1.00
O348   O     0.16666   0.53960   0.18513   0.00000  Uiso   1.00
O349   O     0.16668   0.46040   0.31487   0.00000  Uiso   1.00
O350   O     0.16668   0.53960   0.31487   0.00000  Uiso   1.00
O351   O     0.16666   0.46040   0.18513   0.00000  Uiso   1.00
O352   O     0.24091   0.48753   0.38462   0.00000  Uiso   1.00
C353   C     0.42070   0.50000   0.25041   0.00000  Uiso   1.00
C354   C     0.37608   0.49998   0.25059   0.00000  Uiso   1.00
C355   C     0.47119   0.35826   0.22594   0.00000  Uiso   1.00
C356   C     0.52887   0.64174   0.27392   0.00000  Uiso   1.00
C357   C     0.52896   0.35797   0.27375   0.00000  Uiso   1.00
C358   C     0.47123   0.64198   0.22589   0.00000  Uiso   1.00
C359   C     0.49963   0.50007   0.16454   0.00000  Uiso   1.00
C360   C     0.50094   0.49994   0.33547   0.00000  Uiso   1.00
C361   C     0.53758   0.49174   0.40729   0.00000  Uiso   1.00
C362   C     0.46294   0.50749   0.09266   0.00000  Uiso   1.00
C363   C     0.50069   0.49987   0.38366   0.00000  Uiso   1.00
C364   C     0.57930   0.49999   0.25008   0.00000  Uiso   1.00
C365   C     0.50000   0.50017   0.11638   0.00000  Uiso   1.00
C366   C     0.46376   0.50950   0.40558   0.00000  Uiso   1.00
C367   C     0.53730   0.49239   0.09449   0.00000  Uiso   1.00
C368   C     0.46352   0.51027   0.45244   0.00000  Uiso   1.00
C369   C     0.53778   0.49302   0.04764   0.00000  Uiso   1.00
C370   C     0.50061   0.50160   0.47656   0.00000  Uiso   1.00
C371   C     0.50064   0.50142   0.02351   0.00000  Uiso   1.00
C372   C     0.53775   0.49334   0.45389   0.00000  Uiso   1.00
C373   C     0.46347   0.50963   0.04616   0.00000  Uiso   1.00
C374   C     0.42719   0.51930   0.47578   0.00000  Uiso   1.00
C375   C     0.42732   0.51951   0.02189   0.00000  Uiso   1.00
C376   C     0.57454   0.48653   0.02431   0.00000  Uiso   1.00
C377   C     0.58372   0.43964   0.37921   0.00000  Uiso   1.00
C378   C     0.62923   0.43532   0.36772   0.00000  Uiso   1.00
C379   C     0.64079   0.38523   0.35570   0.00000  Uiso   1.00
C380   C     0.40986   0.47105   0.12917   0.00000  Uiso   1.00
C381   C     0.37250   0.45767   0.10033   0.00000  Uiso   1.00
C382   C     0.34933   0.41623   0.12011   0.00000  Uiso   1.00
C383   C     0.40260   0.47858   0.36959   0.00000  Uiso   1.00
C384   C     0.59806   0.52350   0.13143   0.00000  Uiso   1.00
C385   C     0.57453   0.48700   0.47820   0.00000  Uiso   1.00
C386   C     0.35460   0.45758   0.24723   0.00000  Uiso   1.00
C387   C     0.64539   0.54235   0.25363   0.00000  Uiso   1.00
C388   C     0.64533   0.45760   0.24675   0.00000  Uiso   1.00
C389   C     0.35466   0.54235   0.25379   0.00000  Uiso   1.00
C390   C     0.62391   0.49998   0.25014   0.00000  Uiso   1.00
Cu391  Cu    0.50000   0.54689   0.25000   0.00000  Uiso   1.00
Cu392  Cu    0.50000   0.45311   0.25000   0.00000  Uiso   1.00
H393   H     0.39815   0.52597   0.45892   0.00000  Uiso   1.00
H394   H     0.55201   0.62301   0.29314   0.00000  Uiso   1.00
H395   H     0.55235   0.37642   0.29246   0.00000  Uiso   1.00
H396   H     0.44822   0.62341   0.20651   0.00000  Uiso   1.00
H397   H     0.56472   0.42513   0.35169   0.00000  Uiso   1.00
H398   H     0.57812   0.41859   0.40986   0.00000  Uiso   1.00
H399   H     0.63617   0.45874   0.33930   0.00000  Uiso   1.00
H400   H     0.64822   0.44667   0.39672   0.00000  Uiso   1.00
H401   H     0.63421   0.36114   0.38378   0.00000  Uiso   1.00
H402   H     0.34087   0.38353   0.34839   0.00000  Uiso   1.00
H403   H     0.62325   0.37377   0.32573   0.00000  Uiso   1.00
H404   H     0.60380   0.48131   0.04123   0.00000  Uiso   1.00
H405   H     0.39949   0.47556   0.16376   0.00000  Uiso   1.00
H406   H     0.43242   0.44150   0.12974   0.00000  Uiso   1.00
H407   H     0.35116   0.48799   0.09734   0.00000  Uiso   1.00
H408   H     0.38296   0.44802   0.06659   0.00000  Uiso   1.00
H409   H     0.37022   0.38567   0.12425   0.00000  Uiso   1.00
H410   H     0.65681   0.40627   0.09754   0.00000  Uiso   1.00
H411   H     0.33650   0.42575   0.15288   0.00000  Uiso   1.00
H412   H     0.41075   0.54777   0.38986   0.00000  Uiso   1.00
H413   H     0.39081   0.46257   0.40061   0.00000  Uiso   1.00
H414   H     0.42089   0.45222   0.35134   0.00000  Uiso   1.00
H415   H     0.39873   0.52729   0.03841   0.00000  Uiso   1.00
H416   H     0.37605   0.48921   0.34824   0.00000  Uiso   1.00
H417   H     0.59080   0.45485   0.10937   0.00000  Uiso   1.00
H418   H     0.61001   0.54035   0.10088   0.00000  Uiso   1.00
H419   H     0.62462   0.51278   0.15277   0.00000  Uiso   1.00
H420   H     0.57935   0.54918   0.15003   0.00000  Uiso   1.00
H421   H     0.60364   0.48200   0.46171   0.00000  Uiso   1.00
H422   H     0.37062   0.42446   0.24461   0.00000  Uiso   1.00
H423   H     0.62937   0.57547   0.25630   0.00000  Uiso   1.00
H424   H     0.62927   0.42449   0.24393   0.00000  Uiso   1.00
H425   H     0.37072   0.57547   0.25652   0.00000  Uiso   1.00
H426   H     0.44816   0.37702   0.20659   0.00000  Uiso   1.00
N427   N     0.50000   0.61736   0.25000   0.00000  Uiso   1.00
N428   N     0.50000   0.38264   0.25000   0.00000  Uiso   1.00
N429   N     0.42753   0.51918   0.37977   0.00000  Uiso   1.00
N430   N     0.57362   0.48278   0.12024   0.00000  Uiso   1.00
O431   O     0.43988   0.53958   0.25000   0.00000  Uiso   1.00
O432   O     0.42636   0.51454   0.11501   0.00000  Uiso   1.00
O433   O     0.56012   0.46042   0.25001   0.00000  Uiso   1.00
O434   O     0.56012   0.53958   0.25001   0.00000  Uiso   1.00
O435   O     0.43988   0.46042   0.25000   0.00000  Uiso   1.00
O436   O     0.49999   0.53960   0.18513   0.00000  Uiso   1.00
O437   O     0.50001   0.46040   0.31487   0.00000  Uiso   1.00
O438   O     0.50001   0.53960   0.31487   0.00000  Uiso   1.00
O439   O     0.49999   0.46040   0.18513   0.00000  Uiso   1.00
O440   O     0.57424   0.48753   0.38462   0.00000  Uiso   1.00
C441   C     0.75404   0.50000   0.25041   0.00000  Uiso   1.00
C442   C     0.70941   0.49998   0.25059   0.00000  Uiso   1.00
C443   C     0.80453   0.35826   0.22594   0.00000  Uiso   1.00
C444   C     0.86220   0.64174   0.27392   0.00000  Uiso   1.00
C445   C     0.86229   0.35797   0.27375   0.00000  Uiso   1.00
C446   C     0.80456   0.64198   0.22589   0.00000  Uiso   1.00
C447   C     0.83296   0.50007   0.16454   0.00000  Uiso   1.00
C448   C     0.83427   0.49994   0.33547   0.00000  Uiso   1.00
C449   C     0.87091   0.49174   0.40729   0.00000  Uiso   1.00
C450   C     0.79628   0.50749   0.09266   0.00000  Uiso   1.00
C451   C     0.83402   0.49987   0.38366   0.00000  Uiso   1.00
C452   C     0.91264   0.49999   0.25008   0.00000  Uiso   1.00
C453   C     0.83334   0.50017   0.11638   0.00000  Uiso   1.00
C454   C     0.79709   0.50950   0.40558   0.00000  Uiso   1.00
C455   C     0.87064   0.49239   0.09449   0.00000  Uiso   1.00
C456   C     0.79685   0.51027   0.45244   0.00000  Uiso   1.00
C457   C     0.87111   0.49302   0.04764   0.00000  Uiso   1.00
C458   C     0.83394   0.50160   0.47656   0.00000  Uiso   1.00
C459   C     0.83397   0.50142   0.02351   0.00000  Uiso   1.00
C460   C     0.87109   0.49334   0.45389   0.00000  Uiso   1.00
C461   C     0.79680   0.50963   0.04616   0.00000  Uiso   1.00
C462   C     0.76052   0.51930   0.47578   0.00000  Uiso   1.00
C463   C     0.76065   0.51951   0.02189   0.00000  Uiso   1.00
C464   C     0.90788   0.48653   0.02431   0.00000  Uiso   1.00
C465   C     0.91705   0.43964   0.37921   0.00000  Uiso   1.00
C466   C     0.96257   0.43532   0.36772   0.00000  Uiso   1.00
C467   C     0.97412   0.38523   0.35570   0.00000  Uiso   1.00
C468   C     0.74320   0.47105   0.12917   0.00000  Uiso   1.00
C469   C     0.70584   0.45767   0.10033   0.00000  Uiso   1.00
C470   C     0.68266   0.41623   0.12011   0.00000  Uiso   1.00
C471   C     0.73593   0.47858   0.36959   0.00000  Uiso   1.00
C472   C     0.93140   0.52350   0.13143   0.00000  Uiso   1.00
C473   C     0.90787   0.48700   0.47820   0.00000  Uiso   1.00
C474   C     0.68793   0.45758   0.24723   0.00000  Uiso   1.00
C475   C     0.97872   0.54235   0.25363   0.00000  Uiso   1.00
C476   C     0.97867   0.45760   0.24675   0.00000  Uiso   1.00
C477   C     0.68799   0.54235   0.25379   0.00000  Uiso   1.00
C478   C     0.95725   0.49998   0.25014   0.00000  Uiso   1.00
Cu479  Cu    0.83333   0.54689   0.25000   0.00000  Uiso   1.00
Cu480  Cu    0.83333   0.45311   0.25000   0.00000  Uiso   1.00
H481   H     0.73148   0.52597   0.45892   0.00000  Uiso   1.00
H482   H     0.88534   0.62301   0.29314   0.00000  Uiso   1.00
H483   H     0.88568   0.37642   0.29246   0.00000  Uiso   1.00
H484   H     0.78155   0.62341   0.20651   0.00000  Uiso   1.00
H485   H     0.89805   0.42513   0.35169   0.00000  Uiso   1.00
H486   H     0.91145   0.41859   0.40986   0.00000  Uiso   1.00
H487   H     0.96950   0.45874   0.33930   0.00000  Uiso   1.00
H488   H     0.98156   0.44667   0.39672   0.00000  Uiso   1.00
H489   H     0.96755   0.36114   0.38378   0.00000  Uiso   1.00
H490   H     0.67420   0.38353   0.34839   0.00000  Uiso   1.00
H491   H     0.95658   0.37377   0.32573   0.00000  Uiso   1.00
H492   H     0.93713   0.48131   0.04123   0.00000  Uiso   1.00
H493   H     0.73282   0.47556   0.16376   0.00000  Uiso   1.00
H494   H     0.76576   0.44150   0.12974   0.00000  Uiso   1.00
H495   H     0.68450   0.48799   0.09734   0.00000  Uiso   1.00
H496   H     0.71629   0.44802   0.06659   0.00000  Uiso   1.00
H497   H     0.70356   0.38567   0.12425   0.00000  Uiso   1.00
H498   H     0.99014   0.40627   0.09754   0.00000  Uiso   1.00
H499   H     0.66984   0.42575   0.15288   0.00000  Uiso   1.00
H500   H     0.74408   0.54777   0.38986   0.00000  Uiso   1.00
H501   H     0.72414   0.46257   0.40061   0.00000  Uiso   1.00
H502   H     0.75423   0.45222   0.35134   0.00000  Uiso   1.00
H503   H     0.73206   0.52729   0.03841   0.00000  Uiso   1.00
H504   H     0.70938   0.48921   0.34824   0.00000  Uiso   1.00
H505   H     0.92414   0.45485   0.10937   0.00000  Uiso   1.00
H506   H     0.94335   0.54035   0.10088   0.00000  Uiso   1.00
H507   H     0.95796   0.51278   0.15277   0.00000  Uiso   1.00
H508   H     0.91268   0.54918   0.15003   0.00000  Uiso   1.00
H509   H     0.93697   0.48200   0.46171   0.00000  Uiso   1.00
H510   H     0.70395   0.42446   0.24461   0.00000  Uiso   1.00
H511   H     0.96270   0.57547   0.25630   0.00000  Uiso   1.00
H512   H     0.96261   0.42449   0.24393   0.00000  Uiso   1.00
H513   H     0.70405   0.57547   0.25652   0.00000  Uiso   1.00
H514   H     0.78149   0.37702   0.20659   0.00000  Uiso   1.00
N515   N     0.83333   0.61736   0.25000   0.00000  Uiso   1.00
N516   N     0.83333   0.38264   0.25000   0.00000  Uiso   1.00
N517   N     0.76086   0.51918   0.37977   0.00000  Uiso   1.00
N518   N     0.90695   0.48278   0.12024   0.00000  Uiso   1.00
O519   O     0.77321   0.53958   0.25000   0.00000  Uiso   1.00
O520   O     0.75969   0.51454   0.11501   0.00000  Uiso   1.00
O521   O     0.89345   0.46042   0.25001   0.00000  Uiso   1.00
O522   O     0.89345   0.53958   0.25001   0.00000  Uiso   1.00
O523   O     0.77321   0.46042   0.25000   0.00000  Uiso   1.00
O524   O     0.83332   0.53960   0.18513   0.00000  Uiso   1.00
O525   O     0.83334   0.46040   0.31487   0.00000  Uiso   1.00
O526   O     0.83334   0.53960   0.31487   0.00000  Uiso   1.00
O527   O     0.83332   0.46040   0.18513   0.00000  Uiso   1.00
O528   O     0.90757   0.48753   0.38462   0.00000  Uiso   1.00
C529   C     0.08737   0.83334   0.25041   0.00000  Uiso   1.00
C530   C     0.04274   0.83331   0.25059   0.00000  Uiso   1.00
C531   C     0.13786   0.69159   0.22594   0.00000  Uiso   1.00
C532   C     0.19554   0.97507   0.27392   0.00000  Uiso   1.00
C533   C     0.19562   0.69130   0.27375   0.00000  Uiso   1.00
C534   C     0.13789   0.97532   0.22589   0.00000  Uiso   1.00
C535   C     0.16630   0.83340   0.16454   0.00000  Uiso   1.00
C536   C     0.16760   0.83327   0.33547   0.00000  Uiso   1.00
C537   C     0.20425   0.82507   0.40729   0.00000  Uiso   1.00
C538   C     0.12961   0.84083   0.09266   0.00000  Uiso   1.00
C539   C     0.16735   0.83320   0.38366   0.00000  Uiso   1.00
C540   C     0.24597   0.83332   0.25008   0.00000  Uiso   1.00
C541   C     0.16667   0.83351   0.11638   0.00000  Uiso   1.00
C542   C     0.13042   0.84283   0.40558   0.00000  Uiso   1.00
C543   C     0.20397   0.82572   0.09449   0.00000  Uiso   1.00
C544   C     0.13019   0.84360   0.45244   0.00000  Uiso   1.00
C545   C     0.20444   0.82635   0.04764   0.00000  Uiso   1.00
C546   C     0.16727   0.83493   0.47656   0.00000  Uiso   1.00
C547   C     0.16730   0.83476   0.02351   0.00000  Uiso   1.00
C548   C     0.20442   0.82667   0.45389   0.00000  Uiso   1.00
C549   C     0.13013   0.84296   0.04616   0.00000  Uiso   1.00
C550   C     0.09385   0.85264   0.47578   0.00000  Uiso   1.00
C551   C     0.09399   0.85284   0.02189   0.00000  Uiso   1.00
C552   C     0.24121   0.81987   0.02431   0.00000  Uiso   1.00
C553   C     0.25039   0.77298   0.37921   0.00000  Uiso   1.00
C554   C     0.29590   0.76865   0.36772   0.00000  Uiso   1.00
C555   C     0.30745   0.71857   0.35570   0.00000  Uiso   1.00
C556   C     0.07653   0.80439   0.12917   0.00000  Uiso   1.00
C557   C     0.03917   0.79100   0.10033   0.00000  Uiso   1.00
C558   C     0.01600   0.74956   0.12011   0.00000  Uiso   1.00
C559   C     0.06927   0.81191   0.36959   0.00000  Uiso   1.00
C560   C     0.26473   0.85683   0.13143   0.00000  Uiso   1.00
C561   C     0.24120   0.82033   0.47820   0.00000  Uiso   1.00
C562   C     0.02127   0.79091   0.24723   0.00000  Uiso   1.00
C563   C     0.31206   0.87568   0.25363   0.00000  Uiso   1.00
C564   C     0.31200   0.79093   0.24675   0.00000  Uiso   1.00
C565   C     0.02132   0.87569   0.25379   0.00000  Uiso   1.00
C566   C     0.29058   0.83331   0.25014   0.00000  Uiso   1.00
Cu567  Cu    0.16667   0.88022   0.25000   0.00000  Uiso   1.00
Cu568  Cu    0.16667   0.78645   0.25000   0.00000  Uiso   1.00
H569   H     0.06481   0.85931   0.45892   0.00000  Uiso   1.00
H570   H     0.21867   0.95634   0.29314   0.00000  Uiso   1.00
H571   H     0.21902   0.70975   0.29246   0.00000  Uiso   1.00
H572   H     0.11489   0.95674   0.20651   0.00000  Uiso   1.00
H573   H     0.23139   0.75846   0.35169   0.00000  Uiso   1.00
H574   H     0.24479   0.75193   0.40986   0.00000  Uiso   1.00
H575   H     0.30284   0.79207   0.33930   0.00000  Uiso   1.00
H576   H     0.31489   0.78000   0.39672   0.00000  Uiso   1.00
H577   H     0.30088   0.69447   0.38378   0.00000  Uiso   1.00
H578   H     0.00754   0.71686   0.34839   0.00000  Uiso   1.00
H579   H     0.28992   0.70710   0.32573   0.00000  Uiso   1.00
H580   H     0.27046   0.81464   0.04123   0.00000  Uiso   1.00
H581   H     0.06616   0.80890   0.16376   0.00000  Uiso   1.00
H582   H     0.09909   0.77483   0.12974   0.00000  Uiso   1.00
H583   H     0.01783   0.82132   0.09734   0.00000  Uiso   1.00
H584   H     0.04963   0.78135   0.06659   0.00000  Uiso   1.00
H585   H     0.03689   0.71900   0.12425   0.00000  Uiso   1.00
H586   H     0.32347   0.73961   0.09754   0.00000  Uiso   1.00
H587   H     0.00317   0.75908   0.15288   0.00000  Uiso   1.00
H588   H     0.07742   0.88110   0.38986   0.00000  Uiso   1.00
H589   H     0.05747   0.79590   0.40061   0.00000  Uiso   1.00
H590   H     0.08756   0.78556   0.35134   0.00000  Uiso   1.00
H591   H     0.06539   0.86063   0.03841   0.00000  Uiso   1.00
H592   H     0.04272   0.82255   0.34824   0.00000  Uiso   1.00
H593   H     0.25747   0.78819   0.10937   0.00000  Uiso   1.00
H594   H     0.27668   0.87369   0.10088   0.00000  Uiso   1.00
H595   H     0.29129   0.84612   0.15277   0.00000  Uiso   1.00
H596   H     0.24601   0.88251   0.15003   0.00000  Uiso   1.00
H597   H     0.27030   0.81534   0.46171   0.00000  Uiso   1.00
H598   H     0.03728   0.75779   0.24461   0.00000  Uiso   1.00
H599   H     0.29603   0.90880   0.25630   0.00000  Uiso   1.00
H600   H     0.29594   0.75782   0.24393   0.00000  Uiso   1.00
H601   H     0.03739   0.90880   0.25652   0.00000  Uiso   1.00
H602   H     0.11482   0.71035   0.20659   0.00000  Uiso   1.00
N603   N     0.16667   0.95069   0.25000   0.00000  Uiso   1.00
N604   N     0.16667   0.71598   0.25000   0.00000  Uiso   1.00
N605   N     0.09419   0.85252   0.37977   0.00000  Uiso   1.00
N606   N     0.24028   0.81611   0.12024   0.00000  Uiso   1.00
O607   O     0.10655   0.87291   0.25000   0.00000  Uiso   1.00
O608   O     0.09303   0.84787   0.11501   0.00000  Uiso   1.00
O609   O     0.22679   0.79375   0.25001   0.00000  Uiso   1.00
O610   O     0.22679   0.87291   0.25001   0.00000  Uiso   1.00
O611   O     0.10655   0.79375   0.25000   0.00000  Uiso   1.00
O612   O     0.16666   0.87293   0.18513   0.00000  Uiso   1.00
O613   O     0.16668   0.79373   0.31487   0.00000  Uiso   1.00
O614   O     0.16668   0.87293   0.31487   0.00000  Uiso   1.00
O615   O     0.16666   0.79373   0.18513   0.00000  Uiso   1.00
O616   O     0.24091   0.82086   0.38462   0.00000  Uiso   1.00
C617   C     0.42070   0.83334   0.25041   0.00000  Uiso   1.00
C618   C     0.37608   0.83331   0.25059   0.00000  Uiso   1.00
C619   C     0.47119   0.69159   0.22594   0.00000  Uiso   1.00
C620   C     0.52887   0.97507   0.27392   0.00000  Uiso   1.00
C621   C     0.52896   0.69130   0.27375   0.00000  Uiso   1.00
C622   C     0.47123   0.97532   0.22589   0.00000  Uiso   1.00
C623   C     0.49963   0.83340   0.16454   0.00000  Uiso   1.00
C624   C     0.50094   0.83327   0.33547   0.00000  Uiso   1.00
C625   C     0.53758   0.82507   0.40729   0.00000  Uiso   1.00
C626   C     0.46294   0.84083   0.09266   0.00000  Uiso   1.00
C627   C     0.50069   0.83320   0.38366   0.00000  Uiso   1.00
C628   C     0.57930   0.83332   0.25008   0.00000  Uiso   1.00
C629   C     0.50000   0.83351   0.11638   0.00000  Uiso   1.00
C630   C     0.46376   0.84283   0.40558   0.00000  Uiso   1.00
C631   C     0.53730   0.82572   0.09449   0.00000  Uiso   1.00
C632   C     0.46352   0.84360   0.45244   0.00000  Uiso   1.00
C633   C     0.53778   0.82635   0.04764   0.00000  Uiso   1.00
C634   C     0.50061   0.83493   0.47656   0.00000  Uiso   1.00
C635   C     0.50064   0.83476   0.02351   0.00000  Uiso   1.00
C636   C     0.53775   0.82667   0.45389   0.00000  Uiso   1.00
C637   C     0.46347   0.84296   0.04616   0.00000  Uiso   1.00
C638   C     0.42719   0.85264   0.47578   0.00000  Uiso   1.00
C639   C     0.42732   0.85284   0.02189   0.00000  Uiso   1.00
C640   C     0.57454   0.81987   0.02431   0.00000  Uiso   1.00
C641   C     0.58372   0.77298   0.37921   0.00000  Uiso   1.00
C642   C     0.62923   0.76865   0.36772   0.00000  Uiso   1.00
C643   C     0.64079   0.71857   0.35570   0.00000  Uiso   1.00
C644   C     0.40986   0.80439   0.12917   0.00000  Uiso   1.00
C645   C     0.37250   0.79100   0.10033   0.00000  Uiso   1.00
C646   C     0.34933   0.74956   0.12011   0.00000  Uiso   1.00
C647   C     0.40260   0.81191   0.36959   0.00000  Uiso   1.00
C648   C     0.59806   0.85683   0.13143   0.00000  Uiso   1.00
C649   C     0.57453   0.82033   0.47820   0.00000  Uiso   1.00
C650   C     0.35460   0.79091   0.24723   0.00000  Uiso   1.00
C651   C     0.64539   0.87568   0.25363   0.00000  Uiso   1.00
C652   C     0.64533   0.79093   0.24675   0.00000  Uiso   1.00
C653   C     0.35466   0.87569   0.25379   0.00000  Uiso   1.00
C654   C     0.62391   0.83331   0.25014   0.00000  Uiso   1.00
Cu655  Cu    0.50000   0.88022   0.25000   0.00000  Uiso   1.00
Cu656  Cu    0.50000   0.78645   0.25000   0.00000  Uiso   1.00
H657   H     0.39815   0.85931   0.45892   0.00000  Uiso   1.00
H658   H     0.55201   0.95634   0.29314   0.00000  Uiso   1.00
H659   H     0.55235   0.70975   0.29246   0.00000  Uiso   1.00
H660   H     0.44822   0.95674   0.20651   0.00000  Uiso   1.00
H661   H     0.56472   0.75846   0.35169   0.00000  Uiso   1.00
H662   H     0.57812   0.75193   0.40986   0.00000  Uiso   1.00
H663   H     0.63617   0.79207   0.33930   0.00000  Uiso   1.00
H664   H     0.64822   0.78000   0.39672   0.00000  Uiso   1.00
H665   H     0.63421   0.69447   0.38378   0.00000  Uiso   1.00
H666   H     0.34087   0.71686   0.34839   0.00000  Uiso   1.00
H667   H     0.62325   0.70710   0.32573   0.00000  Uiso   1.00
H668   H     0.60380   0.81464   0.04123   0.00000  Uiso   1.00
H669   H     0.39949   0.80890   0.16376   0.00000  Uiso   1.00
H670   H     0.43242   0.77483   0.12974   0.00000  Uiso   1.00
H671   H     0.35116   0.82132   0.09734   0.00000  Uiso   1.00
H672   H     0.38296   0.78135   0.06659   0.00000  Uiso   1.00
H673   H     0.37022   0.71900   0.12425   0.00000  Uiso   1.00
H674   H     0.65681   0.73961   0.09754   0.00000  Uiso   1.00
H675   H     0.33650   0.75908   0.15288   0.00000  Uiso   1.00
H676   H     0.41075   0.88110   0.38986   0.00000  Uiso   1.00
H677   H     0.39081   0.79590   0.40061   0.00000  Uiso   1.00
H678   H     0.42089   0.78556   0.35134   0.00000  Uiso   1.00
H679   H     0.39873   0.86063   0.03841   0.00000  Uiso   1.00
H680   H     0.37605   0.82255   0.34824   0.00000  Uiso   1.00
H681   H     0.59080   0.78819   0.10937   0.00000  Uiso   1.00
H682   H     0.61001   0.87369   0.10088   0.00000  Uiso   1.00
H683   H     0.62462   0.84612   0.15277   0.00000  Uiso   1.00
H684   H     0.57935   0.88251   0.15003   0.00000  Uiso   1.00
H685   H     0.60364   0.81534   0.46171   0.00000  Uiso   1.00
H686   H     0.37062   0.75779   0.24461   0.00000  Uiso   1.00
H687   H     0.62937   0.90880   0.25630   0.00000  Uiso   1.00
H688   H     0.62927   0.75782   0.24393   0.00000  Uiso   1.00
H689   H     0.37072   0.90880   0.25652   0.00000  Uiso   1.00
H690   H     0.44816   0.71035   0.20659   0.00000  Uiso   1.00
N691   N     0.50000   0.95069   0.25000   0.00000  Uiso   1.00
N692   N     0.50000   0.71598   0.25000   0.00000  Uiso   1.00
N693   N     0.42753   0.85252   0.37977   0.00000  Uiso   1.00
N694   N     0.57362   0.81611   0.12024   0.00000  Uiso   1.00
O695   O     0.43988   0.87291   0.25000   0.00000  Uiso   1.00
O696   O     0.42636   0.84787   0.11501   0.00000  Uiso   1.00
O697   O     0.56012   0.79375   0.25001   0.00000  Uiso   1.00
O698   O     0.56012   0.87291   0.25001   0.00000  Uiso   1.00
O699   O     0.43988   0.79375   0.25000   0.00000  Uiso   1.00
O700   O     0.49999   0.87293   0.18513   0.00000  Uiso   1.00
O701   O     0.50001   0.79373   0.31487   0.00000  Uiso   1.00
O702   O     0.50001   0.87293   0.31487   0.00000  Uiso   1.00
O703   O     0.49999   0.79373   0.18513   0.00000  Uiso   1.00
O704   O     0.57424   0.82086   0.38462   0.00000  Uiso   1.00
C705   C     0.75404   0.83334   0.25041   0.00000  Uiso   1.00
C706   C     0.70941   0.83331   0.25059   0.00000  Uiso   1.00
C707   C     0.80453   0.69159   0.22594   0.00000  Uiso   1.00
C708   C     0.86220   0.97507   0.27392   0.00000  Uiso   1.00
C709   C     0.86229   0.69130   0.27375   0.00000  Uiso   1.00
C710   C     0.80456   0.97532   0.22589   0.00000  Uiso   1.00
C711   C     0.83296   0.83340   0.16454   0.00000  Uiso   1.00
C712   C     0.83427   0.83327   0.33547   0.00000  Uiso   1.00
C713   C     0.87091   0.82507   0.40729   0.00000  Uiso   1.00
C714   C     0.79628   0.84083   0.09266   0.00000  Uiso   1.00
C715   C     0.83402   0.83320   0.38366   0.00000  Uiso   1.00
C716   C     0.91264   0.83332   0.25008   0.00000  Uiso   1.00
C717   C     0.83334   0.83351   0.11638   0.00000  Uiso   1.00
C718   C     0.79709   0.84283   0.40558   0.00000  Uiso   1.00
C719   C     0.87064   0.82572   0.09449   0.00000  Uiso   1.00
C720   C     0.79685   0.84360   0.45244   0.00000  Uiso   1.00
C721   C     0.87111   0.82635   0.04764   0.00000  Uiso   1.00
C722   C     0.83394   0.83493   0.47656   0.00000  Uiso   1.00
C723   C     0.83397   0.83476   0.02351   0.00000  Uiso   1.00
C724   C     0.87109   0.82667   0.45389   0.00000  Uiso   1.00
C725   C     0.79680   0.84296   0.04616   0.00000  Uiso   1.00
C726   C     0.76052   0.85264   0.47578   0.00000  Uiso   1.00
C727   C     0.76065   0.85284   0.02189   0.00000  Uiso   1.00
C728   C     0.90788   0.81987   0.02431   0.00000  Uiso   1.00
C729   C     0.91705   0.77298   0.37921   0.00000  Uiso   1.00
C730   C     0.96257   0.76865   0.36772   0.00000  Uiso   1.00
C731   C     0.97412   0.71857   0.35570   0.00000  Uiso   1.00
C732   C     0.74320   0.80439   0.12917   0.00000  Uiso   1.00
C733   C     0.70584   0.79100   0.10033   0.00000  Uiso   1.00
C734   C     0.68266   0.74956   0.12011   0.00000  Uiso   1.00
C735   C     0.73593   0.81191   0.36959   0.00000  Uiso   1.00
C736   C     0.93140   0.85683   0.13143   0.00000  Uiso   1.00
C737   C     0.90787   0.82033   0.47820   0.00000  Uiso   1.00
C738   C     0.68793   0.79091   0.24723   0.00000  Uiso   1.00
C739   C     0.97872   0.87568   0.25363   0.00000  Uiso   1.00
C740   C     0.97867   0.79093   0.24675   0.00000  Uiso   1.00
C741   C     0.68799   0.87569   0.25379   0.00000  Uiso   1.00
C742   C     0.95725   0.83331   0.25014   0.00000  Uiso   1.00
Cu743  Cu    0.83333   0.88022   0.25000   0.00000  Uiso   1.00
Cu744  Cu    0.83333   0.78645   0.25000   0.00000  Uiso   1.00
H745   H     0.73148   0.85931   0.45892   0.00000  Uiso   1.00
H746   H     0.88534   0.95634   0.29314   0.00000  Uiso   1.00
H747   H     0.88568   0.70975   0.29246   0.00000  Uiso   1.00
H748   H     0.78155   0.95674   0.20651   0.00000  Uiso   1.00
H749   H     0.89805   0.75846   0.35169   0.00000  Uiso   1.00
H750   H     0.91145   0.75193   0.40986   0.00000  Uiso   1.00
H751   H     0.96950   0.79207   0.33930   0.00000  Uiso   1.00
H752   H     0.98156   0.78000   0.39672   0.00000  Uiso   1.00
H753   H     0.96755   0.69447   0.38378   0.00000  Uiso   1.00
H754   H     0.67420   0.71686   0.34839   0.00000  Uiso   1.00
H755   H     0.95658   0.70710   0.32573   0.00000  Uiso   1.00
H756   H     0.93713   0.81464   0.04123   0.00000  Uiso   1.00
H757   H     0.73282   0.80890   0.16376   0.00000  Uiso   1.00
H758   H     0.76576   0.77483   0.12974   0.00000  Uiso   1.00
H759   H     0.68450   0.82132   0.09734   0.00000  Uiso   1.00
H760   H     0.71629   0.78135   0.06659   0.00000  Uiso   1.00
H761   H     0.70356   0.71900   0.12425   0.00000  Uiso   1.00
H762   H     0.99014   0.73961   0.09754   0.00000  Uiso   1.00
H763   H     0.66984   0.75908   0.15288   0.00000  Uiso   1.00
H764   H     0.74408   0.88110   0.38986   0.00000  Uiso   1.00
H765   H     0.72414   0.79590   0.40061   0.00000  Uiso   1.00
H766   H     0.75423   0.78556   0.35134   0.00000  Uiso   1.00
H767   H     0.73206   0.86063   0.03841   0.00000  Uiso   1.00
H768   H     0.70938   0.82255   0.34824   0.00000  Uiso   1.00
H769   H     0.92414   0.78819   0.10937   0.00000  Uiso   1.00
H770   H     0.94335   0.87369   0.10088   0.00000  Uiso   1.00
H771   H     0.95796   0.84612   0.15277   0.00000  Uiso   1.00
H772   H     0.91268   0.88251   0.15003   0.00000  Uiso   1.00
H773   H     0.93697   0.81534   0.46171   0.00000  Uiso   1.00
H774   H     0.70395   0.75779   0.24461   0.00000  Uiso   1.00
H775   H     0.96270   0.90880   0.25630   0.00000  Uiso   1.00
H776   H     0.96261   0.75782   0.24393   0.00000  Uiso   1.00
H777   H     0.70405   0.90880   0.25652   0.00000  Uiso   1.00
H778   H     0.78149   0.71035   0.20659   0.00000  Uiso   1.00
N779   N     0.83333   0.95069   0.25000   0.00000  Uiso   1.00
N780   N     0.83333   0.71598   0.25000   0.00000  Uiso   1.00
N781   N     0.76086   0.85252   0.37977   0.00000  Uiso   1.00
N782   N     0.90695   0.81611   0.12024   0.00000  Uiso   1.00
O783   O     0.77321   0.87291   0.25000   0.00000  Uiso   1.00
O784   O     0.75969   0.84787   0.11501   0.00000  Uiso   1.00
O785   O     0.89345   0.79375   0.25001   0.00000  Uiso   1.00
O786   O     0.89345   0.87291   0.25001   0.00000  Uiso   1.00
O787   O     0.77321   0.79375   0.25000   0.00000  Uiso   1.00
O788   O     0.83332   0.87293   0.18513   0.00000  Uiso   1.00
O789   O     0.83334   0.79373   0.31487   0.00000  Uiso   1.00
O790   O     0.83334   0.87293   0.31487   0.00000  Uiso   1.00
O791   O     0.83332   0.79373   0.18513   0.00000  Uiso   1.00
O792   O     0.90757   0.82086   0.38462   0.00000  Uiso   1.00
C793   C     0.08737   0.16667   0.75041   0.00000  Uiso   1.00
C794   C     0.04274   0.16664   0.75059   0.00000  Uiso   1.00
C795   C     0.13786   0.02492   0.72594   0.00000  Uiso   1.00
C796   C     0.19554   0.30841   0.77392   0.00000  Uiso   1.00
C797   C     0.19562   0.02463   0.77375   0.00000  Uiso   1.00
C798   C     0.13789   0.30865   0.72589   0.00000  Uiso   1.00
C799   C     0.16630   0.16674   0.66454   0.00000  Uiso   1.00
C800   C     0.16760   0.16661   0.83547   0.00000  Uiso   1.00
C801   C     0.20425   0.15841   0.90729   0.00000  Uiso   1.00
C802   C     0.12961   0.17416   0.59266   0.00000  Uiso   1.00
C803   C     0.16735   0.16654   0.88366   0.00000  Uiso   1.00
C804   C     0.24597   0.16666   0.75008   0.00000  Uiso   1.00
C805   C     0.16667   0.16684   0.61638   0.00000  Uiso   1.00
C806   C     0.13042   0.17616   0.90558   0.00000  Uiso   1.00
C807   C     0.20397   0.15905   0.59449   0.00000  Uiso   1.00
C808   C     0.13019   0.17693   0.95244   0.00000  Uiso   1.00
C809   C     0.20444   0.15968   0.54764   0.00000  Uiso   1.00
C810   C     0.16727   0.16826   0.97656   0.00000  Uiso   1.00
C811   C     0.16730   0.16809   0.52351   0.00000  Uiso   1.00
C812   C     0.20442   0.16001   0.95389   0.00000  Uiso   1.00
C813   C     0.13013   0.17629   0.54616   0.00000  Uiso   1.00
C814   C     0.09385   0.18597   0.97578   0.00000  Uiso   1.00
C815   C     0.09399   0.18618   0.52189   0.00000  Uiso   1.00
C816   C     0.24121   0.15320   0.52431   0.00000  Uiso   1.00
C817   C     0.25039   0.10631   0.87921   0.00000  Uiso   1.00
C818   C     0.29590   0.10198   0.86772   0.00000  Uiso   1.00
C819   C     0.30745   0.05190   0.85570   0.00000  Uiso   1.00
C820   C     0.07653   0.13772   0.62917   0.00000  Uiso   1.00
C821   C     0.03917   0.12434   0.60033   0.00000  Uiso   1.00
C822   C     0.01600   0.08290   0.62011   0.00000  Uiso   1.00
C823   C     0.06927   0.14524   0.86959   0.00000  Uiso   1.00
C824   C     0.26473   0.19017   0.63143   0.00000  Uiso   1.00
C825   C     0.24120   0.15367   0.97820   0.00000  Uiso   1.00
C826   C     0.02127   0.12424   0.74723   0.00000  Uiso   1.00
C827   C     0.31206   0.20902   0.75363   0.00000  Uiso   1.00
C828   C     0.31200   0.12427   0.74675   0.00000  Uiso   1.00
C829   C     0.02132   0.20902   0.75379   0.00000  Uiso   1.00
C830   C     0.29058   0.16664   0.75014   0.00000  Uiso   1.00
Cu831  Cu    0.16667   0.21355   0.75000   0.00000  Uiso   1.00
Cu832  Cu    0.16667   0.11978   0.75000   0.00000  Uiso   1.00
H833   H     0.06481   0.19264   0.95892   0.00000  Uiso   1.00
H834   H     0.21867   0.28967   0.79314   0.00000  Uiso   1.00
H835   H     0.21902   0.04309   0.79246   0.00000  Uiso   1.00
H836   H     0.11489   0.29007   0.70651   0.00000  Uiso   1.00
H837   H     0.23139   0.09179   0.85169   0.00000  Uiso   1.00
H838   H     0.24479   0.08526   0.90986   0.00000  Uiso   1.00
H839   H     0.30284   0.12541   0.83930   0.00000  Uiso   1.00
H840   H     0.31489   0.11333   0.89672   0.00000  Uiso   1.00
H841   H     0.30088   0.02781   0.88378   0.00000  Uiso   1.00
H842   H     0.00754   0.05020   0.84839   0.00000  Uiso   1.00
H843   H     0.28992   0.04043   0.82573   0.00000  Uiso   1.00
H844   H     0.27046   0.14798   0.54123   0.00000  Uiso   1.00
H845   H     0.06616   0.14223   0.66376   0.00000  Uiso   1.00
H846   H     0.09909   0.10816   0.62974   0.00000  Uiso   1.00
H847   H     0.01783   0.15466   0.59734   0.00000  Uiso   1.00
H848   H     0.04963   0.11469   0.56659   0.00000  Uiso   1.00
H849   H     0.03689   0.05233   0.62425   0.00000  Uiso   1.00
H850   H     0.32347   0.07294   0.59754   0.00000  Uiso   1.00
H851   H     0.00317   0.09241   0.65288   0.00000  Uiso   1.00
H852   H     0.07742   0.21443   0.88986   0.00000  Uiso   1.00
H853   H     0.05747   0.12923   0.90061   0.00000  Uiso   1.00
H854   H     0.08756   0.11889   0.85134   0.00000  Uiso   1.00
H855   H     0.06539   0.19396   0.53841   0.00000  Uiso   1.00
H856   H     0.04272   0.15588   0.84824   0.00000  Uiso   1.00
H857   H     0.25747   0.12152   0.60937   0.00000  Uiso   1.00
H858   H     0.27668   0.20702   0.60088   0.00000  Uiso   1.00
H859   H     0.29129   0.17945   0.65277   0.00000  Uiso   1.00
H860   H     0.24601   0.21585   0.65003   0.00000  Uiso   1.00
H861   H     0.27030   0.14867   0.96171   0.00000  Uiso   1.00
H862   H     0.03728   0.09112   0.74461   0.00000  Uiso   1.00
H863   H     0.29603   0.24213   0.75630   0.00000  Uiso   1.00
H864   H     0.29594   0.09116   0.74393   0.00000  Uiso   1.00
H865   H     0.03739   0.24214   0.75652   0.00000  Uiso   1.00
H866   H     0.11482   0.04369   0.70659   0.00000  Uiso   1.00
N867   N     0.16667   0.28402   0.75000   0.00000  Uiso   1.00
N868   N     0.16667   0.04931   0.75000   0.00000  Uiso   1.00
N869   N     0.09419   0.18585   0.87977   0.00000  Uiso   1.00
N870   N     0.24028   0.14945   0.62024   0.00000  Uiso   1.00
O871   O     0.10655   0.20625   0.75000   0.00000  Uiso   1.00
O872   O     0.09303   0.18120   0.61501   0.00000  Uiso   1.00
O873   O     0.22679   0.12709   0.75001   0.00000  Uiso   1.00
O874   O     0.22679   0.20625   0.75001   0.00000  Uiso   1.00
O875   O     0.10655   0.12709   0.75000   0.00000  Uiso   1.00
O876   O     0.16666   0.20627   0.68513   0.00000  Uiso   1.00
O877   O     0.16668   0.12707   0.81487   0.00000  Uiso   1.00
O878   O     0.16668   0.20627   0.81487   0.00000  Uiso   1.00
O879   O     0.16666   0.12707   0.68513   0.00000  Uiso   1.00
O880   O     0.24091   0.15420   0.88462   0.00000  Uiso   1.00
C881   C     0.42070   0.16667   0.75041   0.00000  Uiso   1.00
C882   C     0.37608   0.16664   0.75059   0.00000  Uiso   1.00
C883   C     0.47119   0.02492   0.72594   0.00000  Uiso   1.00
C884   C     0.52887   0.30841   0.77392   0.00000  Uiso   1.00
C885   C     0.52896   0.02463   0.77375   0.00000  Uiso   1.00
C886   C     0.47123   0.30865   0.72589   0.00000  Uiso   1.00
C887   C     0.49963   0.16674   0.66454   0.00000  Uiso   1.00
C888   C     0.50094   0.16661   0.83547   0.00000  Uiso   1.00
C889   C     0.53758   0.15841   0.90729   0.00000  Uiso   1.00
C890   C     0.46294   0.17416   0.59266   0.00000  Uiso   1.00
C891   C     0.50069   0.16654   0.88366   0.00000  Uiso   1.00
C892   C     0.57930   0.16666   0.75008   0.00000  Uiso   1.00
C893   C     0.50000   0.16684   0.61638   0.00000  Uiso   1.00
C894   C     0.46376   0.17616   0.90558   0.00000  Uiso   1.00
C895   C     0.53730   0.15905   0.59449   0.00000  Uiso   1.00
C896   C     0.46352   0.17693   0.95244   0.00000  Uiso   1.00
C897   C     0.53778   0.15968   0.54764   0.00000  Uiso   1.00
C898   C     0.50061   0.16826   0.97656   0.00000  Uiso   1.00
C899   C     0.50064   0.16809   0.52351   0.00000  Uiso   1.00
C900   C     0.53775   0.16001   0.95389   0.00000  Uiso   1.00
C901   C     0.46347   0.17629   0.54616   0.00000  Uiso   1.00
C902   C     0.42719   0.18597   0.97578   0.00000  Uiso   1.00
C903   C     0.42732   0.18618   0.52189   0.00000  Uiso   1.00
C904   C     0.57454   0.15320   0.52431   0.00000  Uiso   1.00
C905   C     0.58372   0.10631   0.87921   0.00000  Uiso   1.00
C906   C     0.62923   0.10198   0.86772   0.00000  Uiso   1.00
C907   C     0.64079   0.05190   0.85570   0.00000  Uiso   1.00
C908   C     0.40986   0.13772   0.62917   0.00000  Uiso   1.00
C909   C     0.37250   0.12434   0.60033   0.00000  Uiso   1.00
C910   C     0.34933   0.08290   0.62011   0.00000  Uiso   1.00
C911   C     0.40260   0.14524   0.86959   0.00000  Uiso   1.00
C912   C     0.59806   0.19017   0.63143   0.00000  Uiso   1.00
C913   C     0.57453   0.15367   0.97820   0.00000  Uiso   1.00
C914   C     0.35460   0.12424   0.74723   0.00000  Uiso   1.00
C915   C     0.64539   0.20902   0.75363   0.00000  Uiso   1.00
C916   C     0.64533   0.12427   0.74675   0.00000  Uiso   1.00
C917   C     0.35466   0.20902   0.75379   0.00000  Uiso   1.00
C918   C     0.62391   0.16664   0.75014   0.00000  Uiso   1.00
Cu919  Cu    0.50000   0.21355   0.75000   0.00000  Uiso   1.00
Cu920  Cu    0.50000   0.11978   0.75000   0.00000  Uiso   1.00
H921   H     0.39815   0.19264   0.95892   0.00000  Uiso   1.00
H922   H     0.55201   0.28967   0.79314   0.00000  Uiso   1.00
H923   H     0.55235   0.04309   0.79246   0.00000  Uiso   1.00
H924   H     0.44822   0.29007   0.70651   0.00000  Uiso   1.00
H925   H     0.56472   0.09179   0.85169   0.00000  Uiso   1.00
H926   H     0.57812   0.08526   0.90986   0.00000  Uiso   1.00
H927   H     0.63617   0.12541   0.83930   0.00000  Uiso   1.00
H928   H     0.64822   0.11333   0.89672   0.00000  Uiso   1.00
H929   H     0.63421   0.02781   0.88378   0.00000  Uiso   1.00
H930   H     0.34087   0.05020   0.84839   0.00000  Uiso   1.00
H931   H     0.62325   0.04043   0.82573   0.00000  Uiso   1.00
H932   H     0.60380   0.14798   0.54123   0.00000  Uiso   1.00
H933   H     0.39949   0.14223   0.66376   0.00000  Uiso   1.00
H934   H     0.43242   0.10816   0.62974   0.00000  Uiso   1.00
H935   H     0.35116   0.15466   0.59734   0.00000  Uiso   1.00
H936   H     0.38296   0.11469   0.56659   0.00000  Uiso   1.00
H937   H     0.37022   0.05233   0.62425   0.00000  Uiso   1.00
H938   H     0.65681   0.07294   0.59754   0.00000  Uiso   1.00
H939   H     0.33650   0.09241   0.65288   0.00000  Uiso   1.00
H940   H     0.41075   0.21443   0.88986   0.00000  Uiso   1.00
H941   H     0.39081   0.12923   0.90061   0.00000  Uiso   1.00
H942   H     0.42089   0.11889   0.85134   0.00000  Uiso   1.00
H943   H     0.39873   0.19396   0.53841   0.00000  Uiso   1.00
H944   H     0.37605   0.15588   0.84824   0.00000  Uiso   1.00
H945   H     0.59080   0.12152   0.60937   0.00000  Uiso   1.00
H946   H     0.61001   0.20702   0.60088   0.00000  Uiso   1.00
H947   H     0.62462   0.17945   0.65277   0.00000  Uiso   1.00
H948   H     0.57935   0.21585   0.65003   0.00000  Uiso   1.00
H949   H     0.60364   0.14867   0.96171   0.00000  Uiso   1.00
H950   H     0.37062   0.09112   0.74461   0.00000  Uiso   1.00
H951   H     0.62937   0.24213   0.75630   0.00000  Uiso   1.00
H952   H     0.62927   0.09116   0.74393   0.00000  Uiso   1.00
H953   H     0.37072   0.24214   0.75652   0.00000  Uiso   1.00
H954   H     0.44816   0.04369   0.70659   0.00000  Uiso   1.00
N955   N     0.50000   0.28402   0.75000   0.00000  Uiso   1.00
N956   N     0.50000   0.04931   0.75000   0.00000  Uiso   1.00
N957   N     0.42753   0.18585   0.87977   0.00000  Uiso   1.00
N958   N     0.57362   0.14945   0.62024   0.00000  Uiso   1.00
O959   O     0.43988   0.20625   0.75000   0.00000  Uiso   1.00
O960   O     0.42636   0.18120   0.61501   0.00000  Uiso   1.00
O961   O     0.56012   0.12709   0.75001   0.00000  Uiso   1.00
O962   O     0.56012   0.20625   0.75001   0.00000  Uiso   1.00
O963   O     0.43988   0.12709   0.75000   0.00000  Uiso   1.00
O964   O     0.49999   0.20627   0.68513   0.00000  Uiso   1.00
O965   O     0.50001   0.12707   0.81487   0.00000  Uiso   1.00
O966   O     0.50001   0.20627   0.81487   0.00000  Uiso   1.00
O967   O     0.49999   0.12707   0.68513   0.00000  Uiso   1.00
O968   O     0.57424   0.15420   0.88462   0.00000  Uiso   1.00
C969   C     0.75404   0.16667   0.75041   0.00000  Uiso   1.00
C970   C     0.70941   0.16664   0.75059   0.00000  Uiso   1.00
C971   C     0.80453   0.02492   0.72594   0.00000  Uiso   1.00
C972   C     0.86220   0.30841   0.77392   0.00000  Uiso   1.00
C973   C     0.86229   0.02463   0.77375   0.00000  Uiso   1.00
C974   C     0.80456   0.30865   0.72589   0.00000  Uiso   1.00
C975   C     0.83296   0.16674   0.66454   0.00000  Uiso   1.00
C976   C     0.83427   0.16661   0.83547   0.00000  Uiso   1.00
C977   C     0.87091   0.15841   0.90729   0.00000  Uiso   1.00
C978   C     0.79628   0.17416   0.59266   0.00000  Uiso   1.00
C979   C     0.83402   0.16654   0.88366   0.00000  Uiso   1.00
C980   C     0.91264   0.16666   0.75008   0.00000  Uiso   1.00
C981   C     0.83334   0.16684   0.61638   0.00000  Uiso   1.00
C982   C     0.79709   0.17616   0.90558   0.00000  Uiso   1.00
C983   C     0.87064   0.15905   0.59449   0.00000  Uiso   1.00
C984   C     0.79685   0.17693   0.95244   0.00000  Uiso   1.00
C985   C     0.87111   0.15968   0.54764   0.00000  Uiso   1.00
C986   C     0.83394   0.16826   0.97656   0.00000  Uiso   1.00
C987   C     0.83397   0.16809   0.52351   0.00000  Uiso   1.00
C988   C     0.87109   0.16001   0.95389   0.00000  Uiso   1.00
C989   C     0.79680   0.17629   0.54616   0.00000  Uiso   1.00
C990   C     0.76052   0.18597   0.97578   0.00000  Uiso   1.00
C991   C     0.76065   0.18618   0.52189   0.00000  Uiso   1.00
C992   C     0.90788   0.15320   0.52431   0.00000  Uiso   1.00
C993   C     0.91705   0.10631   0.87921   0.00000  Uiso   1.00
C994   C     0.96257   0.10198   0.86772   0.00000  Uiso   1.00
C995   C     0.97412   0.05190   0.85570   0.00000  Uiso   1.00
C996   C     0.74320   0.13772   0.62917   0.00000  Uiso   1.00
C997   C     0.70584   0.12434   0.60033   0.00000  Uiso   1.00
C998   C     0.68266   0.08290   0.62011   0.00000  Uiso   1.00
C999   C     0.73593   0.14524   0.86959   0.00000  Uiso   1.00
C1000  C     0.93140   0.19017   0.63143   0.00000  Uiso   1.00
C1001  C     0.90787   0.15367   0.97820   0.00000  Uiso   1.00
C1002  C     0.68793   0.12424   0.74723   0.00000  Uiso   1.00
C1003  C     0.97872   0.20902   0.75363   0.00000  Uiso   1.00
C1004  C     0.97867   0.12427   0.74675   0.00000  Uiso   1.00
C1005  C     0.68799   0.20902   0.75379   0.00000  Uiso   1.00
C1006  C     0.95725   0.16664   0.75014   0.00000  Uiso   1.00
Cu1007 Cu    0.83333   0.21355   0.75000   0.00000  Uiso   1.00
Cu1008 Cu    0.83333   0.11978   0.75000   0.00000  Uiso   1.00
H1009  H     0.73148   0.19264   0.95892   0.00000  Uiso   1.00
H1010  H     0.88534   0.28967   0.79314   0.00000  Uiso   1.00
H1011  H     0.88568   0.04309   0.79246   0.00000  Uiso   1.00
H1012  H     0.78155   0.29007   0.70651   0.00000  Uiso   1.00
H1013  H     0.89805   0.09179   0.85169   0.00000  Uiso   1.00
H1014  H     0.91145   0.08526   0.90986   0.00000  Uiso   1.00
H1015  H     0.96950   0.12541   0.83930   0.00000  Uiso   1.00
H1016  H     0.98156   0.11333   0.89672   0.00000  Uiso   1.00
H1017  H     0.96755   0.02781   0.88378   0.00000  Uiso   1.00
H1018  H     0.67420   0.05020   0.84839   0.00000  Uiso   1.00
H1019  H     0.95658   0.04043   0.82573   0.00000  Uiso   1.00
H1020  H     0.93713   0.14798   0.54123   0.00000  Uiso   1.00
H1021  H     0.73282   0.14223   0.66376   0.00000  Uiso   1.00
H1022  H     0.76576   0.10816   0.62974   0.00000  Uiso   1.00
H1023  H     0.68450   0.15466   0.59734   0.00000  Uiso   1.00
H1024  H     0.71629   0.11469   0.56659   0.00000  Uiso   1.00
H1025  H     0.70356   0.05233   0.62425   0.00000  Uiso   1.00
H1026  H     0.99014   0.07294   0.59754   0.00000  Uiso   1.00
H1027  H     0.66984   0.09241   0.65288   0.00000  Uiso   1.00
H1028  H     0.74408   0.21443   0.88986   0.00000  Uiso   1.00
H1029  H     0.72414   0.12923   0.90061   0.00000  Uiso   1.00
H1030  H     0.75423   0.11889   0.85134   0.00000  Uiso   1.00
H1031  H     0.73206   0.19396   0.53841   0.00000  Uiso   1.00
H1032  H     0.70938   0.15588   0.84824   0.00000  Uiso   1.00
H1033  H     0.92414   0.12152   0.60937   0.00000  Uiso   1.00
H1034  H     0.94335   0.20702   0.60088   0.00000  Uiso   1.00
H1035  H     0.95796   0.17945   0.65277   0.00000  Uiso   1.00
H1036  H     0.91268   0.21585   0.65003   0.00000  Uiso   1.00
H1037  H     0.93697   0.14867   0.96171   0.00000  Uiso   1.00
H1038  H     0.70395   0.09112   0.74461   0.00000  Uiso   1.00
H1039  H     0.96270   0.24213   0.75630   0.00000  Uiso   1.00
H1040  H     0.96261   0.09116   0.74393   0.00000  Uiso   1.00
H1041  H     0.70405   0.24214   0.75652   0.00000  Uiso   1.00
H1042  H     0.78149   0.04369   0.70659   0.00000  Uiso   1.00
N1043  N     0.83333   0.28402   0.75000   0.00000  Uiso   1.00
N1044  N     0.83333   0.04931   0.75000   0.00000  Uiso   1.00
N1045  N     0.76086   0.18585   0.87977   0.00000  Uiso   1.00
N1046  N     0.90695   0.14945   0.62024   0.00000  Uiso   1.00
O1047  O     0.77321   0.20625   0.75000   0.00000  Uiso   1.00
O1048  O     0.75969   0.18120   0.61501   0.00000  Uiso   1.00
O1049  O     0.89345   0.12709   0.75001   0.00000  Uiso   1.00
O1050  O     0.89345   0.20625   0.75001   0.00000  Uiso   1.00
O1051  O     0.77321   0.12709   0.75000   0.00000  Uiso   1.00
O1052  O     0.83332   0.20627   0.68513   0.00000  Uiso   1.00
O1053  O     0.83334   0.12707   0.81487   0.00000  Uiso   1.00
O1054  O     0.83334   0.20627   0.81487   0.00000  Uiso   1.00
O1055  O     0.83332   0.12707   0.68513   0.00000  Uiso   1.00
O1056  O     0.90757   0.15420   0.88462   0.00000  Uiso   1.00
C1057  C     0.08737   0.50000   0.75041   0.00000  Uiso   1.00
C1058  C     0.04274   0.49998   0.75059   0.00000  Uiso   1.00
C1059  C     0.13786   0.35826   0.72594   0.00000  Uiso   1.00
C1060  C     0.19554   0.64174   0.77392   0.00000  Uiso   1.00
C1061  C     0.19562   0.35797   0.77375   0.00000  Uiso   1.00
C1062  C     0.13789   0.64198   0.72589   0.00000  Uiso   1.00
C1063  C     0.16630   0.50007   0.66454   0.00000  Uiso   1.00
C1064  C     0.16760   0.49994   0.83547   0.00000  Uiso   1.00
C1065  C     0.20425   0.49174   0.90729   0.00000  Uiso   1.00
C1066  C     0.12961   0.50749   0.59266   0.00000  Uiso   1.00
C1067  C     0.16735   0.49987   0.88366   0.00000  Uiso   1.00
C1068  C     0.24597   0.49999   0.75008   0.00000  Uiso   1.00
C1069  C     0.16667   0.50017   0.61638   0.00000  Uiso   1.00
C1070  C     0.13042   0.50950   0.90558   0.00000  Uiso   1.00
C1071  C     0.20397   0.49239   0.59449   0.00000  Uiso   1.00
C1072  C     0.13019   0.51027   0.95244   0.00000  Uiso   1.00
C1073  C     0.20444   0.49302   0.54764   0.00000  Uiso   1.00
C1074  C     0.16727   0.50160   0.97656   0.00000  Uiso   1.00
C1075  C     0.16730   0.50142   0.52351   0.00000  Uiso   1.00
C1076  C     0.20442   0.49334   0.95389   0.00000  Uiso   1.00
C1077  C     0.13013   0.50963   0.54616   0.00000  Uiso   1.00
C1078  C     0.09385   0.51930   0.97578   0.00000  Uiso   1.00
C1079  C     0.09399   0.51951   0.52189   0.00000  Uiso   1.00
C1080  C     0.24121   0.48653   0.52431   0.00000  Uiso   1.00
C1081  C     0.25039   0.43964   0.87921   0.00000  Uiso   1.00
C1082  C     0.29590   0.43532   0.86772   0.00000  Uiso   1.00
C1083  C     0.30745   0.38523   0.85570   0.00000  Uiso   1.00
C1084  C     0.07653   0.47105   0.62917   0.00000  Uiso   1.00
C1085  C     0.03917   0.45767   0.60033   0.00000  Uiso   1.00
C1086  C     0.01600   0.41623   0.62011   0.00000  Uiso   1.00
C1087  C     0.06927   0.47858   0.86959   0.00000  Uiso   1.00
C1088  C     0.26473   0.52350   0.63143   0.00000  Uiso   1.00
C1089  C     0.24120   0.48700   0.97820   0.00000  Uiso   1.00
C1090  C     0.02127   0.45758   0.74723   0.00000  Uiso   1.00
C1091  C     0.31206   0.54235   0.75363   0.00000  Uiso   1.00
C1092  C     0.31200   0.45760   0.74675   0.00000  Uiso   1.00
C1093  C     0.02132   0.54235   0.75379   0.00000  Uiso   1.00
C1094  C     0.29058   0.49998   0.75014   0.00000  Uiso   1.00
Cu1095 Cu    0.16667   0.54689   0.75000   0.00000  Uiso   1.00
Cu1096 Cu    0.16667   0.45311   0.75000   0.00000  Uiso   1.00
H1097  H     0.06481   0.52597   0.95892   0.00000  Uiso   1.00
H1098  H     0.21867   0.62301   0.79314   0.00000  Uiso   1.00
H1099  H     0.21902   0.37642   0.79246   0.00000  Uiso   1.00
H1100  H     0.11489   0.62341   0.70651   0.00000  Uiso   1.00
H1101  H     0.23139   0.42513   0.85169   0.00000  Uiso   1.00
H1102  H     0.24479   0.41859   0.90986   0.00000  Uiso   1.00
H1103  H     0.30284   0.45874   0.83930   0.00000  Uiso   1.00
H1104  H     0.31489   0.44667   0.89672   0.00000  Uiso   1.00
H1105  H     0.30088   0.36114   0.88378   0.00000  Uiso   1.00
H1106  H     0.00754   0.38353   0.84839   0.00000  Uiso   1.00
H1107  H     0.28992   0.37377   0.82573   0.00000  Uiso   1.00
H1108  H     0.27046   0.48131   0.54123   0.00000  Uiso   1.00
H1109  H     0.06616   0.47556   0.66376   0.00000  Uiso   1.00
H1110  H     0.09909   0.44150   0.62974   0.00000  Uiso   1.00
H1111  H     0.01783   0.48799   0.59734   0.00000  Uiso   1.00
H1112  H     0.04963   0.44802   0.56659   0.00000  Uiso   1.00
H1113  H     0.03689   0.38567   0.62425   0.00000  Uiso   1.00
H1114  H     0.32347   0.40627   0.59754   0.00000  Uiso   1.00
H1115  H     0.00317   0.42575   0.65288   0.00000  Uiso   1.00
H1116  H     0.07742   0.54777   0.88986   0.00000  Uiso   1.00
H1117  H     0.05747   0.46257   0.90061   0.00000  Uiso   1.00
H1118  H     0.08756   0.45222   0.85134   0.00000  Uiso   1.00
H1119  H     0.06539   0.52729   0.53841   0.00000  Uiso   1.00
H1120  H     0.04272   0.48921   0.84824   0.00000  Uiso   1.00
H1121  H     0.25747   0.45485   0.60937   0.00000  Uiso   1.00
H1122  H     0.27668   0.54035   0.60088   0.00000  Uiso   1.00
H1123  H     0.29129   0.51278   0.65277   0.00000  Uiso   1.00
H1124  H     0.24601   0.54918   0.65003   0.00000  Uiso   1.00
H1125  H     0.27030   0.48200   0.96171   0.00000  Uiso   1.00
H1126  H     0.03728   0.42446   0.74461   0.00000  Uiso   1.00
H1127  H     0.29603   0.57547   0.75630   0.00000  Uiso   1.00
H1128  H     0.29594   0.42449   0.74393   0.00000  Uiso   1.00
H1129  H     0.03739   0.57547   0.75652   0.00000  Uiso   1.00
H1130  H     0.11482   0.37702   0.70659   0.00000  Uiso   1.00
N1131  N     0.16667   0.61736   0.75000   0.00000  Uiso   1.00
N1132  N     0.16667   0.38264   0.75000   0.00000  Uiso   1.00
N1133  N     0.09419   0.51918   0.87977   0.00000  Uiso   1.00
N1134  N     0.24028   0.48278   0.62024   0.00000  Uiso   1.00
O1135  O     0.10655   0.53958   0.75000   0.00000  Uiso   1.00
O1136  O     0.09303   0.51454   0.61501   0.00000  Uiso   1.00
O1137  O     0.22679   0.46042   0.75001   0.00000  Uiso   1.00
O1138  O     0.22679   0.53958   0.75001   0.00000  Uiso   1.00
O1139  O     0.10655   0.46042   0.75000   0.00000  Uiso   1.00
O1140  O     0.16666   0.53960   0.68513   0.00000  Uiso   1.00
O1141  O     0.16668   0.46040   0.81487   0.00000  Uiso   1.00
O1142  O     0.16668   0.53960   0.81487   0.00000  Uiso   1.00
O1143  O     0.16666   0.46040   0.68513   0.00000  Uiso   1.00
O1144  O     0.24091   0.48753   0.88462   0.00000  Uiso   1.00
C1145  C     0.42070   0.50000   0.75041   0.00000  Uiso   1.00
C1146  C     0.37608   0.49998   0.75059   0.00000  Uiso   1.00
C1147  C     0.47119   0.35826   0.72594   0.00000  Uiso   1.00
C1148  C     0.52887   0.64174   0.77392   0.00000  Uiso   1.00
C1149  C     0.52896   0.35797   0.77375   0.00000  Uiso   1.00
C1150  C     0.47123   0.64198   0.72589   0.00000  Uiso   1.00
C1151  C     0.49963   0.50007   0.66454   0.00000  Uiso   1.00
C1152  C     0.50094   0.49994   0.83547   0.00000  Uiso   1.00
C1153  C     0.53758   0.49174   0.90729   0.00000  Uiso   1.00
C1154  C     0.46294   0.50749   0.59266   0.00000  Uiso   1.00
C1155  C     0.50069   0.49987   0.88366   0.00000  Uiso   1.00
C1156  C     0.57930   0.49999   0.75008   0.00000  Uiso   1.00
C1157  C     0.50000   0.50017   0.61638   0.00000  Uiso   1.00
C1158  C     0.46376   0.50950   0.90558   0.00000  Uiso   1.00
C1159  C     0.53730   0.49239   0.59449   0.00000  Uiso   1.00
C1160  C     0.46352   0.51027   0.95244   0.00000  Uiso   1.00
C1161  C     0.53778   0.49302   0.54764   0.00000  Uiso   1.00
C1162  C     0.50061   0.50160   0.97656   0.00000  Uiso   1.00
C1163  C     0.50064   0.50142   0.52351   0.00000  Uiso   1.00
C1164  C     0.53775   0.49334   0.95389   0.00000  Uiso   1.00
C1165  C     0.46347   0.50963   0.54616   0.00000  Uiso   1.00
C1166  C     0.42719   0.51930   0.97578   0.00000  Uiso   1.00
C1167  C     0.42732   0.51951   0.52189   0.00000  Uiso   1.00
C1168  C     0.57454   0.48653   0.52431   0.00000  Uiso   1.00
C1169  C     0.58372   0.43964   0.87921   0.00000  Uiso   1.00
C1170  C     0.62923   0.43532   0.86772   0.00000  Uiso   1.00
C1171  C     0.64079   0.38523   0.85570   0.00000  Uiso   1.00
C1172  C     0.40986   0.47105   0.62917   0.00000  Uiso   1.00
C1173  C     0.37250   0.45767   0.60033   0.00000  Uiso   1.00
C1174  C     0.34933   0.41623   0.62011   0.00000  Uiso   1.00
C1175  C     0.40260   0.47858   0.86959   0.00000  Uiso   1.00
C1176  C     0.59806   0.52350   0.63143   0.00000  Uiso   1.00
C1177  C     0.57453   0.48700   0.97820   0.00000  Uiso   1.00
C1178  C     0.35460   0.45758   0.74723   0.00000  Uiso   1.00
C1179  C     0.64539   0.54235   0.75363   0.00000  Uiso   1.00
C1180  C     0.64533   0.45760   0.74675   0.00000  Uiso   1.00
C1181  C     0.35466   0.54235   0.75379   0.00000  Uiso   1.00
C1182  C     0.62391   0.49998   0.75014   0.00000  Uiso   1.00
Cu1183 Cu    0.50000   0.54689   0.75000   0.00000  Uiso   1.00
Cu1184 Cu    0.50000   0.45311   0.75000   0.00000  Uiso   1.00
H1185  H     0.39815   0.52597   0.95892   0.00000  Uiso   1.00
H1186  H     0.55201   0.62301   0.79314   0.00000  Uiso   1.00
H1187  H     0.55235   0.37642   0.79246   0.00000  Uiso   1.00
H1188  H     0.44822   0.62341   0.70651   0.00000  Uiso   1.00
H1189  H     0.56472   0.42513   0.85169   0.00000  Uiso   1.00
H1190  H     0.57812   0.41859   0.90986   0.00000  Uiso   1.00
H1191  H     0.63617   0.45874   0.83930   0.00000  Uiso   1.00
H1192  H     0.64822   0.44667   0.89672   0.00000  Uiso   1.00
H1193  H     0.63421   0.36114   0.88378   0.00000  Uiso   1.00
H1194  H     0.34087   0.38353   0.84839   0.00000  Uiso   1.00
H1195  H     0.62325   0.37377   0.82573   0.00000  Uiso   1.00
H1196  H     0.60380   0.48131   0.54123   0.00000  Uiso   1.00
H1197  H     0.39949   0.47556   0.66376   0.00000  Uiso   1.00
H1198  H     0.43242   0.44150   0.62974   0.00000  Uiso   1.00
H1199  H     0.35116   0.48799   0.59734   0.00000  Uiso   1.00
H1200  H     0.38296   0.44802   0.56659   0.00000  Uiso   1.00
H1201  H     0.37022   0.38567   0.62425   0.00000  Uiso   1.00
H1202  H     0.65681   0.40627   0.59754   0.00000  Uiso   1.00
H1203  H     0.33650   0.42575   0.65288   0.00000  Uiso   1.00
H1204  H     0.41075   0.54777   0.88986   0.00000  Uiso   1.00
H1205  H     0.39081   0.46257   0.90061   0.00000  Uiso   1.00
H1206  H     0.42089   0.45222   0.85134   0.00000  Uiso   1.00
H1207  H     0.39873   0.52729   0.53841   0.00000  Uiso   1.00
H1208  H     0.37605   0.48921   0.84824   0.00000  Uiso   1.00
H1209  H     0.59080   0.45485   0.60937   0.00000  Uiso   1.00
H1210  H     0.61001   0.54035   0.60088   0.00000  Uiso   1.00
H1211  H     0.62462   0.51278   0.65277   0.00000  Uiso   1.00
H1212  H     0.57935   0.54918   0.65003   0.00000  Uiso   1.00
H1213  H     0.60364   0.48200   0.96171   0.00000  Uiso   1.00
H1214  H     0.37062   0.42446   0.74461   0.00000  Uiso   1.00
H1215  H     0.62937   0.57547   0.75630   0.00000  Uiso   1.00
H1216  H     0.62927   0.42449   0.74393   0.00000  Uiso   1.00
H1217  H     0.37072   0.57547   0.75652   0.00000  Uiso   1.00
H1218  H     0.44816   0.37702   0.70659   0.00000  Uiso   1.00
N1219  N     0.50000   0.61736   0.75000   0.00000  Uiso   1.00
N1220  N     0.50000   0.38264   0.75000   0.00000  Uiso   1.00
N1221  N     0.42753   0.51918   0.87977   0.00000  Uiso   1.00
N1222  N     0.57362   0.48278   0.62024   0.00000  Uiso   1.00
O1223  O     0.43988   0.53958   0.75000   0.00000  Uiso   1.00
O1224  O     0.42636   0.51454   0.61501   0.00000  Uiso   1.00
O1225  O     0.56012   0.46042   0.75001   0.00000  Uiso   1.00
O1226  O     0.56012   0.53958   0.75001   0.00000  Uiso   1.00
O1227  O     0.43988   0.46042   0.75000   0.00000  Uiso   1.00
O1228  O     0.49999   0.53960   0.68513   0.00000  Uiso   1.00
O1229  O     0.50001   0.46040   0.81487   0.00000  Uiso   1.00
O1230  O     0.50001   0.53960   0.81487   0.00000  Uiso   1.00
O1231  O     0.49999   0.46040   0.68513   0.00000  Uiso   1.00
O1232  O     0.57424   0.48753   0.88462   0.00000  Uiso   1.00
C1233  C     0.75404   0.50000   0.75041   0.00000  Uiso   1.00
C1234  C     0.70941   0.49998   0.75059   0.00000  Uiso   1.00
C1235  C     0.80453   0.35826   0.72594   0.00000  Uiso   1.00
C1236  C     0.86220   0.64174   0.77392   0.00000  Uiso   1.00
C1237  C     0.86229   0.35797   0.77375   0.00000  Uiso   1.00
C1238  C     0.80456   0.64198   0.72589   0.00000  Uiso   1.00
C1239  C     0.83296   0.50007   0.66454   0.00000  Uiso   1.00
C1240  C     0.83427   0.49994   0.83547   0.00000  Uiso   1.00
C1241  C     0.87091   0.49174   0.90729   0.00000  Uiso   1.00
C1242  C     0.79628   0.50749   0.59266   0.00000  Uiso   1.00
C1243  C     0.83402   0.49987   0.88366   0.00000  Uiso   1.00
C1244  C     0.91264   0.49999   0.75008   0.00000  Uiso   1.00
C1245  C     0.83334   0.50017   0.61638   0.00000  Uiso   1.00
C1246  C     0.79709   0.50950   0.90558   0.00000  Uiso   1.00
C1247  C     0.87064   0.49239   0.59449   0.00000  Uiso   1.00
C1248  C     0.79685   0.51027   0.95244   0.00000  Uiso   1.00
C1249  C     0.87111   0.49302   0.54764   0.00000  Uiso   1.00
C1250  C     0.83394   0.50160   0.97656   0.00000  Uiso   1.00
C1251  C     0.83397   0.50142   0.52351   0.00000  Uiso   1.00
C1252  C     0.87109   0.49334   0.95389   0.00000  Uiso   1.00
C1253  C     0.79680   0.50963   0.54616   0.00000  Uiso   1.00
C1254  C     0.76052   0.51930   0.97578   0.00000  Uiso   1.00
C1255  C     0.76065   0.51951   0.52189   0.00000  Uiso   1.00
C1256  C     0.90788   0.48653   0.52431   0.00000  Uiso   1.00
C1257  C     0.91705   0.43964   0.87921   0.00000  Uiso   1.00
C1258  C     0.96257   0.43532   0.86772   0.00000  Uiso   1.00
C1259  C     0.97412   0.38523   0.85570   0.00000  Uiso   1.00
C1260  C     0.74320   0.47105   0.62917   0.00000  Uiso   1.00
C1261  C     0.70584   0.45767   0.60033   0.00000  Uiso   1.00
C1262  C     0.68266   0.41623   0.62011   0.00000  Uiso   1.00
C1263  C     0.73593   0.47858   0.86959   0.00000  Uiso   1.00
C1264  C     0.93140   0.52350   0.63143   0.00000  Uiso   1.00
C1265  C     0.90787   0.48700   0.97820   0.00000  Uiso   1.00
C1266  C     0.68793   0.45758   0.74723   0.00000  Uiso   1.00
C1267  C     0.97872   0.54235   0.75363   0.00000  Uiso   1.00
C1268  C     0.97867   0.45760   0.74675   0.00000  Uiso   1.00
C1269  C     0.68799   0.54235   0.75379   0.00000  Uiso   1.00
C1270  C     0.95725   0.49998   0.75014   0.00000  Uiso   1.00
Cu1271 Cu    0.83333   0.54689   0.75000   0.00000  Uiso   1.00
Cu1272 Cu    0.83333   0.45311   0.75000   0.00000  Uiso   1.00
H1273  H     0.73148   0.52597   0.95892   0.00000  Uiso   1.00
H1274  H     0.88534   0.62301   0.79314   0.00000  Uiso   1.00
H1275  H     0.88568   0.37642   0.79246   0.00000  Uiso   1.00
H1276  H     0.78155   0.62341   0.70651   0.00000  Uiso   1.00
H1277  H     0.89805   0.42513   0.85169   0.00000  Uiso   1.00
H1278  H     0.91145   0.41859   0.90986   0.00000  Uiso   1.00
H1279  H     0.96950   0.45874   0.83930   0.00000  Uiso   1.00
H1280  H     0.98156   0.44667   0.89672   0.00000  Uiso   1.00
H1281  H     0.96755   0.36114   0.88378   0.00000  Uiso   1.00
H1282  H     0.67420   0.38353   0.84839   0.00000  Uiso   1.00
H1283  H     0.95658   0.37377   0.82573   0.00000  Uiso   1.00
H1284  H     0.93713   0.48131   0.54123   0.00000  Uiso   1.00
H1285  H     0.73282   0.47556   0.66376   0.00000  Uiso   1.00
H1286  H     0.76576   0.44150   0.62974   0.00000  Uiso   1.00
H1287  H     0.68450   0.48799   0.59734   0.00000  Uiso   1.00
H1288  H     0.71629   0.44802   0.56659   0.00000  Uiso   1.00
H1289  H     0.70356   0.38567   0.62425   0.00000  Uiso   1.00
H1290  H     0.99014   0.40627   0.59754   0.00000  Uiso   1.00
H1291  H     0.66984   0.42575   0.65288   0.00000  Uiso   1.00
H1292  H     0.74408   0.54777   0.88986   0.00000  Uiso   1.00
H1293  H     0.72414   0.46257   0.90061   0.00000  Uiso   1.00
H1294  H     0.75423   0.45222   0.85134   0.00000  Uiso   1.00
H1295  H     0.73206   0.52729   0.53841   0.00000  Uiso   1.00
H1296  H     0.70938   0.48921   0.84824   0.00000  Uiso   1.00
H1297  H     0.92414   0.45485   0.60937   0.00000  Uiso   1.00
H1298  H     0.94335   0.54035   0.60088   0.00000  Uiso   1.00
H1299  H     0.95796   0.51278   0.65277   0.00000  Uiso   1.00
H1300  H     0.91268   0.54918   0.65003   0.00000  Uiso   1.00
H1301  H     0.93697   0.48200   0.96171   0.00000  Uiso   1.00
H1302  H     0.70395   0.42446   0.74461   0.00000  Uiso   1.00
H1303  H     0.96270   0.57547   0.75630   0.00000  Uiso   1.00
H1304  H     0.96261   0.42449   0.74393   0.00000  Uiso   1.00
H1305  H     0.70405   0.57547   0.75652   0.00000  Uiso   1.00
H1306  H     0.78149   0.37702   0.70659   0.00000  Uiso   1.00
N1307  N     0.83333   0.61736   0.75000   0.00000  Uiso   1.00
N1308  N     0.83333   0.38264   0.75000   0.00000  Uiso   1.00
N1309  N     0.76086   0.51918   0.87977   0.00000  Uiso   1.00
N1310  N     0.90695   0.48278   0.62024   0.00000  Uiso   1.00
O1311  O     0.77321   0.53958   0.75000   0.00000  Uiso   1.00
O1312  O     0.75969   0.51454   0.61501   0.00000  Uiso   1.00
O1313  O     0.89345   0.46042   0.75001   0.00000  Uiso   1.00
O1314  O     0.89345   0.53958   0.75001   0.00000  Uiso   1.00
O1315  O     0.77321   0.46042   0.75000   0.00000  Uiso   1.00
O1316  O     0.83332   0.53960   0.68513   0.00000  Uiso   1.00
O1317  O     0.83334   0.46040   0.81487   0.00000  Uiso   1.00
O1318  O     0.83334   0.53960   0.81487   0.00000  Uiso   1.00
O1319  O     0.83332   0.46040   0.68513   0.00000  Uiso   1.00
O1320  O     0.90757   0.48753   0.88462   0.00000  Uiso   1.00
C1321  C     0.08737   0.83334   0.75041   0.00000  Uiso   1.00
C1322  C     0.04274   0.83331   0.75059   0.00000  Uiso   1.00
C1323  C     0.13786   0.69159   0.72594   0.00000  Uiso   1.00
C1324  C     0.19554   0.97507   0.77392   0.00000  Uiso   1.00
C1325  C     0.19562   0.69130   0.77375   0.00000  Uiso   1.00
C1326  C     0.13789   0.97532   0.72589   0.00000  Uiso   1.00
C1327  C     0.16630   0.83340   0.66454   0.00000  Uiso   1.00
C1328  C     0.16760   0.83327   0.83547   0.00000  Uiso   1.00
C1329  C     0.20425   0.82507   0.90729   0.00000  Uiso   1.00
C1330  C     0.12961   0.84083   0.59266   0.00000  Uiso   1.00
C1331  C     0.16735   0.83320   0.88366   0.00000  Uiso   1.00
C1332  C     0.24597   0.83332   0.75008   0.00000  Uiso   1.00
C1333  C     0.16667   0.83351   0.61638   0.00000  Uiso   1.00
C1334  C     0.13042   0.84283   0.90558   0.00000  Uiso   1.00
C1335  C     0.20397   0.82572   0.59449   0.00000  Uiso   1.00
C1336  C     0.13019   0.84360   0.95244   0.00000  Uiso   1.00
C1337  C     0.20444   0.82635   0.54764   0.00000  Uiso   1.00
C1338  C     0.16727   0.83493   0.97656   0.00000  Uiso   1.00
C1339  C     0.16730   0.83476   0.52351   0.00000  Uiso   1.00
C1340  C     0.20442   0.82667   0.95389   0.00000  Uiso   1.00
C1341  C     0.13013   0.84296   0.54616   0.00000  Uiso   1.00
C1342  C     0.09385   0.85264   0.97578   0.00000  Uiso   1.00
C1343  C     0.09399   0.85284   0.52189   0.00000  Uiso   1.00
C1344  C     0.24121   0.81987   0.52431   0.00000  Uiso   1.00
C1345  C     0.25039   0.77298   0.87921   0.00000  Uiso   1.00
C1346  C     0.29590   0.76865   0.86772   0.00000  Uiso   1.00
C1347  C     0.30745   0.71857   0.85570   0.00000  Uiso   1.00
C1348  C     0.07653   0.80439   0.62917   0.00000  Uiso   1.00
C1349  C     0.03917   0.79100   0.60033   0.00000  Uiso   1.00
C1350  C     0.01600   0.74956   0.62011   0.00000  Uiso   1.00
C1351  C     0.06927   0.81191   0.86959   0.00000  Uiso   1.00
C1352  C     0.26473   0.85683   0.63143   0.00000  Uiso   1.00
C1353  C     0.24120   0.82033   0.97820   0.00000  Uiso   1.00
C1354  C     0.02127   0.79091   0.74723   0.00000  Uiso   1.00
C1355  C     0.31206   0.87568   0.75363   0.00000  Uiso   1.00
C1356  C     0.31200   0.79093   0.74675   0.00000  Uiso   1.00
C1357  C     0.02132   0.87569   0.75379   0.00000  Uiso   1.00
C1358  C     0.29058   0.83331   0.75014   0.00000  Uiso   1.00
Cu1359 Cu    0.16667   0.88022   0.75000   0.00000  Uiso   1.00
Cu1360 Cu    0.16667   0.78645   0.75000   0.00000  Uiso   1.00
H1361  H     0.06481   0.85931   0.95892   0.00000  Uiso   1.00
H1362  H     0.21867   0.95634   0.79314   0.00000  Uiso   1.00
H1363  H     0.21902   0.70975   0.79246   0.00000  Uiso   1.00
H1364  H     0.11489   0.95674   0.70651   0.00000  Uiso   1.00
H1365  H     0.23139   0.75846   0.85169   0.00000  Uiso   1.00
H1366  H     0.24479   0.75193   0.90986   0.00000  Uiso   1.00
H1367  H     0.30284   0.79207   0.83930   0.00000  Uiso   1.00
H1368  H     0.31489   0.78000   0.89672   0.00000  Uiso   1.00
H1369  H     0.30088   0.69447   0.88378   0.00000  Uiso   1.00
H1370  H     0.00754   0.71686   0.84839   0.00000  Uiso   1.00
H1371  H     0.28992   0.70710   0.82573   0.00000  Uiso   1.00
H1372  H     0.27046   0.81464   0.54123   0.00000  Uiso   1.00
H1373  H     0.06616   0.80890   0.66376   0.00000  Uiso   1.00
H1374  H     0.09909   0.77483   0.62974   0.00000  Uiso   1.00
H1375  H     0.01783   0.82132   0.59734   0.00000  Uiso   1.00
H1376  H     0.04963   0.78135   0.56659   0.00000  Uiso   1.00
H1377  H     0.03689   0.71900   0.62425   0.00000  Uiso   1.00
H1378  H     0.32347   0.73961   0.59754   0.00000  Uiso   1.00
H1379  H     0.00317   0.75908   0.65288   0.00000  Uiso   1.00
H1380  H     0.07742   0.88110   0.88986   0.00000  Uiso   1.00
H1381  H     0.05747   0.79590   0.90061   0.00000  Uiso   1.00
H1382  H     0.08756   0.78556   0.85134   0.00000  Uiso   1.00
H1383  H     0.06539   0.86063   0.53841   0.00000  Uiso   1.00
H1384  H     0.04272   0.82255   0.84824   0.00000  Uiso   1.00
H1385  H     0.25747   0.78819   0.60937   0.00000  Uiso   1.00
H1386  H     0.27668   0.87369   0.60088   0.00000  Uiso   1.00
H1387  H     0.29129   0.84612   0.65277   0.00000  Uiso   1.00
H1388  H     0.24601   0.88251   0.65003   0.00000  Uiso   1.00
H1389  H     0.27030   0.81534   0.96171   0.00000  Uiso   1.00
H1390  H     0.03728   0.75779   0.74461   0.00000  Uiso   1.00
H1391  H     0.29603   0.90880   0.75630   0.00000  Uiso   1.00
H1392  H     0.29594   0.75782   0.74393   0.00000  Uiso   1.00
H1393  H     0.03739   0.90880   0.75652   0.00000  Uiso   1.00
H1394  H     0.11482   0.71035   0.70659   0.00000  Uiso   1.00
N1395  N     0.16667   0.95069   0.75000   0.00000  Uiso   1.00
N1396  N     0.16667   0.71598   0.75000   0.00000  Uiso   1.00
N1397  N     0.09419   0.85252   0.87977   0.00000  Uiso   1.00
N1398  N     0.24028   0.81611   0.62024   0.00000  Uiso   1.00
O1399  O     0.10655   0.87291   0.75000   0.00000  Uiso   1.00
O1400  O     0.09303   0.84787   0.61501   0.00000  Uiso   1.00
O1401  O     0.22679   0.79375   0.75001   0.00000  Uiso   1.00
O1402  O     0.22679   0.87291   0.75001   0.00000  Uiso   1.00
O1403  O     0.10655   0.79375   0.75000   0.00000  Uiso   1.00
O1404  O     0.16666   0.87293   0.68513   0.00000  Uiso   1.00
O1405  O     0.16668   0.79373   0.81487   0.00000  Uiso   1.00
O1406  O     0.16668   0.87293   0.81487   0.00000  Uiso   1.00
O1407  O     0.16666   0.79373   0.68513   0.00000  Uiso   1.00
O1408  O     0.24091   0.82086   0.88462   0.00000  Uiso   1.00
C1409  C     0.42070   0.83334   0.75041   0.00000  Uiso   1.00
C1410  C     0.37608   0.83331   0.75059   0.00000  Uiso   1.00
C1411  C     0.47119   0.69159   0.72594   0.00000  Uiso   1.00
C1412  C     0.52887   0.97507   0.77392   0.00000  Uiso   1.00
C1413  C     0.52896   0.69130   0.77375   0.00000  Uiso   1.00
C1414  C     0.47123   0.97532   0.72589   0.00000  Uiso   1.00
C1415  C     0.49963   0.83340   0.66454   0.00000  Uiso   1.00
C1416  C     0.50094   0.83327   0.83547   0.00000  Uiso   1.00
C1417  C     0.53758   0.82507   0.90729   0.00000  Uiso   1.00
C1418  C     0.46294   0.84083   0.59266   0.00000  Uiso   1.00
C1419  C     0.50069   0.83320   0.88366   0.00000  Uiso   1.00
C1420  C     0.57930   0.83332   0.75008   0.00000  Uiso   1.00
C1421  C     0.50000   0.83351   0.61638   0.00000  Uiso   1.00
C1422  C     0.46376   0.84283   0.90558   0.00000  Uiso   1.00
C1423  C     0.53730   0.82572   0.59449   0.00000  Uiso   1.00
C1424  C     0.46352   0.84360   0.95244   0.00000  Uiso   1.00
C1425  C     0.53778   0.82635   0.54764   0.00000  Uiso   1.00
C1426  C     0.50061   0.83493   0.97656   0.00000  Uiso   1.00
C1427  C     0.50064   0.83476   0.52351   0.00000  Uiso   1.00
C1428  C     0.53775   0.82667   0.95389   0.00000  Uiso   1.00
C1429  C     0.46347   0.84296   0.54616   0.00000  Uiso   1.00
C1430  C     0.42719   0.85264   0.97578   0.00000  Uiso   1.00
C1431  C     0.42732   0.85284   0.52189   0.00000  Uiso   1.00
C1432  C     0.57454   0.81987   0.52431   0.00000  Uiso   1.00
C1433  C     0.58372   0.77298   0.87921   0.00000  Uiso   1.00
C1434  C     0.62923   0.76865   0.86772   0.00000  Uiso   1.00
C1435  C     0.64079   0.71857   0.85570   0.00000  Uiso   1.00
C1436  C     0.40986   0.80439   0.62917   0.00000  Uiso   1.00
C1437  C     0.37250   0.79100   0.60033   0.00000  Uiso   1.00
C1438  C     0.34933   0.74956   0.62011   0.00000  Uiso   1.00
C1439  C     0.40260   0.81191   0.86959   0.00000  Uiso   1.00
C1440  C     0.59806   0.85683   0.63143   0.00000  Uiso   1.00
C1441  C     0.57453   0.82033   0.97820   0.00000  Uiso   1.00
C1442  C     0.35460   0.79091   0.74723   0.00000  Uiso   1.00
C1443  C     0.64539   0.87568   0.75363   0.00000  Uiso   1.00
C1444  C     0.64533   0.79093   0.74675   0.00000  Uiso   1.00
C1445  C     0.35466   0.87569   0.75379   0.00000  Uiso   1.00
C1446  C     0.62391   0.83331   0.75014   0.00000  Uiso   1.00
Cu1447 Cu    0.50000   0.88022   0.75000   0.00000  Uiso   1.00
Cu1448 Cu    0.50000   0.78645   0.75000   0.00000  Uiso   1.00
H1449  H     0.39815   0.85931   0.95892   0.00000  Uiso   1.00
H1450  H     0.55201   0.95634   0.79314   0.00000  Uiso   1.00
H1451  H     0.55235   0.70975   0.79246   0.00000  Uiso   1.00
H1452  H     0.44822   0.95674   0.70651   0.00000  Uiso   1.00
H1453  H     0.56472   0.75846   0.85169   0.00000  Uiso   1.00
H1454  H     0.57812   0.75193   0.90986   0.00000  Uiso   1.00
H1455  H     0.63617   0.79207   0.83930   0.00000  Uiso   1.00
H1456  H     0.64822   0.78000   0.89672   0.00000  Uiso   1.00
H1457  H     0.63421   0.69447   0.88378   0.00000  Uiso   1.00
H1458  H     0.34087   0.71686   0.84839   0.00000  Uiso   1.00
H1459  H     0.62325   0.70710   0.82573   0.00000  Uiso   1.00
H1460  H     0.60380   0.81464   0.54123   0.00000  Uiso   1.00
H1461  H     0.39949   0.80890   0.66376   0.00000  Uiso   1.00
H1462  H     0.43242   0.77483   0.62974   0.00000  Uiso   1.00
H1463  H     0.35116   0.82132   0.59734   0.00000  Uiso   1.00
H1464  H     0.38296   0.78135   0.56659   0.00000  Uiso   1.00
H1465  H     0.37022   0.71900   0.62425   0.00000  Uiso   1.00
H1466  H     0.65681   0.73961   0.59754   0.00000  Uiso   1.00
H1467  H     0.33650   0.75908   0.65288   0.00000  Uiso   1.00
H1468  H     0.41075   0.88110   0.88986   0.00000  Uiso   1.00
H1469  H     0.39081   0.79590   0.90061   0.00000  Uiso   1.00
H1470  H     0.42089   0.78556   0.85134   0.00000  Uiso   1.00
H1471  H     0.39873   0.86063   0.53841   0.00000  Uiso   1.00
H1472  H     0.37605   0.82255   0.84824   0.00000  Uiso   1.00
H1473  H     0.59080   0.78819   0.60937   0.00000  Uiso   1.00
H1474  H     0.61001   0.87369   0.60088   0.00000  Uiso   1.00
H1475  H     0.62462   0.84612   0.65277   0.00000  Uiso   1.00
H1476  H     0.57935   0.88251   0.65003   0.00000  Uiso   1.00
H1477  H     0.60364   0.81534   0.96171   0.00000  Uiso   1.00
H1478  H     0.37062   0.75779   0.74461   0.00000  Uiso   1.00
H1479  H     0.62937   0.90880   0.75630   0.00000  Uiso   1.00
H1480  H     0.62927   0.75782   0.74393   0.00000  Uiso   1.00
H1481  H     0.37072   0.90880   0.75652   0.00000  Uiso   1.00
H1482  H     0.44816   0.71035   0.70659   0.00000  Uiso   1.00
N1483  N     0.50000   0.95069   0.75000   0.00000  Uiso   1.00
N1484  N     0.50000   0.71598   0.75000   0.00000  Uiso   1.00
N1485  N     0.42753   0.85252   0.87977   0.00000  Uiso   1.00
N1486  N     0.57362   0.81611   0.62024   0.00000  Uiso   1.00
O1487  O     0.43988   0.87291   0.75000   0.00000  Uiso   1.00
O1488  O     0.42636   0.84787   0.61501   0.00000  Uiso   1.00
O1489  O     0.56012   0.79375   0.75001   0.00000  Uiso   1.00
O1490  O     0.56012   0.87291   0.75001   0.00000  Uiso   1.00
O1491  O     0.43988   0.79375   0.75000   0.00000  Uiso   1.00
O1492  O     0.49999   0.87293   0.68513   0.00000  Uiso   1.00
O1493  O     0.50001   0.79373   0.81487   0.00000  Uiso   1.00
O1494  O     0.50001   0.87293   0.81487   0.00000  Uiso   1.00
O1495  O     0.49999   0.79373   0.68513   0.00000  Uiso   1.00
O1496  O     0.57424   0.82086   0.88462   0.00000  Uiso   1.00
C1497  C     0.75404   0.83334   0.75041   0.00000  Uiso   1.00
C1498  C     0.70941   0.83331   0.75059   0.00000  Uiso   1.00
C1499  C     0.80453   0.69159   0.72594   0.00000  Uiso   1.00
C1500  C     0.86220   0.97507   0.77392   0.00000  Uiso   1.00
C1501  C     0.86229   0.69130   0.77375   0.00000  Uiso   1.00
C1502  C     0.80456   0.97532   0.72589   0.00000  Uiso   1.00
C1503  C     0.83296   0.83340   0.66454   0.00000  Uiso   1.00
C1504  C     0.83427   0.83327   0.83547   0.00000  Uiso   1.00
C1505  C     0.87091   0.82507   0.90729   0.00000  Uiso   1.00
C1506  C     0.79628   0.84083   0.59266   0.00000  Uiso   1.00
C1507  C     0.83402   0.83320   0.88366   0.00000  Uiso   1.00
C1508  C     0.91264   0.83332   0.75008   0.00000  Uiso   1.00
C1509  C     0.83334   0.83351   0.61638   0.00000  Uiso   1.00
C1510  C     0.79709   0.84283   0.90558   0.00000  Uiso   1.00
C1511  C     0.87064   0.82572   0.59449   0.00000  Uiso   1.00
C1512  C     0.79685   0.84360   0.95244   0.00000  Uiso   1.00
C1513  C     0.87111   0.82635   0.54764   0.00000  Uiso   1.00
C1514  C     0.83394   0.83493   0.97656   0.00000  Uiso   1.00
C1515  C     0.83397   0.83476   0.52351   0.00000  Uiso   1.00
C1516  C     0.87109   0.82667   0.95389   0.00000  Uiso   1.00
C1517  C     0.79680   0.84296   0.54616   0.00000  Uiso   1.00
C1518  C     0.76052   0.85264   0.97578   0.00000  Uiso   1.00
C1519  C     0.76065   0.85284   0.52189   0.00000  Uiso   1.00
C1520  C     0.90788   0.81987   0.52431   0.00000  Uiso   1.00
C1521  C     0.91705   0.77298   0.87921   0.00000  Uiso   1.00
C1522  C     0.96257   0.76865   0.86772   0.00000  Uiso   1.00
C1523  C     0.97412   0.71857   0.85570   0.00000  Uiso   1.00
C1524  C     0.74320   0.80439   0.62917   0.00000  Uiso   1.00
C1525  C     0.70584   0.79100   0.60033   0.00000  Uiso   1.00
C1526  C     0.68266   0.74956   0.62011   0.00000  Uiso   1.00
C1527  C     0.73593   0.81191   0.86959   0.00000  Uiso   1.00
C1528  C     0.93140   0.85683   0.63143   0.00000  Uiso   1.00
C1529  C     0.90787   0.82033   0.97820   0.00000  Uiso   1.00
C1530  C     0.68793   0.79091   0.74723   0.00000  Uiso   1.00
C1531  C     0.97872   0.87568   0.75363   0.00000  Uiso   1.00
C1532  C     0.97867   0.79093   0.74675   0.00000  Uiso   1.00
C1533  C     0.68799   0.87569   0.75379   0.00000  Uiso   1.00
C1534  C     0.95725   0.83331   0.75014   0.00000  Uiso   1.00
Cu1535 Cu    0.83333   0.88022   0.75000   0.00000  Uiso   1.00
Cu1536 Cu    0.83333   0.78645   0.75000   0.00000  Uiso   1.00
H1537  H     0.73148   0.85931   0.95892   0.00000  Uiso   1.00
H1538  H     0.88534   0.95634   0.79314   0.00000  Uiso   1.00
H1539  H     0.88568   0.70975   0.79246   0.00000  Uiso   1.00
H1540  H     0.78155   0.95674   0.70651   0.00000  Uiso   1.00
H1541  H     0.89805   0.75846   0.85169   0.00000  Uiso   1.00
H1542  H     0.91145   0.75193   0.90986   0.00000  Uiso   1.00
H1543  H     0.96950   0.79207   0.83930   0.00000  Uiso   1.00
H1544  H     0.98156   0.78000   0.89672   0.00000  Uiso   1.00
H1545  H     0.96755   0.69447   0.88378   0.00000  Uiso   1.00
H1546  H     0.67420   0.71686   0.84839   0.00000  Uiso   1.00
H1547  H     0.95658   0.70710   0.82573   0.00000  Uiso   1.00
H1548  H     0.93713   0.81464   0.54123   0.00000  Uiso   1.00
H1549  H     0.73282   0.80890   0.66376   0.00000  Uiso   1.00
H1550  H     0.76576   0.77483   0.62974   0.00000  Uiso   1.00
H1551  H     0.68450   0.82132   0.59734   0.00000  Uiso   1.00
H1552  H     0.71629   0.78135   0.56659   0.00000  Uiso   1.00
H1553  H     0.70356   0.71900   0.62425   0.00000  Uiso   1.00
H1554  H     0.99014   0.73961   0.59754   0.00000  Uiso   1.00
H1555  H     0.66984   0.75908   0.65288   0.00000  Uiso   1.00
H1556  H     0.74408   0.88110   0.88986   0.00000  Uiso   1.00
H1557  H     0.72414   0.79590   0.90061   0.00000  Uiso   1.00
H1558  H     0.75423   0.78556   0.85134   0.00000  Uiso   1.00
H1559  H     0.73206   0.86063   0.53841   0.00000  Uiso   1.00
H1560  H     0.70938   0.82255   0.84824   0.00000  Uiso   1.00
H1561  H     0.92414   0.78819   0.60937   0.00000  Uiso   1.00
H1562  H     0.94335   0.87369   0.60088   0.00000  Uiso   1.00
H1563  H     0.95796   0.84612   0.65277   0.00000  Uiso   1.00
H1564  H     0.91268   0.88251   0.65003   0.00000  Uiso   1.00
H1565  H     0.93697   0.81534   0.96171   0.00000  Uiso   1.00
H1566  H     0.70395   0.75779   0.74461   0.00000  Uiso   1.00
H1567  H     0.96270   0.90880   0.75630   0.00000  Uiso   1.00
H1568  H     0.96261   0.75782   0.74393   0.00000  Uiso   1.00
H1569  H     0.70405   0.90880   0.75652   0.00000  Uiso   1.00
H1570  H     0.78149   0.71035   0.70659   0.00000  Uiso   1.00
N1571  N     0.83333   0.95069   0.75000   0.00000  Uiso   1.00
N1572  N     0.83333   0.71598   0.75000   0.00000  Uiso   1.00
N1573  N     0.76086   0.85252   0.87977   0.00000  Uiso   1.00
N1574  N     0.90695   0.81611   0.62024   0.00000  Uiso   1.00
O1575  O     0.77321   0.87291   0.75000   0.00000  Uiso   1.00
O1576  O     0.75969   0.84787   0.61501   0.00000  Uiso   1.00
O1577  O     0.89345   0.79375   0.75001   0.00000  Uiso   1.00
O1578  O     0.89345   0.87291   0.75001   0.00000  Uiso   1.00
O1579  O     0.77321   0.79375   0.75000   0.00000  Uiso   1.00
O1580  O     0.83332   0.87293   0.68513   0.00000  Uiso   1.00
O1581  O     0.83334   0.79373   0.81487   0.00000  Uiso   1.00
O1582  O     0.83334   0.87293   0.81487   0.00000  Uiso   1.00
O1583  O     0.83332   0.79373   0.68513   0.00000  Uiso   1.00
O1584  O     0.90757   0.82086   0.88462   0.00000  Uiso   1.00
loop_
_geom_bond_atom_site_label_1
_geom_bond_atom_site_label_2
_geom_bond_distance
_geom_bond_site_symmetry_2
_ccdc_geom_bond_type
C1     C2      1.448   .     S
C1     O79     1.291   .     A
C1     O83     1.291   .     A
C2     C34     1.401   .     A
C2     C37     1.400   .     A
C3     H74     1.082   .     S
C3     N76     1.367   .     A
C3     C534    1.417   1_545 S
C4     N75     1.366   .     A
C4     H42     1.082   .     S
C4     C269    1.416   .     S
C5     H43     1.078   .     S
C5     N76     1.367   .     A
C5     C532    1.416   1_545 S
C6     N75     1.368   .     A
C6     H44     1.082   .     S
C6     C267    1.417   .     S
C7     O87     1.289   .     A
C7     O84     1.290   .     A
C7     C13     1.450   .     S
C8     O85     1.291   .     A
C8     C11     1.450   .     S
C8     O86     1.289   .     A
C9     O88     1.385   .     S
C9     C20     1.403   .     A
C9     C11     1.403   .     A
C10    C21     1.401   .     A
C10    O80     1.388   .     S
C10    C13     1.405   .     A
C11    C14     1.404   .     A
C12    O82     1.291   .     A
C12    O81     1.291   .     A
C12    C38     1.448   .     S
C13    C15     1.404   .     A
C14    N77     1.427   .     S
C14    C16     1.410   .     A
C15    C17     1.410   .     A
C15    N78     1.427   .     S
C16    C22     1.405   .     A
C16    C18     1.418   .     A
C17    C24     1.405   .     A
C17    C19     1.418   .     A
C18    C20     1.413   .     A
C18    C811    1.413   .     S
C19    C21     1.414   .     A
C19    C810    1.413   1_554 S
C20    C33     1.403   .     A
C21    C23     1.401   .     A
C22    H41     1.081   .     S
C22    C815    1.387   .     S
C23    H63     1.082   .     S
C23    C814    1.387   1_554 S
C24    H52     1.081   .     S
C24    C825    1.388   1_554 S
C25    C26     1.527   .     S
C25    O88     1.413   .     S
C25    H45     1.108   .     S
C25    H46     1.116   .     S
C26    C27     1.525   .     S
C26    H47     1.109   .     S
C26    H48     1.111   .     S
C27    H51     1.110   .     S
C27    H49     1.111   .     S
C27    H138    1.111   .     S
C28    C29     1.531   .     S
C28    H54     1.117   .     S
C28    H53     1.106   .     S
C28    O80     1.419   .     S
C29    H55     1.111   .     S
C29    C30     1.526   .     S
C29    H56     1.111   .     S
C30    H57     1.111   .     S
C30    H59     1.110   .     S
C30    H234    1.110   1_455 S
C31    H61     1.111   .     S
C31    H62     1.111   .     S
C31    N77     1.446   .     S
C31    H64     1.109   .     S
C32    H68     1.110   .     S
C32    H67     1.110   .     S
C32    H66     1.111   .     S
C32    N78     1.447   .     S
C33    H69     1.083   .     S
C33    C816    1.388   .     S
C34    H70     1.083   .     S
C34    C212    1.382   1_455 S
C35    H71     1.083   .     S
C35    C38     1.401   .     A
C35    C125    1.382   .     S
C36    C38     1.401   .     A
C36    H72     1.083   .     S
C36    C122    1.382   .     S
C37    H73     1.083   .     S
C37    C211    1.382   1_455 S
Cu39   O84     1.964   .     S
Cu39   N75     2.013   .     S
Cu39   Cu40    2.679   .     S
Cu39   O79     1.962   .     S
Cu39   O82     1.962   .     S
Cu39   O86     1.962   .     S
Cu40   O83     1.962   .     S
Cu40   O87     1.962   .     S
Cu40   O81     1.962   .     S
Cu40   N76     2.013   .     S
Cu40   O85     1.964   .     S
H50    C203    1.111   1_455 S
H58    C118    1.110   .     S
H60    N77     1.031   .     S
H65    N78     1.030   .     S
C89    C90     1.448   .     S
C89    O167    1.291   .     A
C89    O171    1.291   .     A
C90    C122    1.401   .     A
C90    C125    1.400   .     A
C91    H162    1.082   .     S
C91    N164    1.367   .     A
C91    C622    1.417   1_545 S
C92    N163    1.366   .     A
C92    H130    1.082   .     S
C92    C357    1.416   .     S
C93    H131    1.078   .     S
C93    N164    1.367   .     A
C93    C620    1.416   1_545 S
C94    N163    1.368   .     A
C94    H132    1.082   .     S
C94    C355    1.417   .     S
C95    O175    1.289   .     A
C95    O172    1.290   .     A
C95    C101    1.450   .     S
C96    O173    1.291   .     A
C96    C99     1.450   .     S
C96    O174    1.289   .     A
C97    O176    1.385   .     S
C97    C108    1.403   .     A
C97    C99     1.403   .     A
C98    C109    1.401   .     A
C98    O168    1.388   .     S
C98    C101    1.405   .     A
C99    C102    1.404   .     A
C100   O170    1.291   .     A
C100   O169    1.291   .     A
C100   C126    1.448   .     S
C101   C103    1.404   .     A
C102   N165    1.427   .     S
C102   C104    1.410   .     A
C103   C105    1.410   .     A
C103   N166    1.427   .     S
C104   C110    1.405   .     A
C104   C106    1.418   .     A
C105   C112    1.405   .     A
C105   C107    1.418   .     A
C106   C108    1.413   .     A
C106   C899    1.413   .     S
C107   C109    1.414   .     A
C107   C898    1.413   1_554 S
C108   C121    1.403   .     A
C109   C111    1.401   .     A
C110   H129    1.081   .     S
C110   C903    1.387   .     S
C111   H151    1.082   .     S
C111   C902    1.387   1_554 S
C112   H140    1.081   .     S
C112   C913    1.388   1_554 S
C113   C114    1.527   .     S
C113   O176    1.413   .     S
C113   H133    1.108   .     S
C113   H134    1.116   .     S
C114   C115    1.525   .     S
C114   H135    1.109   .     S
C114   H136    1.111   .     S
C115   H139    1.110   .     S
C115   H137    1.111   .     S
C115   H226    1.111   .     S
C116   C117    1.531   .     S
C116   H142    1.117   .     S
C116   H141    1.106   .     S
C116   O168    1.419   .     S
C117   H143    1.111   .     S
C117   C118    1.526   .     S
C117   H144    1.111   .     S
C118   H145    1.111   .     S
C118   H147    1.110   .     S
C119   H149    1.111   .     S
C119   H150    1.111   .     S
C119   N165    1.446   .     S
C119   H152    1.109   .     S
C120   H156    1.110   .     S
C120   H155    1.110   .     S
C120   H154    1.111   .     S
C120   N166    1.447   .     S
C121   H157    1.083   .     S
C121   C904    1.388   .     S
C122   H158    1.083   .     S
C123   H159    1.083   .     S
C123   C126    1.401   .     A
C123   C213    1.382   .     S
C124   C126    1.401   .     A
C124   H160    1.083   .     S
C124   C210    1.382   .     S
C125   H161    1.083   .     S
Cu127  O172    1.964   .     S
Cu127  N163    2.013   .     S
Cu127  Cu128   2.679   .     S
Cu127  O167    1.962   .     S
Cu127  O170    1.962   .     S
Cu127  O174    1.962   .     S
Cu128  O171    1.962   .     S
Cu128  O175    1.962   .     S
Cu128  O169    1.962   .     S
Cu128  N164    2.013   .     S
Cu128  O173    1.964   .     S
H146   C206    1.110   .     S
H148   N165    1.031   .     S
H153   N166    1.030   .     S
C177   C178    1.448   .     S
C177   O255    1.291   .     A
C177   O259    1.291   .     A
C178   C210    1.401   .     A
C178   C213    1.400   .     A
C179   H250    1.082   .     S
C179   N252    1.367   .     A
C179   C710    1.417   1_545 S
C180   N251    1.366   .     A
C180   H218    1.082   .     S
C180   C445    1.416   .     S
C181   H219    1.078   .     S
C181   N252    1.367   .     A
C181   C708    1.416   1_545 S
C182   N251    1.368   .     A
C182   H220    1.082   .     S
C182   C443    1.417   .     S
C183   O263    1.289   .     A
C183   O260    1.290   .     A
C183   C189    1.450   .     S
C184   O261    1.291   .     A
C184   C187    1.450   .     S
C184   O262    1.289   .     A
C185   O264    1.385   .     S
C185   C196    1.403   .     A
C185   C187    1.403   .     A
C186   C197    1.401   .     A
C186   O256    1.388   .     S
C186   C189    1.405   .     A
C187   C190    1.404   .     A
C188   O258    1.291   .     A
C188   O257    1.291   .     A
C188   C214    1.448   .     S
C189   C191    1.404   .     A
C190   N253    1.427   .     S
C190   C192    1.410   .     A
C191   C193    1.410   .     A
C191   N254    1.427   .     S
C192   C198    1.405   .     A
C192   C194    1.418   .     A
C193   C200    1.405   .     A
C193   C195    1.418   .     A
C194   C196    1.413   .     A
C194   C987    1.413   .     S
C195   C197    1.414   .     A
C195   C986    1.413   1_554 S
C196   C209    1.403   .     A
C197   C199    1.401   .     A
C198   H217    1.081   .     S
C198   C991    1.387   .     S
C199   H239    1.082   .     S
C199   C990    1.387   1_554 S
C200   H228    1.081   .     S
C200   C1001   1.388   1_554 S
C201   C202    1.527   .     S
C201   O264    1.413   .     S
C201   H221    1.108   .     S
C201   H222    1.116   .     S
C202   C203    1.525   .     S
C202   H223    1.109   .     S
C202   H224    1.111   .     S
C203   H227    1.110   .     S
C203   H225    1.111   .     S
C203   H50     1.111   1_655 S
C204   C205    1.531   .     S
C204   H230    1.117   .     S
C204   H229    1.106   .     S
C204   O256    1.419   .     S
C205   H231    1.111   .     S
C205   C206    1.526   .     S
C205   H232    1.111   .     S
C206   H233    1.111   .     S
C206   H235    1.110   .     S
C207   H237    1.111   .     S
C207   H238    1.111   .     S
C207   N253    1.446   .     S
C207   H240    1.109   .     S
C208   H244    1.110   .     S
C208   H243    1.110   .     S
C208   H242    1.111   .     S
C208   N254    1.447   .     S
C209   H245    1.083   .     S
C209   C992    1.388   .     S
C210   H246    1.083   .     S
C211   H247    1.083   .     S
C211   C214    1.401   .     A
C211   C37     1.382   1_655 S
C212   C214    1.401   .     A
C212   H248    1.083   .     S
C212   C34     1.382   1_655 S
C213   H249    1.083   .     S
Cu215  O260    1.964   .     S
Cu215  N251    2.013   .     S
Cu215  Cu216   2.679   .     S
Cu215  O255    1.962   .     S
Cu215  O258    1.962   .     S
Cu215  O262    1.962   .     S
Cu216  O259    1.962   .     S
Cu216  O263    1.962   .     S
Cu216  O257    1.962   .     S
Cu216  N252    2.013   .     S
Cu216  O261    1.964   .     S
H234   C30     1.110   1_655 S
H236   N253    1.031   .     S
H241   N254    1.030   .     S
C265   C266    1.448   .     S
C265   O343    1.291   .     A
C265   O347    1.291   .     A
C266   C298    1.401   .     A
C266   C301    1.400   .     A
C267   H338    1.082   .     S
C267   N340    1.367   .     A
C268   N339    1.366   .     A
C268   H306    1.082   .     S
C268   C533    1.416   .     S
C269   H307    1.078   .     S
C269   N340    1.367   .     A
C270   N339    1.368   .     A
C270   H308    1.082   .     S
C270   C531    1.417   .     S
C271   O351    1.289   .     A
C271   O348    1.290   .     A
C271   C277    1.450   .     S
C272   O349    1.291   .     A
C272   C275    1.450   .     S
C272   O350    1.289   .     A
C273   O352    1.385   .     S
C273   C284    1.403   .     A
C273   C275    1.403   .     A
C274   C285    1.401   .     A
C274   O344    1.388   .     S
C274   C277    1.405   .     A
C275   C278    1.404   .     A
C276   O346    1.291   .     A
C276   O345    1.291   .     A
C276   C302    1.448   .     S
C277   C279    1.404   .     A
C278   N341    1.427   .     S
C278   C280    1.410   .     A
C279   C281    1.410   .     A
C279   N342    1.427   .     S
C280   C286    1.405   .     A
C280   C282    1.418   .     A
C281   C288    1.405   .     A
C281   C283    1.418   .     A
C282   C284    1.413   .     A
C282   C1075   1.413   .     S
C283   C285    1.414   .     A
C283   C1074   1.413   1_554 S
C284   C297    1.403   .     A
C285   C287    1.401   .     A
C286   H305    1.081   .     S
C286   C1079   1.387   .     S
C287   H327    1.082   .     S
C287   C1078   1.387   1_554 S
C288   H316    1.081   .     S
C288   C1089   1.388   1_554 S
C289   C290    1.527   .     S
C289   O352    1.413   .     S
C289   H309    1.108   .     S
C289   H310    1.116   .     S
C290   C291    1.525   .     S
C290   H311    1.109   .     S
C290   H312    1.111   .     S
C291   H315    1.110   .     S
C291   H313    1.111   .     S
C291   H402    1.111   .     S
C292   C293    1.531   .     S
C292   H318    1.117   .     S
C292   H317    1.106   .     S
C292   O344    1.419   .     S
C293   H319    1.111   .     S
C293   C294    1.526   .     S
C293   H320    1.111   .     S
C294   H321    1.111   .     S
C294   H323    1.110   .     S
C294   H498    1.110   1_455 S
C295   H325    1.111   .     S
C295   H326    1.111   .     S
C295   N341    1.446   .     S
C295   H328    1.109   .     S
C296   H332    1.110   .     S
C296   H331    1.110   .     S
C296   H330    1.111   .     S
C296   N342    1.447   .     S
C297   H333    1.083   .     S
C297   C1080   1.388   .     S
C298   H334    1.083   .     S
C298   C476    1.382   1_455 S
C299   H335    1.083   .     S
C299   C302    1.401   .     A
C299   C389    1.382   .     S
C300   C302    1.401   .     A
C300   H336    1.083   .     S
C300   C386    1.382   .     S
C301   H337    1.083   .     S
C301   C475    1.382   1_455 S
Cu303  O348    1.964   .     S
Cu303  N339    2.013   .     S
Cu303  Cu304   2.679   .     S
Cu303  O343    1.962   .     S
Cu303  O346    1.962   .     S
Cu303  O350    1.962   .     S
Cu304  O347    1.962   .     S
Cu304  O351    1.962   .     S
Cu304  O345    1.962   .     S
Cu304  N340    2.013   .     S
Cu304  O349    1.964   .     S
H314   C467    1.111   1_455 S
H322   C382    1.110   .     S
H324   N341    1.031   .     S
H329   N342    1.030   .     S
C353   C354    1.448   .     S
C353   O431    1.291   .     A
C353   O435    1.291   .     A
C354   C386    1.401   .     A
C354   C389    1.400   .     A
C355   H426    1.082   .     S
C355   N428    1.367   .     A
C356   N427    1.366   .     A
C356   H394    1.082   .     S
C356   C621    1.416   .     S
C357   H395    1.078   .     S
C357   N428    1.367   .     A
C358   N427    1.368   .     A
C358   H396    1.082   .     S
C358   C619    1.417   .     S
C359   O439    1.289   .     A
C359   O436    1.290   .     A
C359   C365    1.450   .     S
C360   O437    1.291   .     A
C360   C363    1.450   .     S
C360   O438    1.289   .     A
C361   O440    1.385   .     S
C361   C372    1.403   .     A
C361   C363    1.403   .     A
C362   C373    1.401   .     A
C362   O432    1.388   .     S
C362   C365    1.405   .     A
C363   C366    1.404   .     A
C364   O434    1.291   .     A
C364   O433    1.291   .     A
C364   C390    1.448   .     S
C365   C367    1.404   .     A
C366   N429    1.427   .     S
C366   C368    1.410   .     A
C367   C369    1.410   .     A
C367   N430    1.427   .     S
C368   C374    1.405   .     A
C368   C370    1.418   .     A
C369   C376    1.405   .     A
C369   C371    1.418   .     A
C370   C372    1.413   .     A
C370   C1163   1.413   .     S
C371   C373    1.414   .     A
C371   C1162   1.413   1_554 S
C372   C385    1.403   .     A
C373   C375    1.401   .     A
C374   H393    1.081   .     S
C374   C1167   1.387   .     S
C375   H415    1.082   .     S
C375   C1166   1.387   1_554 S
C376   H404    1.081   .     S
C376   C1177   1.388   1_554 S
C377   C378    1.527   .     S
C377   O440    1.413   .     S
C377   H397    1.108   .     S
C377   H398    1.116   .     S
C378   C379    1.525   .     S
C378   H399    1.109   .     S
C378   H400    1.111   .     S
C379   H403    1.110   .     S
C379   H401    1.111   .     S
C379   H490    1.111   .     S
C380   C381    1.531   .     S
C380   H406    1.117   .     S
C380   H405    1.106   .     S
C380   O432    1.419   .     S
C381   H407    1.111   .     S
C381   C382    1.526   .     S
C381   H408    1.111   .     S
C382   H409    1.111   .     S
C382   H411    1.110   .     S
C383   H413    1.111   .     S
C383   H414    1.111   .     S
C383   N429    1.446   .     S
C383   H416    1.109   .     S
C384   H420    1.110   .     S
C384   H419    1.110   .     S
C384   H418    1.111   .     S
C384   N430    1.447   .     S
C385   H421    1.083   .     S
C385   C1168   1.388   .     S
C386   H422    1.083   .     S
C387   H423    1.083   .     S
C387   C390    1.401   .     A
C387   C477    1.382   .     S
C388   C390    1.401   .     A
C388   H424    1.083   .     S
C388   C474    1.382   .     S
C389   H425    1.083   .     S
Cu391  O436    1.964   .     S
Cu391  N427    2.013   .     S
Cu391  Cu392   2.679   .     S
Cu391  O431    1.962   .     S
Cu391  O434    1.962   .     S
Cu391  O438    1.962   .     S
Cu392  O435    1.962   .     S
Cu392  O439    1.962   .     S
Cu392  O433    1.962   .     S
Cu392  N428    2.013   .     S
Cu392  O437    1.964   .     S
H410   C470    1.110   .     S
H412   N429    1.031   .     S
H417   N430    1.030   .     S
C441   C442    1.448   .     S
C441   O519    1.291   .     A
C441   O523    1.291   .     A
C442   C474    1.401   .     A
C442   C477    1.400   .     A
C443   H514    1.082   .     S
C443   N516    1.367   .     A
C444   N515    1.366   .     A
C444   H482    1.082   .     S
C444   C709    1.416   .     S
C445   H483    1.078   .     S
C445   N516    1.367   .     A
C446   N515    1.368   .     A
C446   H484    1.082   .     S
C446   C707    1.417   .     S
C447   O527    1.289   .     A
C447   O524    1.290   .     A
C447   C453    1.450   .     S
C448   O525    1.291   .     A
C448   C451    1.450   .     S
C448   O526    1.289   .     A
C449   O528    1.385   .     S
C449   C460    1.403   .     A
C449   C451    1.403   .     A
C450   C461    1.401   .     A
C450   O520    1.388   .     S
C450   C453    1.405   .     A
C451   C454    1.404   .     A
C452   O522    1.291   .     A
C452   O521    1.291   .     A
C452   C478    1.448   .     S
C453   C455    1.404   .     A
C454   N517    1.427   .     S
C454   C456    1.410   .     A
C455   C457    1.410   .     A
C455   N518    1.427   .     S
C456   C462    1.405   .     A
C456   C458    1.418   .     A
C457   C464    1.405   .     A
C457   C459    1.418   .     A
C458   C460    1.413   .     A
C458   C1251   1.413   .     S
C459   C461    1.414   .     A
C459   C1250   1.413   1_554 S
C460   C473    1.403   .     A
C461   C463    1.401   .     A
C462   H481    1.081   .     S
C462   C1255   1.387   .     S
C463   H503    1.082   .     S
C463   C1254   1.387   1_554 S
C464   H492    1.081   .     S
C464   C1265   1.388   1_554 S
C465   C466    1.527   .     S
C465   O528    1.413   .     S
C465   H485    1.108   .     S
C465   H486    1.116   .     S
C466   C467    1.525   .     S
C466   H487    1.109   .     S
C466   H488    1.111   .     S
C467   H491    1.110   .     S
C467   H489    1.111   .     S
C467   H314    1.111   1_655 S
C468   C469    1.531   .     S
C468   H494    1.117   .     S
C468   H493    1.106   .     S
C468   O520    1.419   .     S
C469   H495    1.111   .     S
C469   C470    1.526   .     S
C469   H496    1.111   .     S
C470   H497    1.111   .     S
C470   H499    1.110   .     S
C471   H501    1.111   .     S
C471   H502    1.111   .     S
C471   N517    1.446   .     S
C471   H504    1.109   .     S
C472   H508    1.110   .     S
C472   H507    1.110   .     S
C472   H506    1.111   .     S
C472   N518    1.447   .     S
C473   H509    1.083   .     S
C473   C1256   1.388   .     S
C474   H510    1.083   .     S
C475   H511    1.083   .     S
C475   C478    1.401   .     A
C475   C301    1.382   1_655 S
C476   C478    1.401   .     A
C476   H512    1.083   .     S
C476   C298    1.382   1_655 S
C477   H513    1.083   .     S
Cu479  O524    1.964   .     S
Cu479  N515    2.013   .     S
Cu479  Cu480   2.679   .     S
Cu479  O519    1.962   .     S
Cu479  O522    1.962   .     S
Cu479  O526    1.962   .     S
Cu480  O523    1.962   .     S
Cu480  O527    1.962   .     S
Cu480  O521    1.962   .     S
Cu480  N516    2.013   .     S
Cu480  O525    1.964   .     S
H498   C294    1.110   1_655 S
H500   N517    1.031   .     S
H505   N518    1.030   .     S
C529   C530    1.448   .     S
C529   O607    1.291   .     A
C529   O611    1.291   .     A
C530   C562    1.401   .     A
C530   C565    1.400   .     A
C531   H602    1.082   .     S
C531   N604    1.367   .     A
C532   N603    1.366   .     A
C532   H570    1.082   .     S
C532   C5      1.416   1_565 S
C533   H571    1.078   .     S
C533   N604    1.367   .     A
C534   N603    1.368   .     A
C534   H572    1.082   .     S
C534   C3      1.417   1_565 S
C535   O615    1.289   .     A
C535   O612    1.290   .     A
C535   C541    1.450   .     S
C536   O613    1.291   .     A
C536   C539    1.450   .     S
C536   O614    1.289   .     A
C537   O616    1.385   .     S
C537   C548    1.403   .     A
C537   C539    1.403   .     A
C538   C549    1.401   .     A
C538   O608    1.388   .     S
C538   C541    1.405   .     A
C539   C542    1.404   .     A
C540   O610    1.291   .     A
C540   O609    1.291   .     A
C540   C566    1.448   .     S
C541   C543    1.404   .     A
C542   N605    1.427   .     S
C542   C544    1.410   .     A
C543   C545    1.410   .     A
C543   N606    1.427   .     S
C544   C550    1.405   .     A
C544   C546    1.418   .     A
C545   C552    1.405   .     A
C545   C547    1.418   .     A
C546   C548    1.413   .     A
C546   C1339   1.413   .     S
C547   C549    1.414   .     A
C547   C1338   1.413   1_554 S
C548   C561    1.403   .     A
C549   C551    1.401   .     A
C550   H569    1.081   .     S
C550   C1343   1.387   .     S
C551   H591    1.082   .     S
C551   C1342   1.387   1_554 S
C552   H580    1.081   .     S
C552   C1353   1.388   1_554 S
C553   C554    1.527   .     S
C553   O616    1.413   .     S
C553   H573    1.108   .     S
C553   H574    1.116   .     S
C554   C555    1.525   .     S
C554   H575    1.109   .     S
C554   H576    1.111   .     S
C555   H579    1.110   .     S
C555   H577    1.111   .     S
C555   H666    1.111   .     S
C556   C557    1.531   .     S
C556   H582    1.117   .     S
C556   H581    1.106   .     S
C556   O608    1.419   .     S
C557   H583    1.111   .     S
C557   C558    1.526   .     S
C557   H584    1.111   .     S
C558   H585    1.111   .     S
C558   H587    1.110   .     S
C558   H762    1.110   1_455 S
C559   H589    1.111   .     S
C559   H590    1.111   .     S
C559   N605    1.446   .     S
C559   H592    1.109   .     S
C560   H596    1.110   .     S
C560   H595    1.110   .     S
C560   H594    1.111   .     S
C560   N606    1.447   .     S
C561   H597    1.083   .     S
C561   C1344   1.388   .     S
C562   H598    1.083   .     S
C562   C740    1.382   1_455 S
C563   H599    1.083   .     S
C563   C566    1.401   .     A
C563   C653    1.382   .     S
C564   C566    1.401   .     A
C564   H600    1.083   .     S
C564   C650    1.382   .     S
C565   H601    1.083   .     S
C565   C739    1.382   1_455 S
Cu567  O612    1.964   .     S
Cu567  N603    2.013   .     S
Cu567  Cu568   2.679   .     S
Cu567  O607    1.962   .     S
Cu567  O610    1.962   .     S
Cu567  O614    1.962   .     S
Cu568  O611    1.962   .     S
Cu568  O615    1.962   .     S
Cu568  O609    1.962   .     S
Cu568  N604    2.013   .     S
Cu568  O613    1.964   .     S
H578   C731    1.111   1_455 S
H586   C646    1.110   .     S
H588   N605    1.031   .     S
H593   N606    1.030   .     S
C617   C618    1.448   .     S
C617   O695    1.291   .     A
C617   O699    1.291   .     A
C618   C650    1.401   .     A
C618   C653    1.400   .     A
C619   H690    1.082   .     S
C619   N692    1.367   .     A
C620   N691    1.366   .     A
C620   H658    1.082   .     S
C620   C93     1.416   1_565 S
C621   H659    1.078   .     S
C621   N692    1.367   .     A
C622   N691    1.368   .     A
C622   H660    1.082   .     S
C622   C91     1.417   1_565 S
C623   O703    1.289   .     A
C623   O700    1.290   .     A
C623   C629    1.450   .     S
C624   O701    1.291   .     A
C624   C627    1.450   .     S
C624   O702    1.289   .     A
C625   O704    1.385   .     S
C625   C636    1.403   .     A
C625   C627    1.403   .     A
C626   C637    1.401   .     A
C626   O696    1.388   .     S
C626   C629    1.405   .     A
C627   C630    1.404   .     A
C628   O698    1.291   .     A
C628   O697    1.291   .     A
C628   C654    1.448   .     S
C629   C631    1.404   .     A
C630   N693    1.427   .     S
C630   C632    1.410   .     A
C631   C633    1.410   .     A
C631   N694    1.427   .     S
C632   C638    1.405   .     A
C632   C634    1.418   .     A
C633   C640    1.405   .     A
C633   C635    1.418   .     A
C634   C636    1.413   .     A
C634   C1427   1.413   .     S
C635   C637    1.414   .     A
C635   C1426   1.413   1_554 S
C636   C649    1.403   .     A
C637   C639    1.401   .     A
C638   H657    1.081   .     S
C638   C1431   1.387   .     S
C639   H679    1.082   .     S
C639   C1430   1.387   1_554 S
C640   H668    1.081   .     S
C640   C1441   1.388   1_554 S
C641   C642    1.527   .     S
C641   O704    1.413   .     S
C641   H661    1.108   .     S
C641   H662    1.116   .     S
C642   C643    1.525   .     S
C642   H663    1.109   .     S
C642   H664    1.111   .     S
C643   H667    1.110   .     S
C643   H665    1.111   .     S
C643   H754    1.111   .     S
C644   C645    1.531   .     S
C644   H670    1.117   .     S
C644   H669    1.106   .     S
C644   O696    1.419   .     S
C645   H671    1.111   .     S
C645   C646    1.526   .     S
C645   H672    1.111   .     S
C646   H673    1.111   .     S
C646   H675    1.110   .     S
C647   H677    1.111   .     S
C647   H678    1.111   .     S
C647   N693    1.446   .     S
C647   H680    1.109   .     S
C648   H684    1.110   .     S
C648   H683    1.110   .     S
C648   H682    1.111   .     S
C648   N694    1.447   .     S
C649   H685    1.083   .     S
C649   C1432   1.388   .     S
C650   H686    1.083   .     S
C651   H687    1.083   .     S
C651   C654    1.401   .     A
C651   C741    1.382   .     S
C652   C654    1.401   .     A
C652   H688    1.083   .     S
C652   C738    1.382   .     S
C653   H689    1.083   .     S
Cu655  O700    1.964   .     S
Cu655  N691    2.013   .     S
Cu655  Cu656   2.679   .     S
Cu655  O695    1.962   .     S
Cu655  O698    1.962   .     S
Cu655  O702    1.962   .     S
Cu656  O699    1.962   .     S
Cu656  O703    1.962   .     S
Cu656  O697    1.962   .     S
Cu656  N692    2.013   .     S
Cu656  O701    1.964   .     S
H674   C734    1.110   .     S
H676   N693    1.031   .     S
H681   N694    1.030   .     S
C705   C706    1.448   .     S
C705   O783    1.291   .     A
C705   O787    1.291   .     A
C706   C738    1.401   .     A
C706   C741    1.400   .     A
C707   H778    1.082   .     S
C707   N780    1.367   .     A
C708   N779    1.366   .     A
C708   H746    1.082   .     S
C708   C181    1.416   1_565 S
C709   H747    1.078   .     S
C709   N780    1.367   .     A
C710   N779    1.368   .     A
C710   H748    1.082   .     S
C710   C179    1.417   1_565 S
C711   O791    1.289   .     A
C711   O788    1.290   .     A
C711   C717    1.450   .     S
C712   O789    1.291   .     A
C712   C715    1.450   .     S
C712   O790    1.289   .     A
C713   O792    1.385   .     S
C713   C724    1.403   .     A
C713   C715    1.403   .     A
C714   C725    1.401   .     A
C714   O784    1.388   .     S
C714   C717    1.405   .     A
C715   C718    1.404   .     A
C716   O786    1.291   .     A
C716   O785    1.291   .     A
C716   C742    1.448   .     S
C717   C719    1.404   .     A
C718   N781    1.427   .     S
C718   C720    1.410   .     A
C719   C721    1.410   .     A
C719   N782    1.427   .     S
C720   C726    1.405   .     A
C720   C722    1.418   .     A
C721   C728    1.405   .     A
C721   C723    1.418   .     A
C722   C724    1.413   .     A
C722   C1515   1.413   .     S
C723   C725    1.414   .     A
C723   C1514   1.413   1_554 S
C724   C737    1.403   .     A
C725   C727    1.401   .     A
C726   H745    1.081   .     S
C726   C1519   1.387   .     S
C727   H767    1.082   .     S
C727   C1518   1.387   1_554 S
C728   H756    1.081   .     S
C728   C1529   1.388   1_554 S
C729   C730    1.527   .     S
C729   O792    1.413   .     S
C729   H749    1.108   .     S
C729   H750    1.116   .     S
C730   C731    1.525   .     S
C730   H751    1.109   .     S
C730   H752    1.111   .     S
C731   H755    1.110   .     S
C731   H753    1.111   .     S
C731   H578    1.111   1_655 S
C732   C733    1.531   .     S
C732   H758    1.117   .     S
C732   H757    1.106   .     S
C732   O784    1.419   .     S
C733   H759    1.111   .     S
C733   C734    1.526   .     S
C733   H760    1.111   .     S
C734   H761    1.111   .     S
C734   H763    1.110   .     S
C735   H765    1.111   .     S
C735   H766    1.111   .     S
C735   N781    1.446   .     S
C735   H768    1.109   .     S
C736   H772    1.110   .     S
C736   H771    1.110   .     S
C736   H770    1.111   .     S
C736   N782    1.447   .     S
C737   H773    1.083   .     S
C737   C1520   1.388   .     S
C738   H774    1.083   .     S
C739   H775    1.083   .     S
C739   C742    1.401   .     A
C739   C565    1.382   1_655 S
C740   C742    1.401   .     A
C740   H776    1.083   .     S
C740   C562    1.382   1_655 S
C741   H777    1.083   .     S
Cu743  O788    1.964   .     S
Cu743  N779    2.013   .     S
Cu743  Cu744   2.679   .     S
Cu743  O783    1.962   .     S
Cu743  O786    1.962   .     S
Cu743  O790    1.962   .     S
Cu744  O787    1.962   .     S
Cu744  O791    1.962   .     S
Cu744  O785    1.962   .     S
Cu744  N780    2.013   .     S
Cu744  O789    1.964   .     S
H762   C558    1.110   1_655 S
H764   N781    1.031   .     S
H769   N782    1.030   .     S
C793   C794    1.448   .     S
C793   O871    1.291   .     A
C793   O875    1.291   .     A
C794   C826    1.401   .     A
C794   C829    1.400   .     A
C795   H866    1.082   .     S
C795   N868    1.367   .     A
C795   C1326   1.417   1_545 S
C796   N867    1.366   .     A
C796   H834    1.082   .     S
C796   C1061   1.416   .     S
C797   H835    1.078   .     S
C797   N868    1.367   .     A
C797   C1324   1.416   1_545 S
C798   N867    1.368   .     A
C798   H836    1.082   .     S
C798   C1059   1.417   .     S
C799   O879    1.289   .     A
C799   O876    1.290   .     A
C799   C805    1.450   .     S
C800   O877    1.291   .     A
C800   C803    1.450   .     S
C800   O878    1.289   .     A
C801   O880    1.385   .     S
C801   C812    1.403   .     A
C801   C803    1.403   .     A
C802   C813    1.401   .     A
C802   O872    1.388   .     S
C802   C805    1.405   .     A
C803   C806    1.404   .     A
C804   O874    1.291   .     A
C804   O873    1.291   .     A
C804   C830    1.448   .     S
C805   C807    1.404   .     A
C806   N869    1.427   .     S
C806   C808    1.410   .     A
C807   C809    1.410   .     A
C807   N870    1.427   .     S
C808   C814    1.405   .     A
C808   C810    1.418   .     A
C809   C816    1.405   .     A
C809   C811    1.418   .     A
C810   C812    1.413   .     A
C810   C19     1.413   1_556 S
C811   C813    1.414   .     A
C812   C825    1.403   .     A
C813   C815    1.401   .     A
C814   H833    1.081   .     S
C814   C23     1.387   1_556 S
C815   H855    1.082   .     S
C816   H844    1.081   .     S
C817   C818    1.527   .     S
C817   O880    1.413   .     S
C817   H837    1.108   .     S
C817   H838    1.116   .     S
C818   C819    1.525   .     S
C818   H839    1.109   .     S
C818   H840    1.111   .     S
C819   H843    1.110   .     S
C819   H841    1.111   .     S
C819   H930    1.111   .     S
C820   C821    1.531   .     S
C820   H846    1.117   .     S
C820   H845    1.106   .     S
C820   O872    1.419   .     S
C821   H847    1.111   .     S
C821   C822    1.526   .     S
C821   H848    1.111   .     S
C822   H849    1.111   .     S
C822   H851    1.110   .     S
C822   H1026   1.110   1_455 S
C823   H853    1.111   .     S
C823   H854    1.111   .     S
C823   N869    1.446   .     S
C823   H856    1.109   .     S
C824   H860    1.110   .     S
C824   H859    1.110   .     S
C824   H858    1.111   .     S
C824   N870    1.447   .     S
C825   H861    1.083   .     S
C825   C24     1.388   1_556 S
C826   H862    1.083   .     S
C826   C1004   1.382   1_455 S
C827   H863    1.083   .     S
C827   C830    1.401   .     A
C827   C917    1.382   .     S
C828   C830    1.401   .     A
C828   H864    1.083   .     S
C828   C914    1.382   .     S
C829   H865    1.083   .     S
C829   C1003   1.382   1_455 S
Cu831  O876    1.964   .     S
Cu831  N867    2.013   .     S
Cu831  Cu832   2.679   .     S
Cu831  O871    1.962   .     S
Cu831  O874    1.962   .     S
Cu831  O878    1.962   .     S
Cu832  O875    1.962   .     S
Cu832  O879    1.962   .     S
Cu832  O873    1.962   .     S
Cu832  N868    2.013   .     S
Cu832  O877    1.964   .     S
H842   C995    1.111   1_455 S
H850   C910    1.110   .     S
H852   N869    1.031   .     S
H857   N870    1.030   .     S
C881   C882    1.448   .     S
C881   O959    1.291   .     A
C881   O963    1.291   .     A
C882   C914    1.401   .     A
C882   C917    1.400   .     A
C883   H954    1.082   .     S
C883   N956    1.367   .     A
C883   C1414   1.417   1_545 S
C884   N955    1.366   .     A
C884   H922    1.082   .     S
C884   C1149   1.416   .     S
C885   H923    1.078   .     S
C885   N956    1.367   .     A
C885   C1412   1.416   1_545 S
C886   N955    1.368   .     A
C886   H924    1.082   .     S
C886   C1147   1.417   .     S
C887   O967    1.289   .     A
C887   O964    1.290   .     A
C887   C893    1.450   .     S
C888   O965    1.291   .     A
C888   C891    1.450   .     S
C888   O966    1.289   .     A
C889   O968    1.385   .     S
C889   C900    1.403   .     A
C889   C891    1.403   .     A
C890   C901    1.401   .     A
C890   O960    1.388   .     S
C890   C893    1.405   .     A
C891   C894    1.404   .     A
C892   O962    1.291   .     A
C892   O961    1.291   .     A
C892   C918    1.448   .     S
C893   C895    1.404   .     A
C894   N957    1.427   .     S
C894   C896    1.410   .     A
C895   C897    1.410   .     A
C895   N958    1.427   .     S
C896   C902    1.405   .     A
C896   C898    1.418   .     A
C897   C904    1.405   .     A
C897   C899    1.418   .     A
C898   C900    1.413   .     A
C898   C107    1.413   1_556 S
C899   C901    1.414   .     A
C900   C913    1.403   .     A
C901   C903    1.401   .     A
C902   H921    1.081   .     S
C902   C111    1.387   1_556 S
C903   H943    1.082   .     S
C904   H932    1.081   .     S
C905   C906    1.527   .     S
C905   O968    1.413   .     S
C905   H925    1.108   .     S
C905   H926    1.116   .     S
C906   C907    1.525   .     S
C906   H927    1.109   .     S
C906   H928    1.111   .     S
C907   H931    1.110   .     S
C907   H929    1.111   .     S
C907   H1018   1.111   .     S
C908   C909    1.531   .     S
C908   H934    1.117   .     S
C908   H933    1.106   .     S
C908   O960    1.419   .     S
C909   H935    1.111   .     S
C909   C910    1.526   .     S
C909   H936    1.111   .     S
C910   H937    1.111   .     S
C910   H939    1.110   .     S
C911   H941    1.111   .     S
C911   H942    1.111   .     S
C911   N957    1.446   .     S
C911   H944    1.109   .     S
C912   H948    1.110   .     S
C912   H947    1.110   .     S
C912   H946    1.111   .     S
C912   N958    1.447   .     S
C913   H949    1.083   .     S
C913   C112    1.388   1_556 S
C914   H950    1.083   .     S
C915   H951    1.083   .     S
C915   C918    1.401   .     A
C915   C1005   1.382   .     S
C916   C918    1.401   .     A
C916   H952    1.083   .     S
C916   C1002   1.382   .     S
C917   H953    1.083   .     S
Cu919  O964    1.964   .     S
Cu919  N955    2.013   .     S
Cu919  Cu920   2.679   .     S
Cu919  O959    1.962   .     S
Cu919  O962    1.962   .     S
Cu919  O966    1.962   .     S
Cu920  O963    1.962   .     S
Cu920  O967    1.962   .     S
Cu920  O961    1.962   .     S
Cu920  N956    2.013   .     S
Cu920  O965    1.964   .     S
H938   C998    1.110   .     S
H940   N957    1.031   .     S
H945   N958    1.030   .     S
C969   C970    1.448   .     S
C969   O1047   1.291   .     A
C969   O1051   1.291   .     A
C970   C1002   1.401   .     A
C970   C1005   1.400   .     A
C971   H1042   1.082   .     S
C971   N1044   1.367   .     A
C971   C1502   1.417   1_545 S
C972   N1043   1.366   .     A
C972   H1010   1.082   .     S
C972   C1237   1.416   .     S
C973   H1011   1.078   .     S
C973   N1044   1.367   .     A
C973   C1500   1.416   1_545 S
C974   N1043   1.368   .     A
C974   H1012   1.082   .     S
C974   C1235   1.417   .     S
C975   O1055   1.289   .     A
C975   O1052   1.290   .     A
C975   C981    1.450   .     S
C976   O1053   1.291   .     A
C976   C979    1.450   .     S
C976   O1054   1.289   .     A
C977   O1056   1.385   .     S
C977   C988    1.403   .     A
C977   C979    1.403   .     A
C978   C989    1.401   .     A
C978   O1048   1.388   .     S
C978   C981    1.405   .     A
C979   C982    1.404   .     A
C980   O1050   1.291   .     A
C980   O1049   1.291   .     A
C980   C1006   1.448   .     S
C981   C983    1.404   .     A
C982   N1045   1.427   .     S
C982   C984    1.410   .     A
C983   C985    1.410   .     A
C983   N1046   1.427   .     S
C984   C990    1.405   .     A
C984   C986    1.418   .     A
C985   C992    1.405   .     A
C985   C987    1.418   .     A
C986   C988    1.413   .     A
C986   C195    1.413   1_556 S
C987   C989    1.414   .     A
C988   C1001   1.403   .     A
C989   C991    1.401   .     A
C990   H1009   1.081   .     S
C990   C199    1.387   1_556 S
C991   H1031   1.082   .     S
C992   H1020   1.081   .     S
C993   C994    1.527   .     S
C993   O1056   1.413   .     S
C993   H1013   1.108   .     S
C993   H1014   1.116   .     S
C994   C995    1.525   .     S
C994   H1015   1.109   .     S
C994   H1016   1.111   .     S
C995   H1019   1.110   .     S
C995   H1017   1.111   .     S
C995   H842    1.111   1_655 S
C996   C997    1.531   .     S
C996   H1022   1.117   .     S
C996   H1021   1.106   .     S
C996   O1048   1.419   .     S
C997   H1023   1.111   .     S
C997   C998    1.526   .     S
C997   H1024   1.111   .     S
C998   H1025   1.111   .     S
C998   H1027   1.110   .     S
C999   H1029   1.111   .     S
C999   H1030   1.111   .     S
C999   N1045   1.446   .     S
C999   H1032   1.109   .     S
C1000  H1036   1.110   .     S
C1000  H1035   1.110   .     S
C1000  H1034   1.111   .     S
C1000  N1046   1.447   .     S
C1001  H1037   1.083   .     S
C1001  C200    1.388   1_556 S
C1002  H1038   1.083   .     S
C1003  H1039   1.083   .     S
C1003  C1006   1.401   .     A
C1003  C829    1.382   1_655 S
C1004  C1006   1.401   .     A
C1004  H1040   1.083   .     S
C1004  C826    1.382   1_655 S
C1005  H1041   1.083   .     S
Cu1007 O1052   1.964   .     S
Cu1007 N1043   2.013   .     S
Cu1007 Cu1008  2.679   .     S
Cu1007 O1047   1.962   .     S
Cu1007 O1050   1.962   .     S
Cu1007 O1054   1.962   .     S
Cu1008 O1051   1.962   .     S
Cu1008 O1055   1.962   .     S
Cu1008 O1049   1.962   .     S
Cu1008 N1044   2.013   .     S
Cu1008 O1053   1.964   .     S
H1026  C822    1.110   1_655 S
H1028  N1045   1.031   .     S
H1033  N1046   1.030   .     S
C1057  C1058   1.448   .     S
C1057  O1135   1.291   .     A
C1057  O1139   1.291   .     A
C1058  C1090   1.401   .     A
C1058  C1093   1.400   .     A
C1059  H1130   1.082   .     S
C1059  N1132   1.367   .     A
C1060  N1131   1.366   .     A
C1060  H1098   1.082   .     S
C1060  C1325   1.416   .     S
C1061  H1099   1.078   .     S
C1061  N1132   1.367   .     A
C1062  N1131   1.368   .     A
C1062  H1100   1.082   .     S
C1062  C1323   1.417   .     S
C1063  O1143   1.289   .     A
C1063  O1140   1.290   .     A
C1063  C1069   1.450   .     S
C1064  O1141   1.291   .     A
C1064  C1067   1.450   .     S
C1064  O1142   1.289   .     A
C1065  O1144   1.385   .     S
C1065  C1076   1.403   .     A
C1065  C1067   1.403   .     A
C1066  C1077   1.401   .     A
C1066  O1136   1.388   .     S
C1066  C1069   1.405   .     A
C1067  C1070   1.404   .     A
C1068  O1138   1.291   .     A
C1068  O1137   1.291   .     A
C1068  C1094   1.448   .     S
C1069  C1071   1.404   .     A
C1070  N1133   1.427   .     S
C1070  C1072   1.410   .     A
C1071  C1073   1.410   .     A
C1071  N1134   1.427   .     S
C1072  C1078   1.405   .     A
C1072  C1074   1.418   .     A
C1073  C1080   1.405   .     A
C1073  C1075   1.418   .     A
C1074  C1076   1.413   .     A
C1074  C283    1.413   1_556 S
C1075  C1077   1.414   .     A
C1076  C1089   1.403   .     A
C1077  C1079   1.401   .     A
C1078  H1097   1.081   .     S
C1078  C287    1.387   1_556 S
C1079  H1119   1.082   .     S
C1080  H1108   1.081   .     S
C1081  C1082   1.527   .     S
C1081  O1144   1.413   .     S
C1081  H1101   1.108   .     S
C1081  H1102   1.116   .     S
C1082  C1083   1.525   .     S
C1082  H1103   1.109   .     S
C1082  H1104   1.111   .     S
C1083  H1107   1.110   .     S
C1083  H1105   1.111   .     S
C1083  H1194   1.111   .     S
C1084  C1085   1.531   .     S
C1084  H1110   1.117   .     S
C1084  H1109   1.106   .     S
C1084  O1136   1.419   .     S
C1085  H1111   1.111   .     S
C1085  C1086   1.526   .     S
C1085  H1112   1.111   .     S
C1086  H1113   1.111   .     S
C1086  H1115   1.110   .     S
C1086  H1290   1.110   1_455 S
C1087  H1117   1.111   .     S
C1087  H1118   1.111   .     S
C1087  N1133   1.446   .     S
C1087  H1120   1.109   .     S
C1088  H1124   1.110   .     S
C1088  H1123   1.110   .     S
C1088  H1122   1.111   .     S
C1088  N1134   1.447   .     S
C1089  H1125   1.083   .     S
C1089  C288    1.388   1_556 S
C1090  H1126   1.083   .     S
C1090  C1268   1.382   1_455 S
C1091  H1127   1.083   .     S
C1091  C1094   1.401   .     A
C1091  C1181   1.382   .     S
C1092  C1094   1.401   .     A
C1092  H1128   1.083   .     S
C1092  C1178   1.382   .     S
C1093  H1129   1.083   .     S
C1093  C1267   1.382   1_455 S
Cu1095 O1140   1.964   .     S
Cu1095 N1131   2.013   .     S
Cu1095 Cu1096  2.679   .     S
Cu1095 O1135   1.962   .     S
Cu1095 O1138   1.962   .     S
Cu1095 O1142   1.962   .     S
Cu1096 O1139   1.962   .     S
Cu1096 O1143   1.962   .     S
Cu1096 O1137   1.962   .     S
Cu1096 N1132   2.013   .     S
Cu1096 O1141   1.964   .     S
H1106  C1259   1.111   1_455 S
H1114  C1174   1.110   .     S
H1116  N1133   1.031   .     S
H1121  N1134   1.030   .     S
C1145  C1146   1.448   .     S
C1145  O1223   1.291   .     A
C1145  O1227   1.291   .     A
C1146  C1178   1.401   .     A
C1146  C1181   1.400   .     A
C1147  H1218   1.082   .     S
C1147  N1220   1.367   .     A
C1148  N1219   1.366   .     A
C1148  H1186   1.082   .     S
C1148  C1413   1.416   .     S
C1149  H1187   1.078   .     S
C1149  N1220   1.367   .     A
C1150  N1219   1.368   .     A
C1150  H1188   1.082   .     S
C1150  C1411   1.417   .     S
C1151  O1231   1.289   .     A
C1151  O1228   1.290   .     A
C1151  C1157   1.450   .     S
C1152  O1229   1.291   .     A
C1152  C1155   1.450   .     S
C1152  O1230   1.289   .     A
C1153  O1232   1.385   .     S
C1153  C1164   1.403   .     A
C1153  C1155   1.403   .     A
C1154  C1165   1.401   .     A
C1154  O1224   1.388   .     S
C1154  C1157   1.405   .     A
C1155  C1158   1.404   .     A
C1156  O1226   1.291   .     A
C1156  O1225   1.291   .     A
C1156  C1182   1.448   .     S
C1157  C1159   1.404   .     A
C1158  N1221   1.427   .     S
C1158  C1160   1.410   .     A
C1159  C1161   1.410   .     A
C1159  N1222   1.427   .     S
C1160  C1166   1.405   .     A
C1160  C1162   1.418   .     A
C1161  C1168   1.405   .     A
C1161  C1163   1.418   .     A
C1162  C1164   1.413   .     A
C1162  C371    1.413   1_556 S
C1163  C1165   1.414   .     A
C1164  C1177   1.403   .     A
C1165  C1167   1.401   .     A
C1166  H1185   1.081   .     S
C1166  C375    1.387   1_556 S
C1167  H1207   1.082   .     S
C1168  H1196   1.081   .     S
C1169  C1170   1.527   .     S
C1169  O1232   1.413   .     S
C1169  H1189   1.108   .     S
C1169  H1190   1.116   .     S
C1170  C1171   1.525   .     S
C1170  H1191   1.109   .     S
C1170  H1192   1.111   .     S
C1171  H1195   1.110   .     S
C1171  H1193   1.111   .     S
C1171  H1282   1.111   .     S
C1172  C1173   1.531   .     S
C1172  H1198   1.117   .     S
C1172  H1197   1.106   .     S
C1172  O1224   1.419   .     S
C1173  H1199   1.111   .     S
C1173  C1174   1.526   .     S
C1173  H1200   1.111   .     S
C1174  H1201   1.111   .     S
C1174  H1203   1.110   .     S
C1175  H1205   1.111   .     S
C1175  H1206   1.111   .     S
C1175  N1221   1.446   .     S
C1175  H1208   1.109   .     S
C1176  H1212   1.110   .     S
C1176  H1211   1.110   .     S
C1176  H1210   1.111   .     S
C1176  N1222   1.447   .     S
C1177  H1213   1.083   .     S
C1177  C376    1.388   1_556 S
C1178  H1214   1.083   .     S
C1179  H1215   1.083   .     S
C1179  C1182   1.401   .     A
C1179  C1269   1.382   .     S
C1180  C1182   1.401   .     A
C1180  H1216   1.083   .     S
C1180  C1266   1.382   .     S
C1181  H1217   1.083   .     S
Cu1183 O1228   1.964   .     S
Cu1183 N1219   2.013   .     S
Cu1183 Cu1184  2.679   .     S
Cu1183 O1223   1.962   .     S
Cu1183 O1226   1.962   .     S
Cu1183 O1230   1.962   .     S
Cu1184 O1227   1.962   .     S
Cu1184 O1231   1.962   .     S
Cu1184 O1225   1.962   .     S
Cu1184 N1220   2.013   .     S
Cu1184 O1229   1.964   .     S
H1202  C1262   1.110   .     S
H1204  N1221   1.031   .     S
H1209  N1222   1.030   .     S
C1233  C1234   1.448   .     S
C1233  O1311   1.291   .     A
C1233  O1315   1.291   .     A
C1234  C1266   1.401   .     A
C1234  C1269   1.400   .     A
C1235  H1306   1.082   .     S
C1235  N1308   1.367   .     A
C1236  N1307   1.366   .     A
C1236  H1274   1.082   .     S
C1236  C1501   1.416   .     S
C1237  H1275   1.078   .     S
C1237  N1308   1.367   .     A
C1238  N1307   1.368   .     A
C1238  H1276   1.082   .     S
C1238  C1499   1.417   .     S
C1239  O1319   1.289   .     A
C1239  O1316   1.290   .     A
C1239  C1245   1.450   .     S
C1240  O1317   1.291   .     A
C1240  C1243   1.450   .     S
C1240  O1318   1.289   .     A
C1241  O1320   1.385   .     S
C1241  C1252   1.403   .     A
C1241  C1243   1.403   .     A
C1242  C1253   1.401   .     A
C1242  O1312   1.388   .     S
C1242  C1245   1.405   .     A
C1243  C1246   1.404   .     A
C1244  O1314   1.291   .     A
C1244  O1313   1.291   .     A
C1244  C1270   1.448   .     S
C1245  C1247   1.404   .     A
C1246  N1309   1.427   .     S
C1246  C1248   1.410   .     A
C1247  C1249   1.410   .     A
C1247  N1310   1.427   .     S
C1248  C1254   1.405   .     A
C1248  C1250   1.418   .     A
C1249  C1256   1.405   .     A
C1249  C1251   1.418   .     A
C1250  C1252   1.413   .     A
C1250  C459    1.413   1_556 S
C1251  C1253   1.414   .     A
C1252  C1265   1.403   .     A
C1253  C1255   1.401   .     A
C1254  H1273   1.081   .     S
C1254  C463    1.387   1_556 S
C1255  H1295   1.082   .     S
C1256  H1284   1.081   .     S
C1257  C1258   1.527   .     S
C1257  O1320   1.413   .     S
C1257  H1277   1.108   .     S
C1257  H1278   1.116   .     S
C1258  C1259   1.525   .     S
C1258  H1279   1.109   .     S
C1258  H1280   1.111   .     S
C1259  H1283   1.110   .     S
C1259  H1281   1.111   .     S
C1259  H1106   1.111   1_655 S
C1260  C1261   1.531   .     S
C1260  H1286   1.117   .     S
C1260  H1285   1.106   .     S
C1260  O1312   1.419   .     S
C1261  H1287   1.111   .     S
C1261  C1262   1.526   .     S
C1261  H1288   1.111   .     S
C1262  H1289   1.111   .     S
C1262  H1291   1.110   .     S
C1263  H1293   1.111   .     S
C1263  H1294   1.111   .     S
C1263  N1309   1.446   .     S
C1263  H1296   1.109   .     S
C1264  H1300   1.110   .     S
C1264  H1299   1.110   .     S
C1264  H1298   1.111   .     S
C1264  N1310   1.447   .     S
C1265  H1301   1.083   .     S
C1265  C464    1.388   1_556 S
C1266  H1302   1.083   .     S
C1267  H1303   1.083   .     S
C1267  C1270   1.401   .     A
C1267  C1093   1.382   1_655 S
C1268  C1270   1.401   .     A
C1268  H1304   1.083   .     S
C1268  C1090   1.382   1_655 S
C1269  H1305   1.083   .     S
Cu1271 O1316   1.964   .     S
Cu1271 N1307   2.013   .     S
Cu1271 Cu1272  2.679   .     S
Cu1271 O1311   1.962   .     S
Cu1271 O1314   1.962   .     S
Cu1271 O1318   1.962   .     S
Cu1272 O1315   1.962   .     S
Cu1272 O1319   1.962   .     S
Cu1272 O1313   1.962   .     S
Cu1272 N1308   2.013   .     S
Cu1272 O1317   1.964   .     S
H1290  C1086   1.110   1_655 S
H1292  N1309   1.031   .     S
H1297  N1310   1.030   .     S
C1321  C1322   1.448   .     S
C1321  O1399   1.291   .     A
C1321  O1403   1.291   .     A
C1322  C1354   1.401   .     A
C1322  C1357   1.400   .     A
C1323  H1394   1.082   .     S
C1323  N1396   1.367   .     A
C1324  N1395   1.366   .     A
C1324  H1362   1.082   .     S
C1324  C797    1.416   1_565 S
C1325  H1363   1.078   .     S
C1325  N1396   1.367   .     A
C1326  N1395   1.368   .     A
C1326  H1364   1.082   .     S
C1326  C795    1.417   1_565 S
C1327  O1407   1.289   .     A
C1327  O1404   1.290   .     A
C1327  C1333   1.450   .     S
C1328  O1405   1.291   .     A
C1328  C1331   1.450   .     S
C1328  O1406   1.289   .     A
C1329  O1408   1.385   .     S
C1329  C1340   1.403   .     A
C1329  C1331   1.403   .     A
C1330  C1341   1.401   .     A
C1330  O1400   1.388   .     S
C1330  C1333   1.405   .     A
C1331  C1334   1.404   .     A
C1332  O1402   1.291   .     A
C1332  O1401   1.291   .     A
C1332  C1358   1.448   .     S
C1333  C1335   1.404   .     A
C1334  N1397   1.427   .     S
C1334  C1336   1.410   .     A
C1335  C1337   1.410   .     A
C1335  N1398   1.427   .     S
C1336  C1342   1.405   .     A
C1336  C1338   1.418   .     A
C1337  C1344   1.405   .     A
C1337  C1339   1.418   .     A
C1338  C1340   1.413   .     A
C1338  C547    1.413   1_556 S
C1339  C1341   1.414   .     A
C1340  C1353   1.403   .     A
C1341  C1343   1.401   .     A
C1342  H1361   1.081   .     S
C1342  C551    1.387   1_556 S
C1343  H1383   1.082   .     S
C1344  H1372   1.081   .     S
C1345  C1346   1.527   .     S
C1345  O1408   1.413   .     S
C1345  H1365   1.108   .     S
C1345  H1366   1.116   .     S
C1346  C1347   1.525   .     S
C1346  H1367   1.109   .     S
C1346  H1368   1.111   .     S
C1347  H1371   1.110   .     S
C1347  H1369   1.111   .     S
C1347  H1458   1.111   .     S
C1348  C1349   1.531   .     S
C1348  H1374   1.117   .     S
C1348  H1373   1.106   .     S
C1348  O1400   1.419   .     S
C1349  H1375   1.111   .     S
C1349  C1350   1.526   .     S
C1349  H1376   1.111   .     S
C1350  H1377   1.111   .     S
C1350  H1379   1.110   .     S
C1350  H1554   1.110   1_455 S
C1351  H1381   1.111   .     S
C1351  H1382   1.111   .     S
C1351  N1397   1.446   .     S
C1351  H1384   1.109   .     S
C1352  H1388   1.110   .     S
C1352  H1387   1.110   .     S
C1352  H1386   1.111   .     S
C1352  N1398   1.447   .     S
C1353  H1389   1.083   .     S
C1353  C552    1.388   1_556 S
C1354  H1390   1.083   .     S
C1354  C1532   1.382   1_455 S
C1355  H1391   1.083   .     S
C1355  C1358   1.401   .     A
C1355  C1445   1.382   .     S
C1356  C1358   1.401   .     A
C1356  H1392   1.083   .     S
C1356  C1442   1.382   .     S
C1357  H1393   1.083   .     S
C1357  C1531   1.382   1_455 S
Cu1359 O1404   1.964   .     S
Cu1359 N1395   2.013   .     S
Cu1359 Cu1360  2.679   .     S
Cu1359 O1399   1.962   .     S
Cu1359 O1402   1.962   .     S
Cu1359 O1406   1.962   .     S
Cu1360 O1403   1.962   .     S
Cu1360 O1407   1.962   .     S
Cu1360 O1401   1.962   .     S
Cu1360 N1396   2.013   .     S
Cu1360 O1405   1.964   .     S
H1370  C1523   1.111   1_455 S
H1378  C1438   1.110   .     S
H1380  N1397   1.031   .     S
H1385  N1398   1.030   .     S
C1409  C1410   1.448   .     S
C1409  O1487   1.291   .     A
C1409  O1491   1.291   .     A
C1410  C1442   1.401   .     A
C1410  C1445   1.400   .     A
C1411  H1482   1.082   .     S
C1411  N1484   1.367   .     A
C1412  N1483   1.366   .     A
C1412  H1450   1.082   .     S
C1412  C885    1.416   1_565 S
C1413  H1451   1.078   .     S
C1413  N1484   1.367   .     A
C1414  N1483   1.368   .     A
C1414  H1452   1.082   .     S
C1414  C883    1.417   1_565 S
C1415  O1495   1.289   .     A
C1415  O1492   1.290   .     A
C1415  C1421   1.450   .     S
C1416  O1493   1.291   .     A
C1416  C1419   1.450   .     S
C1416  O1494   1.289   .     A
C1417  O1496   1.385   .     S
C1417  C1428   1.403   .     A
C1417  C1419   1.403   .     A
C1418  C1429   1.401   .     A
C1418  O1488   1.388   .     S
C1418  C1421   1.405   .     A
C1419  C1422   1.404   .     A
C1420  O1490   1.291   .     A
C1420  O1489   1.291   .     A
C1420  C1446   1.448   .     S
C1421  C1423   1.404   .     A
C1422  N1485   1.427   .     S
C1422  C1424   1.410   .     A
C1423  C1425   1.410   .     A
C1423  N1486   1.427   .     S
C1424  C1430   1.405   .     A
C1424  C1426   1.418   .     A
C1425  C1432   1.405   .     A
C1425  C1427   1.418   .     A
C1426  C1428   1.413   .     A
C1426  C635    1.413   1_556 S
C1427  C1429   1.414   .     A
C1428  C1441   1.403   .     A
C1429  C1431   1.401   .     A
C1430  H1449   1.081   .     S
C1430  C639    1.387   1_556 S
C1431  H1471   1.082   .     S
C1432  H1460   1.081   .     S
C1433  C1434   1.527   .     S
C1433  O1496   1.413   .     S
C1433  H1453   1.108   .     S
C1433  H1454   1.116   .     S
C1434  C1435   1.525   .     S
C1434  H1455   1.109   .     S
C1434  H1456   1.111   .     S
C1435  H1459   1.110   .     S
C1435  H1457   1.111   .     S
C1435  H1546   1.111   .     S
C1436  C1437   1.531   .     S
C1436  H1462   1.117   .     S
C1436  H1461   1.106   .     S
C1436  O1488   1.419   .     S
C1437  H1463   1.111   .     S
C1437  C1438   1.526   .     S
C1437  H1464   1.111   .     S
C1438  H1465   1.111   .     S
C1438  H1467   1.110   .     S
C1439  H1469   1.111   .     S
C1439  H1470   1.111   .     S
C1439  N1485   1.446   .     S
C1439  H1472   1.109   .     S
C1440  H1476   1.110   .     S
C1440  H1475   1.110   .     S
C1440  H1474   1.111   .     S
C1440  N1486   1.447   .     S
C1441  H1477   1.083   .     S
C1441  C640    1.388   1_556 S
C1442  H1478   1.083   .     S
C1443  H1479   1.083   .     S
C1443  C1446   1.401   .     A
C1443  C1533   1.382   .     S
C1444  C1446   1.401   .     A
C1444  H1480   1.083   .     S
C1444  C1530   1.382   .     S
C1445  H1481   1.083   .     S
Cu1447 O1492   1.964   .     S
Cu1447 N1483   2.013   .     S
Cu1447 Cu1448  2.679   .     S
Cu1447 O1487   1.962   .     S
Cu1447 O1490   1.962   .     S
Cu1447 O1494   1.962   .     S
Cu1448 O1491   1.962   .     S
Cu1448 O1495   1.962   .     S
Cu1448 O1489   1.962   .     S
Cu1448 N1484   2.013   .     S
Cu1448 O1493   1.964   .     S
H1466  C1526   1.110   .     S
H1468  N1485   1.031   .     S
H1473  N1486   1.030   .     S
C1497  C1498   1.448   .     S
C1497  O1575   1.291   .     A
C1497  O1579   1.291   .     A
C1498  C1530   1.401   .     A
C1498  C1533   1.400   .     A
C1499  H1570   1.082   .     S
C1499  N1572   1.367   .     A
C1500  N1571   1.366   .     A
C1500  H1538   1.082   .     S
C1500  C973    1.416   1_565 S
C1501  H1539   1.078   .     S
C1501  N1572   1.367   .     A
C1502  N1571   1.368   .     A
C1502  H1540   1.082   .     S
C1502  C971    1.417   1_565 S
C1503  O1583   1.289   .     A
C1503  O1580   1.290   .     A
C1503  C1509   1.450   .     S
C1504  O1581   1.291   .     A
C1504  C1507   1.450   .     S
C1504  O1582   1.289   .     A
C1505  O1584   1.385   .     S
C1505  C1516   1.403   .     A
C1505  C1507   1.403   .     A
C1506  C1517   1.401   .     A
C1506  O1576   1.388   .     S
C1506  C1509   1.405   .     A
C1507  C1510   1.404   .     A
C1508  O1578   1.291   .     A
C1508  O1577   1.291   .     A
C1508  C1534   1.448   .     S
C1509  C1511   1.404   .     A
C1510  N1573   1.427   .     S
C1510  C1512   1.410   .     A
C1511  C1513   1.410   .     A
C1511  N1574   1.427   .     S
C1512  C1518   1.405   .     A
C1512  C1514   1.418   .     A
C1513  C1520   1.405   .     A
C1513  C1515   1.418   .     A
C1514  C1516   1.413   .     A
C1514  C723    1.413   1_556 S
C1515  C1517   1.414   .     A
C1516  C1529   1.403   .     A
C1517  C1519   1.401   .     A
C1518  H1537   1.081   .     S
C1518  C727    1.387   1_556 S
C1519  H1559   1.082   .     S
C1520  H1548   1.081   .     S
C1521  C1522   1.527   .     S
C1521  O1584   1.413   .     S
C1521  H1541   1.108   .     S
C1521  H1542   1.116   .     S
C1522  C1523   1.525   .     S
C1522  H1543   1.109   .     S
C1522  H1544   1.111   .     S
C1523  H1547   1.110   .     S
C1523  H1545   1.111   .     S
C1523  H1370   1.111   1_655 S
C1524  C1525   1.531   .     S
C1524  H1550   1.117   .     S
C1524  H1549   1.106   .     S
C1524  O1576   1.419   .     S
C1525  H1551   1.111   .     S
C1525  C1526   1.526   .     S
C1525  H1552   1.111   .     S
C1526  H1553   1.111   .     S
C1526  H1555   1.110   .     S
C1527  H1557   1.111   .     S
C1527  H1558   1.111   .     S
C1527  N1573   1.446   .     S
C1527  H1560   1.109   .     S
C1528  H1564   1.110   .     S
C1528  H1563   1.110   .     S
C1528  H1562   1.111   .     S
C1528  N1574   1.447   .     S
C1529  H1565   1.083   .     S
C1529  C728    1.388   1_556 S
C1530  H1566   1.083   .     S
C1531  H1567   1.083   .     S
C1531  C1534   1.401   .     A
C1531  C1357   1.382   1_655 S
C1532  C1534   1.401   .     A
C1532  H1568   1.083   .     S
C1532  C1354   1.382   1_655 S
C1533  H1569   1.083   .     S
Cu1535 O1580   1.964   .     S
Cu1535 N1571   2.013   .     S
Cu1535 Cu1536  2.679   .     S
Cu1535 O1575   1.962   .     S
Cu1535 O1578   1.962   .     S
Cu1535 O1582   1.962   .     S
Cu1536 O1579   1.962   .     S
Cu1536 O1583   1.962   .     S
Cu1536 O1577   1.962   .     S
Cu1536 N1572   2.013   .     S
Cu1536 O1581   1.964   .     S
H1554  C1350   1.110   1_655 S
H1556  N1573   1.031   .     S
H1561  N1574   1.030   .     S
