data_str_m1_o10_o16_pcu_sym.224
_audit_creation_date              2020-01-03
_audit_creation_method            'Materials Studio'
_symmetry_space_group_name_H-M    'P1'
_symmetry_Int_Tables_number       1
_symmetry_cell_setting            triclinic
loop_
_symmetry_equiv_pos_as_xyz
  x,y,z
_cell_length_a                    32.5024
_cell_length_b                    32.6254
_cell_length_c                    31.1463
_cell_angle_alpha                 96.5095
_cell_angle_beta                  74.2132
_cell_angle_gamma                 98.2640
loop_
_atom_site_label
_atom_site_type_symbol
_atom_site_fract_x
_atom_site_fract_y
_atom_site_fract_z
_atom_site_U_iso_or_equiv
_atom_site_adp_type
_atom_site_occupancy
C1     C     0.05276   0.15990   0.26003   0.00000  Uiso   1.00
C2     C     0.16482   0.16050   0.06158   0.00000  Uiso   1.00
C3     C     0.23233   0.13309   0.05538   0.00000  Uiso   1.00
C4     C     0.28081   0.17385   0.23994   0.00000  Uiso   1.00
C5     C     0.13335   0.18513   0.42030   0.00000  Uiso   1.00
C6     C     0.32681   0.17639   0.23559   0.00000  Uiso   1.00
C7     C     0.00740   0.15796   0.26424   0.00000  Uiso   1.00
C8     C     0.17934   0.32238   0.23778   0.00000  Uiso   1.00
C9     C     0.15068   0.01258   0.26505   0.00000  Uiso   1.00
C10    C     0.15672   0.05609   0.25966   0.00000  Uiso   1.00
C11    C     0.17628   0.27792   0.24042   0.00000  Uiso   1.00
C12    C     0.07353   0.17175   0.48551   0.00000  Uiso   1.00
C13    C     0.18552   0.14843   0.12943   0.00000  Uiso   1.00
C14    C     0.14776   0.18417   0.37101   0.00000  Uiso   1.00
C15    C     0.24589   0.13990   0.01030   0.00000  Uiso   1.00
C16    C     0.19265   0.14445   0.08124   0.00000  Uiso   1.00
C17    C     0.08872   0.18337   0.44189   0.00000  Uiso   1.00
C18    C     0.10167   0.16268   0.00851   0.00000  Uiso   1.00
C19    C     0.14651   0.16900   0.49034   0.00000  Uiso   1.00
C20    C     0.16250   0.17912   0.44513   0.00000  Uiso   1.00
C21    C     0.17567   0.16120   0.01432   0.00000  Uiso   1.00
C22    C     0.21846   0.15516   0.48994   0.00000  Uiso   1.00
C23    C     0.23408   0.16632   0.44608   0.00000  Uiso   1.00
C24    C     0.20718   0.18095   0.42514   0.00000  Uiso   1.00
H25    H     0.25437   0.12227   0.07099   0.00000  Uiso   1.00
H26    H     0.31878   0.14150   0.29146   0.00000  Uiso   1.00
H27    H     0.20613   0.00336   0.21264   0.00000  Uiso   1.00
H28    H     0.26754   0.16479   0.42827   0.00000  Uiso   1.00
H29    H     0.27817   0.13410   0.49157   0.00000  Uiso   1.00
H30    H     0.08766   0.14866   0.03976   0.00000  Uiso   1.00
H31    H     0.03924   0.16743   0.00101   0.00000  Uiso   1.00
H32    H     0.22169   0.19207   0.39237   0.00000  Uiso   1.00
H33    H     0.01608   0.19317   0.20897   0.00000  Uiso   1.00
I34    I     0.09463   0.32723   0.31650   0.00000  Uiso   1.00
I35    I     0.11781   0.19764   0.10517   0.00000  Uiso   1.00
I36    I     0.03974   0.19057   0.41057   0.00000  Uiso   1.00
O37    O     0.16667   0.16667   0.25000   0.00000  Uiso   1.00
O38    O     0.15451   0.12637   0.15459   0.00000  Uiso   1.00
O39    O     0.12940   0.20391   0.34968   0.00000  Uiso   1.00
O40    O     0.20824   0.17759   0.14606   0.00000  Uiso   1.00
O41    O     0.17451   0.15880   0.34968   0.00000  Uiso   1.00
O42    O     0.17930   0.08019   0.28214   0.00000  Uiso   1.00
O43    O     0.14632   0.26085   0.27014   0.00000  Uiso   1.00
O44    O     0.07412   0.13291   0.23413   0.00000  Uiso   1.00
O45    O     0.26693   0.19272   0.21361   0.00000  Uiso   1.00
O46    O     0.07071   0.18878   0.28213   0.00000  Uiso   1.00
O47    O     0.25491   0.15226   0.27014   0.00000  Uiso   1.00
O48    O     0.13760   0.06944   0.23413   0.00000  Uiso   1.00
O49    O     0.20345   0.25620   0.21361   0.00000  Uiso   1.00
Zn50   Zn    0.19338   0.13994   0.28734   0.00000  Uiso   1.00
Zn51   Zn    0.13379   0.12458   0.21876   0.00000  Uiso   1.00
Zn52   Zn    0.21056   0.19775   0.20657   0.00000  Uiso   1.00
Zn53   Zn    0.12893   0.20439   0.28734   0.00000  Uiso   1.00
C54    C     0.38609   0.15990   0.26003   0.00000  Uiso   1.00
C55    C     0.49816   0.16050   0.06158   0.00000  Uiso   1.00
C56    C     0.56567   0.13309   0.05538   0.00000  Uiso   1.00
C57    C     0.61414   0.17385   0.23994   0.00000  Uiso   1.00
C58    C     0.46669   0.18513   0.42030   0.00000  Uiso   1.00
C59    C     0.66014   0.17639   0.23559   0.00000  Uiso   1.00
C60    C     0.34073   0.15796   0.26424   0.00000  Uiso   1.00
C61    C     0.51268   0.32238   0.23778   0.00000  Uiso   1.00
C62    C     0.48401   0.01258   0.26505   0.00000  Uiso   1.00
C63    C     0.49005   0.05609   0.25966   0.00000  Uiso   1.00
C64    C     0.50961   0.27792   0.24042   0.00000  Uiso   1.00
C65    C     0.40687   0.17175   0.48551   0.00000  Uiso   1.00
C66    C     0.51885   0.14843   0.12943   0.00000  Uiso   1.00
C67    C     0.48110   0.18417   0.37101   0.00000  Uiso   1.00
C68    C     0.57922   0.13990   0.01030   0.00000  Uiso   1.00
C69    C     0.52599   0.14445   0.08124   0.00000  Uiso   1.00
C70    C     0.42206   0.18337   0.44189   0.00000  Uiso   1.00
C71    C     0.43500   0.16268   0.00851   0.00000  Uiso   1.00
C72    C     0.47984   0.16900   0.49034   0.00000  Uiso   1.00
C73    C     0.49584   0.17912   0.44513   0.00000  Uiso   1.00
C74    C     0.50901   0.16120   0.01432   0.00000  Uiso   1.00
C75    C     0.55179   0.15516   0.48994   0.00000  Uiso   1.00
C76    C     0.56741   0.16632   0.44608   0.00000  Uiso   1.00
C77    C     0.54051   0.18095   0.42514   0.00000  Uiso   1.00
H78    H     0.58770   0.12227   0.07099   0.00000  Uiso   1.00
H79    H     0.65211   0.14150   0.29146   0.00000  Uiso   1.00
H80    H     0.53947   0.00336   0.21264   0.00000  Uiso   1.00
H81    H     0.60088   0.16479   0.42827   0.00000  Uiso   1.00
H82    H     0.61150   0.13410   0.49157   0.00000  Uiso   1.00
H83    H     0.42099   0.14866   0.03976   0.00000  Uiso   1.00
H84    H     0.37257   0.16743   0.00101   0.00000  Uiso   1.00
H85    H     0.55503   0.19207   0.39237   0.00000  Uiso   1.00
H86    H     0.34941   0.19317   0.20897   0.00000  Uiso   1.00
I87    I     0.42796   0.32723   0.31650   0.00000  Uiso   1.00
I88    I     0.45114   0.19764   0.10517   0.00000  Uiso   1.00
I89    I     0.37308   0.19057   0.41057   0.00000  Uiso   1.00
O90    O     0.50000   0.16667   0.25000   0.00000  Uiso   1.00
O91    O     0.48784   0.12637   0.15459   0.00000  Uiso   1.00
O92    O     0.46274   0.20391   0.34968   0.00000  Uiso   1.00
O93    O     0.54157   0.17759   0.14606   0.00000  Uiso   1.00
O94    O     0.50785   0.15880   0.34968   0.00000  Uiso   1.00
O95    O     0.51264   0.08019   0.28214   0.00000  Uiso   1.00
O96    O     0.47965   0.26085   0.27014   0.00000  Uiso   1.00
O97    O     0.40745   0.13291   0.23413   0.00000  Uiso   1.00
O98    O     0.60026   0.19272   0.21361   0.00000  Uiso   1.00
O99    O     0.40405   0.18878   0.28213   0.00000  Uiso   1.00
O100   O     0.58824   0.15226   0.27014   0.00000  Uiso   1.00
O101   O     0.47093   0.06944   0.23413   0.00000  Uiso   1.00
O102   O     0.53678   0.25620   0.21361   0.00000  Uiso   1.00
Zn103  Zn    0.52672   0.13994   0.28734   0.00000  Uiso   1.00
Zn104  Zn    0.46713   0.12458   0.21876   0.00000  Uiso   1.00
Zn105  Zn    0.54389   0.19775   0.20657   0.00000  Uiso   1.00
Zn106  Zn    0.46226   0.20439   0.28734   0.00000  Uiso   1.00
C107   C     0.71942   0.15990   0.26003   0.00000  Uiso   1.00
C108   C     0.83149   0.16050   0.06158   0.00000  Uiso   1.00
C109   C     0.89900   0.13309   0.05538   0.00000  Uiso   1.00
C110   C     0.94747   0.17385   0.23994   0.00000  Uiso   1.00
C111   C     0.80002   0.18513   0.42030   0.00000  Uiso   1.00
C112   C     0.99347   0.17639   0.23559   0.00000  Uiso   1.00
C113   C     0.67407   0.15796   0.26424   0.00000  Uiso   1.00
C114   C     0.84601   0.32238   0.23778   0.00000  Uiso   1.00
C115   C     0.81735   0.01258   0.26505   0.00000  Uiso   1.00
C116   C     0.82339   0.05609   0.25966   0.00000  Uiso   1.00
C117   C     0.84294   0.27792   0.24042   0.00000  Uiso   1.00
C118   C     0.74020   0.17175   0.48551   0.00000  Uiso   1.00
C119   C     0.85218   0.14843   0.12943   0.00000  Uiso   1.00
C120   C     0.81443   0.18417   0.37101   0.00000  Uiso   1.00
C121   C     0.91256   0.13990   0.01030   0.00000  Uiso   1.00
C122   C     0.85932   0.14445   0.08124   0.00000  Uiso   1.00
C123   C     0.75539   0.18337   0.44189   0.00000  Uiso   1.00
C124   C     0.76834   0.16268   0.00851   0.00000  Uiso   1.00
C125   C     0.81317   0.16900   0.49034   0.00000  Uiso   1.00
C126   C     0.82917   0.17912   0.44513   0.00000  Uiso   1.00
C127   C     0.84234   0.16120   0.01432   0.00000  Uiso   1.00
C128   C     0.88513   0.15516   0.48994   0.00000  Uiso   1.00
C129   C     0.90074   0.16632   0.44608   0.00000  Uiso   1.00
C130   C     0.87385   0.18095   0.42514   0.00000  Uiso   1.00
H131   H     0.92104   0.12227   0.07099   0.00000  Uiso   1.00
H132   H     0.98545   0.14150   0.29146   0.00000  Uiso   1.00
H133   H     0.87280   0.00336   0.21264   0.00000  Uiso   1.00
H134   H     0.93421   0.16479   0.42827   0.00000  Uiso   1.00
H135   H     0.94483   0.13410   0.49157   0.00000  Uiso   1.00
H136   H     0.75433   0.14866   0.03976   0.00000  Uiso   1.00
H137   H     0.70590   0.16743   0.00101   0.00000  Uiso   1.00
H138   H     0.88836   0.19207   0.39237   0.00000  Uiso   1.00
H139   H     0.68275   0.19317   0.20897   0.00000  Uiso   1.00
I140   I     0.76129   0.32723   0.31650   0.00000  Uiso   1.00
I141   I     0.78447   0.19764   0.10517   0.00000  Uiso   1.00
I142   I     0.70641   0.19057   0.41057   0.00000  Uiso   1.00
O143   O     0.83333   0.16667   0.25000   0.00000  Uiso   1.00
O144   O     0.82118   0.12637   0.15459   0.00000  Uiso   1.00
O145   O     0.79607   0.20391   0.34968   0.00000  Uiso   1.00
O146   O     0.87491   0.17759   0.14606   0.00000  Uiso   1.00
O147   O     0.84118   0.15880   0.34968   0.00000  Uiso   1.00
O148   O     0.84597   0.08019   0.28214   0.00000  Uiso   1.00
O149   O     0.81298   0.26085   0.27014   0.00000  Uiso   1.00
O150   O     0.74078   0.13291   0.23413   0.00000  Uiso   1.00
O151   O     0.93360   0.19272   0.21361   0.00000  Uiso   1.00
O152   O     0.73738   0.18878   0.28213   0.00000  Uiso   1.00
O153   O     0.92158   0.15226   0.27014   0.00000  Uiso   1.00
O154   O     0.80426   0.06944   0.23413   0.00000  Uiso   1.00
O155   O     0.87012   0.25620   0.21361   0.00000  Uiso   1.00
Zn156  Zn    0.86005   0.13994   0.28734   0.00000  Uiso   1.00
Zn157  Zn    0.80046   0.12458   0.21876   0.00000  Uiso   1.00
Zn158  Zn    0.87723   0.19775   0.20657   0.00000  Uiso   1.00
Zn159  Zn    0.79560   0.20439   0.28734   0.00000  Uiso   1.00
C160   C     0.05276   0.49324   0.26003   0.00000  Uiso   1.00
C161   C     0.16482   0.49383   0.06158   0.00000  Uiso   1.00
C162   C     0.23233   0.46643   0.05538   0.00000  Uiso   1.00
C163   C     0.28081   0.50719   0.23994   0.00000  Uiso   1.00
C164   C     0.13335   0.51846   0.42030   0.00000  Uiso   1.00
C165   C     0.32681   0.50972   0.23559   0.00000  Uiso   1.00
C166   C     0.00740   0.49129   0.26424   0.00000  Uiso   1.00
C167   C     0.17934   0.65572   0.23778   0.00000  Uiso   1.00
C168   C     0.15068   0.34591   0.26505   0.00000  Uiso   1.00
C169   C     0.15672   0.38942   0.25966   0.00000  Uiso   1.00
C170   C     0.17628   0.61125   0.24042   0.00000  Uiso   1.00
C171   C     0.07353   0.50508   0.48551   0.00000  Uiso   1.00
C172   C     0.18552   0.48176   0.12943   0.00000  Uiso   1.00
C173   C     0.14776   0.51751   0.37101   0.00000  Uiso   1.00
C174   C     0.24589   0.47324   0.01030   0.00000  Uiso   1.00
C175   C     0.19265   0.47778   0.08124   0.00000  Uiso   1.00
C176   C     0.08872   0.51671   0.44189   0.00000  Uiso   1.00
C177   C     0.10167   0.49601   0.00851   0.00000  Uiso   1.00
C178   C     0.14651   0.50234   0.49034   0.00000  Uiso   1.00
C179   C     0.16250   0.51246   0.44513   0.00000  Uiso   1.00
C180   C     0.17567   0.49453   0.01432   0.00000  Uiso   1.00
C181   C     0.21846   0.48850   0.48994   0.00000  Uiso   1.00
C182   C     0.23408   0.49966   0.44608   0.00000  Uiso   1.00
C183   C     0.20718   0.51429   0.42514   0.00000  Uiso   1.00
H184   H     0.25437   0.45561   0.07099   0.00000  Uiso   1.00
H185   H     0.31878   0.47483   0.29146   0.00000  Uiso   1.00
H186   H     0.20613   0.33669   0.21264   0.00000  Uiso   1.00
H187   H     0.26754   0.49812   0.42827   0.00000  Uiso   1.00
H188   H     0.27817   0.46744   0.49157   0.00000  Uiso   1.00
H189   H     0.08766   0.48199   0.03976   0.00000  Uiso   1.00
H190   H     0.03924   0.50077   0.00101   0.00000  Uiso   1.00
H191   H     0.22169   0.52540   0.39237   0.00000  Uiso   1.00
H192   H     0.01608   0.52650   0.20897   0.00000  Uiso   1.00
I193   I     0.09463   0.66056   0.31650   0.00000  Uiso   1.00
I194   I     0.11781   0.53097   0.10517   0.00000  Uiso   1.00
I195   I     0.03974   0.52390   0.41057   0.00000  Uiso   1.00
O196   O     0.16667   0.50000   0.25000   0.00000  Uiso   1.00
O197   O     0.15451   0.45970   0.15459   0.00000  Uiso   1.00
O198   O     0.12940   0.53724   0.34968   0.00000  Uiso   1.00
O199   O     0.20824   0.51092   0.14606   0.00000  Uiso   1.00
O200   O     0.17451   0.49213   0.34968   0.00000  Uiso   1.00
O201   O     0.17930   0.41352   0.28214   0.00000  Uiso   1.00
O202   O     0.14632   0.59418   0.27014   0.00000  Uiso   1.00
O203   O     0.07412   0.46625   0.23413   0.00000  Uiso   1.00
O204   O     0.26693   0.52605   0.21361   0.00000  Uiso   1.00
O205   O     0.07071   0.52211   0.28213   0.00000  Uiso   1.00
O206   O     0.25491   0.48559   0.27014   0.00000  Uiso   1.00
O207   O     0.13760   0.40277   0.23413   0.00000  Uiso   1.00
O208   O     0.20345   0.58953   0.21361   0.00000  Uiso   1.00
Zn209  Zn    0.19338   0.47327   0.28734   0.00000  Uiso   1.00
Zn210  Zn    0.13379   0.45791   0.21876   0.00000  Uiso   1.00
Zn211  Zn    0.21056   0.53109   0.20657   0.00000  Uiso   1.00
Zn212  Zn    0.12893   0.53773   0.28734   0.00000  Uiso   1.00
C213   C     0.38609   0.49324   0.26003   0.00000  Uiso   1.00
C214   C     0.49816   0.49383   0.06158   0.00000  Uiso   1.00
C215   C     0.56567   0.46643   0.05538   0.00000  Uiso   1.00
C216   C     0.61414   0.50719   0.23994   0.00000  Uiso   1.00
C217   C     0.46669   0.51846   0.42030   0.00000  Uiso   1.00
C218   C     0.66014   0.50972   0.23559   0.00000  Uiso   1.00
C219   C     0.34073   0.49129   0.26424   0.00000  Uiso   1.00
C220   C     0.51268   0.65572   0.23778   0.00000  Uiso   1.00
C221   C     0.48401   0.34591   0.26505   0.00000  Uiso   1.00
C222   C     0.49005   0.38942   0.25966   0.00000  Uiso   1.00
C223   C     0.50961   0.61125   0.24042   0.00000  Uiso   1.00
C224   C     0.40687   0.50508   0.48551   0.00000  Uiso   1.00
C225   C     0.51885   0.48176   0.12943   0.00000  Uiso   1.00
C226   C     0.48110   0.51751   0.37101   0.00000  Uiso   1.00
C227   C     0.57922   0.47324   0.01030   0.00000  Uiso   1.00
C228   C     0.52599   0.47778   0.08124   0.00000  Uiso   1.00
C229   C     0.42206   0.51671   0.44189   0.00000  Uiso   1.00
C230   C     0.43500   0.49601   0.00851   0.00000  Uiso   1.00
C231   C     0.47984   0.50234   0.49034   0.00000  Uiso   1.00
C232   C     0.49584   0.51246   0.44513   0.00000  Uiso   1.00
C233   C     0.50901   0.49453   0.01432   0.00000  Uiso   1.00
C234   C     0.55179   0.48850   0.48994   0.00000  Uiso   1.00
C235   C     0.56741   0.49966   0.44608   0.00000  Uiso   1.00
C236   C     0.54051   0.51429   0.42514   0.00000  Uiso   1.00
H237   H     0.58770   0.45561   0.07099   0.00000  Uiso   1.00
H238   H     0.65211   0.47483   0.29146   0.00000  Uiso   1.00
H239   H     0.53947   0.33669   0.21264   0.00000  Uiso   1.00
H240   H     0.60088   0.49812   0.42827   0.00000  Uiso   1.00
H241   H     0.61150   0.46744   0.49157   0.00000  Uiso   1.00
H242   H     0.42099   0.48199   0.03976   0.00000  Uiso   1.00
H243   H     0.37257   0.50077   0.00101   0.00000  Uiso   1.00
H244   H     0.55503   0.52540   0.39237   0.00000  Uiso   1.00
H245   H     0.34941   0.52650   0.20897   0.00000  Uiso   1.00
I246   I     0.42796   0.66056   0.31650   0.00000  Uiso   1.00
I247   I     0.45114   0.53097   0.10517   0.00000  Uiso   1.00
I248   I     0.37308   0.52390   0.41057   0.00000  Uiso   1.00
O249   O     0.50000   0.50000   0.25000   0.00000  Uiso   1.00
O250   O     0.48784   0.45970   0.15459   0.00000  Uiso   1.00
O251   O     0.46274   0.53724   0.34968   0.00000  Uiso   1.00
O252   O     0.54157   0.51092   0.14606   0.00000  Uiso   1.00
O253   O     0.50785   0.49213   0.34968   0.00000  Uiso   1.00
O254   O     0.51264   0.41352   0.28214   0.00000  Uiso   1.00
O255   O     0.47965   0.59418   0.27014   0.00000  Uiso   1.00
O256   O     0.40745   0.46625   0.23413   0.00000  Uiso   1.00
O257   O     0.60026   0.52605   0.21361   0.00000  Uiso   1.00
O258   O     0.40405   0.52211   0.28213   0.00000  Uiso   1.00
O259   O     0.58824   0.48559   0.27014   0.00000  Uiso   1.00
O260   O     0.47093   0.40277   0.23413   0.00000  Uiso   1.00
O261   O     0.53678   0.58953   0.21361   0.00000  Uiso   1.00
Zn262  Zn    0.52672   0.47327   0.28734   0.00000  Uiso   1.00
Zn263  Zn    0.46713   0.45791   0.21876   0.00000  Uiso   1.00
Zn264  Zn    0.54389   0.53109   0.20657   0.00000  Uiso   1.00
Zn265  Zn    0.46226   0.53773   0.28734   0.00000  Uiso   1.00
C266   C     0.71942   0.49324   0.26003   0.00000  Uiso   1.00
C267   C     0.83149   0.49383   0.06158   0.00000  Uiso   1.00
C268   C     0.89900   0.46643   0.05538   0.00000  Uiso   1.00
C269   C     0.94747   0.50719   0.23994   0.00000  Uiso   1.00
C270   C     0.80002   0.51846   0.42030   0.00000  Uiso   1.00
C271   C     0.99347   0.50972   0.23559   0.00000  Uiso   1.00
C272   C     0.67407   0.49129   0.26424   0.00000  Uiso   1.00
C273   C     0.84601   0.65572   0.23778   0.00000  Uiso   1.00
C274   C     0.81735   0.34591   0.26505   0.00000  Uiso   1.00
C275   C     0.82339   0.38942   0.25966   0.00000  Uiso   1.00
C276   C     0.84294   0.61125   0.24042   0.00000  Uiso   1.00
C277   C     0.74020   0.50508   0.48551   0.00000  Uiso   1.00
C278   C     0.85218   0.48176   0.12943   0.00000  Uiso   1.00
C279   C     0.81443   0.51751   0.37101   0.00000  Uiso   1.00
C280   C     0.91256   0.47324   0.01030   0.00000  Uiso   1.00
C281   C     0.85932   0.47778   0.08124   0.00000  Uiso   1.00
C282   C     0.75539   0.51671   0.44189   0.00000  Uiso   1.00
C283   C     0.76834   0.49601   0.00851   0.00000  Uiso   1.00
C284   C     0.81317   0.50234   0.49034   0.00000  Uiso   1.00
C285   C     0.82917   0.51246   0.44513   0.00000  Uiso   1.00
C286   C     0.84234   0.49453   0.01432   0.00000  Uiso   1.00
C287   C     0.88513   0.48850   0.48994   0.00000  Uiso   1.00
C288   C     0.90074   0.49966   0.44608   0.00000  Uiso   1.00
C289   C     0.87385   0.51429   0.42514   0.00000  Uiso   1.00
H290   H     0.92104   0.45561   0.07099   0.00000  Uiso   1.00
H291   H     0.98545   0.47483   0.29146   0.00000  Uiso   1.00
H292   H     0.87280   0.33669   0.21264   0.00000  Uiso   1.00
H293   H     0.93421   0.49812   0.42827   0.00000  Uiso   1.00
H294   H     0.94483   0.46744   0.49157   0.00000  Uiso   1.00
H295   H     0.75433   0.48199   0.03976   0.00000  Uiso   1.00
H296   H     0.70590   0.50077   0.00101   0.00000  Uiso   1.00
H297   H     0.88836   0.52540   0.39237   0.00000  Uiso   1.00
H298   H     0.68275   0.52650   0.20897   0.00000  Uiso   1.00
I299   I     0.76129   0.66056   0.31650   0.00000  Uiso   1.00
I300   I     0.78447   0.53097   0.10517   0.00000  Uiso   1.00
I301   I     0.70641   0.52390   0.41057   0.00000  Uiso   1.00
O302   O     0.83333   0.50000   0.25000   0.00000  Uiso   1.00
O303   O     0.82118   0.45970   0.15459   0.00000  Uiso   1.00
O304   O     0.79607   0.53724   0.34968   0.00000  Uiso   1.00
O305   O     0.87491   0.51092   0.14606   0.00000  Uiso   1.00
O306   O     0.84118   0.49213   0.34968   0.00000  Uiso   1.00
O307   O     0.84597   0.41352   0.28214   0.00000  Uiso   1.00
O308   O     0.81298   0.59418   0.27014   0.00000  Uiso   1.00
O309   O     0.74078   0.46625   0.23413   0.00000  Uiso   1.00
O310   O     0.93360   0.52605   0.21361   0.00000  Uiso   1.00
O311   O     0.73738   0.52211   0.28213   0.00000  Uiso   1.00
O312   O     0.92158   0.48559   0.27014   0.00000  Uiso   1.00
O313   O     0.80426   0.40277   0.23413   0.00000  Uiso   1.00
O314   O     0.87012   0.58953   0.21361   0.00000  Uiso   1.00
Zn315  Zn    0.86005   0.47327   0.28734   0.00000  Uiso   1.00
Zn316  Zn    0.80046   0.45791   0.21876   0.00000  Uiso   1.00
Zn317  Zn    0.87723   0.53109   0.20657   0.00000  Uiso   1.00
Zn318  Zn    0.79560   0.53773   0.28734   0.00000  Uiso   1.00
C319   C     0.05276   0.82657   0.26003   0.00000  Uiso   1.00
C320   C     0.16482   0.82716   0.06158   0.00000  Uiso   1.00
C321   C     0.23233   0.79976   0.05538   0.00000  Uiso   1.00
C322   C     0.28081   0.84052   0.23994   0.00000  Uiso   1.00
C323   C     0.13335   0.85180   0.42030   0.00000  Uiso   1.00
C324   C     0.32681   0.84305   0.23559   0.00000  Uiso   1.00
C325   C     0.00740   0.82462   0.26424   0.00000  Uiso   1.00
C326   C     0.17934   0.98905   0.23778   0.00000  Uiso   1.00
C327   C     0.15068   0.67925   0.26505   0.00000  Uiso   1.00
C328   C     0.15672   0.72275   0.25966   0.00000  Uiso   1.00
C329   C     0.17628   0.94459   0.24042   0.00000  Uiso   1.00
C330   C     0.07353   0.83841   0.48551   0.00000  Uiso   1.00
C331   C     0.18552   0.81509   0.12943   0.00000  Uiso   1.00
C332   C     0.14776   0.85084   0.37101   0.00000  Uiso   1.00
C333   C     0.24589   0.80657   0.01030   0.00000  Uiso   1.00
C334   C     0.19265   0.81112   0.08124   0.00000  Uiso   1.00
C335   C     0.08872   0.85004   0.44189   0.00000  Uiso   1.00
C336   C     0.10167   0.82934   0.00851   0.00000  Uiso   1.00
C337   C     0.14651   0.83567   0.49034   0.00000  Uiso   1.00
C338   C     0.16250   0.84579   0.44513   0.00000  Uiso   1.00
C339   C     0.17567   0.82786   0.01432   0.00000  Uiso   1.00
C340   C     0.21846   0.82183   0.48994   0.00000  Uiso   1.00
C341   C     0.23408   0.83299   0.44608   0.00000  Uiso   1.00
C342   C     0.20718   0.84762   0.42514   0.00000  Uiso   1.00
H343   H     0.25437   0.78894   0.07099   0.00000  Uiso   1.00
H344   H     0.31878   0.80816   0.29146   0.00000  Uiso   1.00
H345   H     0.20613   0.67003   0.21264   0.00000  Uiso   1.00
H346   H     0.26754   0.83145   0.42827   0.00000  Uiso   1.00
H347   H     0.27817   0.80077   0.49157   0.00000  Uiso   1.00
H348   H     0.08766   0.81533   0.03976   0.00000  Uiso   1.00
H349   H     0.03924   0.83410   0.00101   0.00000  Uiso   1.00
H350   H     0.22169   0.85874   0.39237   0.00000  Uiso   1.00
H351   H     0.01608   0.85983   0.20897   0.00000  Uiso   1.00
I352   I     0.09463   0.99389   0.31650   0.00000  Uiso   1.00
I353   I     0.11781   0.86431   0.10517   0.00000  Uiso   1.00
I354   I     0.03974   0.85724   0.41057   0.00000  Uiso   1.00
O355   O     0.16667   0.83333   0.25000   0.00000  Uiso   1.00
O356   O     0.15451   0.79304   0.15459   0.00000  Uiso   1.00
O357   O     0.12940   0.87058   0.34968   0.00000  Uiso   1.00
O358   O     0.20824   0.84425   0.14606   0.00000  Uiso   1.00
O359   O     0.17451   0.82546   0.34968   0.00000  Uiso   1.00
O360   O     0.17930   0.74686   0.28214   0.00000  Uiso   1.00
O361   O     0.14632   0.92751   0.27014   0.00000  Uiso   1.00
O362   O     0.07412   0.79958   0.23413   0.00000  Uiso   1.00
O363   O     0.26693   0.85939   0.21361   0.00000  Uiso   1.00
O364   O     0.07071   0.85544   0.28213   0.00000  Uiso   1.00
O365   O     0.25491   0.81892   0.27014   0.00000  Uiso   1.00
O366   O     0.13760   0.73610   0.23413   0.00000  Uiso   1.00
O367   O     0.20345   0.92286   0.21361   0.00000  Uiso   1.00
Zn368  Zn    0.19338   0.80661   0.28734   0.00000  Uiso   1.00
Zn369  Zn    0.13379   0.79124   0.21876   0.00000  Uiso   1.00
Zn370  Zn    0.21056   0.86442   0.20657   0.00000  Uiso   1.00
Zn371  Zn    0.12893   0.87106   0.28734   0.00000  Uiso   1.00
C372   C     0.38609   0.82657   0.26003   0.00000  Uiso   1.00
C373   C     0.49816   0.82716   0.06158   0.00000  Uiso   1.00
C374   C     0.56567   0.79976   0.05538   0.00000  Uiso   1.00
C375   C     0.61414   0.84052   0.23994   0.00000  Uiso   1.00
C376   C     0.46669   0.85180   0.42030   0.00000  Uiso   1.00
C377   C     0.66014   0.84305   0.23559   0.00000  Uiso   1.00
C378   C     0.34073   0.82462   0.26424   0.00000  Uiso   1.00
C379   C     0.51268   0.98905   0.23778   0.00000  Uiso   1.00
C380   C     0.48401   0.67925   0.26505   0.00000  Uiso   1.00
C381   C     0.49005   0.72275   0.25966   0.00000  Uiso   1.00
C382   C     0.50961   0.94459   0.24042   0.00000  Uiso   1.00
C383   C     0.40687   0.83841   0.48551   0.00000  Uiso   1.00
C384   C     0.51885   0.81509   0.12943   0.00000  Uiso   1.00
C385   C     0.48110   0.85084   0.37101   0.00000  Uiso   1.00
C386   C     0.57922   0.80657   0.01030   0.00000  Uiso   1.00
C387   C     0.52599   0.81112   0.08124   0.00000  Uiso   1.00
C388   C     0.42206   0.85004   0.44189   0.00000  Uiso   1.00
C389   C     0.43500   0.82934   0.00851   0.00000  Uiso   1.00
C390   C     0.47984   0.83567   0.49034   0.00000  Uiso   1.00
C391   C     0.49584   0.84579   0.44513   0.00000  Uiso   1.00
C392   C     0.50901   0.82786   0.01432   0.00000  Uiso   1.00
C393   C     0.55179   0.82183   0.48994   0.00000  Uiso   1.00
C394   C     0.56741   0.83299   0.44608   0.00000  Uiso   1.00
C395   C     0.54051   0.84762   0.42514   0.00000  Uiso   1.00
H396   H     0.58770   0.78894   0.07099   0.00000  Uiso   1.00
H397   H     0.65211   0.80816   0.29146   0.00000  Uiso   1.00
H398   H     0.53947   0.67003   0.21264   0.00000  Uiso   1.00
H399   H     0.60088   0.83145   0.42827   0.00000  Uiso   1.00
H400   H     0.61150   0.80077   0.49157   0.00000  Uiso   1.00
H401   H     0.42099   0.81533   0.03976   0.00000  Uiso   1.00
H402   H     0.37257   0.83410   0.00101   0.00000  Uiso   1.00
H403   H     0.55503   0.85874   0.39237   0.00000  Uiso   1.00
H404   H     0.34941   0.85983   0.20897   0.00000  Uiso   1.00
I405   I     0.42796   0.99389   0.31650   0.00000  Uiso   1.00
I406   I     0.45114   0.86431   0.10517   0.00000  Uiso   1.00
I407   I     0.37308   0.85724   0.41057   0.00000  Uiso   1.00
O408   O     0.50000   0.83333   0.25000   0.00000  Uiso   1.00
O409   O     0.48784   0.79304   0.15459   0.00000  Uiso   1.00
O410   O     0.46274   0.87058   0.34968   0.00000  Uiso   1.00
O411   O     0.54157   0.84425   0.14606   0.00000  Uiso   1.00
O412   O     0.50785   0.82546   0.34968   0.00000  Uiso   1.00
O413   O     0.51264   0.74686   0.28214   0.00000  Uiso   1.00
O414   O     0.47965   0.92751   0.27014   0.00000  Uiso   1.00
O415   O     0.40745   0.79958   0.23413   0.00000  Uiso   1.00
O416   O     0.60026   0.85939   0.21361   0.00000  Uiso   1.00
O417   O     0.40405   0.85544   0.28213   0.00000  Uiso   1.00
O418   O     0.58824   0.81892   0.27014   0.00000  Uiso   1.00
O419   O     0.47093   0.73610   0.23413   0.00000  Uiso   1.00
O420   O     0.53678   0.92286   0.21361   0.00000  Uiso   1.00
Zn421  Zn    0.52672   0.80661   0.28734   0.00000  Uiso   1.00
Zn422  Zn    0.46713   0.79124   0.21876   0.00000  Uiso   1.00
Zn423  Zn    0.54389   0.86442   0.20657   0.00000  Uiso   1.00
Zn424  Zn    0.46226   0.87106   0.28734   0.00000  Uiso   1.00
C425   C     0.71942   0.82657   0.26003   0.00000  Uiso   1.00
C426   C     0.83149   0.82716   0.06158   0.00000  Uiso   1.00
C427   C     0.89900   0.79976   0.05538   0.00000  Uiso   1.00
C428   C     0.94747   0.84052   0.23994   0.00000  Uiso   1.00
C429   C     0.80002   0.85180   0.42030   0.00000  Uiso   1.00
C430   C     0.99347   0.84305   0.23559   0.00000  Uiso   1.00
C431   C     0.67407   0.82462   0.26424   0.00000  Uiso   1.00
C432   C     0.84601   0.98905   0.23778   0.00000  Uiso   1.00
C433   C     0.81735   0.67925   0.26505   0.00000  Uiso   1.00
C434   C     0.82339   0.72275   0.25966   0.00000  Uiso   1.00
C435   C     0.84294   0.94459   0.24042   0.00000  Uiso   1.00
C436   C     0.74020   0.83841   0.48551   0.00000  Uiso   1.00
C437   C     0.85218   0.81509   0.12943   0.00000  Uiso   1.00
C438   C     0.81443   0.85084   0.37101   0.00000  Uiso   1.00
C439   C     0.91256   0.80657   0.01030   0.00000  Uiso   1.00
C440   C     0.85932   0.81112   0.08124   0.00000  Uiso   1.00
C441   C     0.75539   0.85004   0.44189   0.00000  Uiso   1.00
C442   C     0.76834   0.82934   0.00851   0.00000  Uiso   1.00
C443   C     0.81317   0.83567   0.49034   0.00000  Uiso   1.00
C444   C     0.82917   0.84579   0.44513   0.00000  Uiso   1.00
C445   C     0.84234   0.82786   0.01432   0.00000  Uiso   1.00
C446   C     0.88513   0.82183   0.48994   0.00000  Uiso   1.00
C447   C     0.90074   0.83299   0.44608   0.00000  Uiso   1.00
C448   C     0.87385   0.84762   0.42514   0.00000  Uiso   1.00
H449   H     0.92104   0.78894   0.07099   0.00000  Uiso   1.00
H450   H     0.98545   0.80816   0.29146   0.00000  Uiso   1.00
H451   H     0.87280   0.67003   0.21264   0.00000  Uiso   1.00
H452   H     0.93421   0.83145   0.42827   0.00000  Uiso   1.00
H453   H     0.94483   0.80077   0.49157   0.00000  Uiso   1.00
H454   H     0.75433   0.81533   0.03976   0.00000  Uiso   1.00
H455   H     0.70590   0.83410   0.00101   0.00000  Uiso   1.00
H456   H     0.88836   0.85874   0.39237   0.00000  Uiso   1.00
H457   H     0.68275   0.85983   0.20897   0.00000  Uiso   1.00
I458   I     0.76129   0.99389   0.31650   0.00000  Uiso   1.00
I459   I     0.78447   0.86431   0.10517   0.00000  Uiso   1.00
I460   I     0.70641   0.85724   0.41057   0.00000  Uiso   1.00
O461   O     0.83333   0.83333   0.25000   0.00000  Uiso   1.00
O462   O     0.82118   0.79304   0.15459   0.00000  Uiso   1.00
O463   O     0.79607   0.87058   0.34968   0.00000  Uiso   1.00
O464   O     0.87491   0.84425   0.14606   0.00000  Uiso   1.00
O465   O     0.84118   0.82546   0.34968   0.00000  Uiso   1.00
O466   O     0.84597   0.74686   0.28214   0.00000  Uiso   1.00
O467   O     0.81298   0.92751   0.27014   0.00000  Uiso   1.00
O468   O     0.74078   0.79958   0.23413   0.00000  Uiso   1.00
O469   O     0.93360   0.85939   0.21361   0.00000  Uiso   1.00
O470   O     0.73738   0.85544   0.28213   0.00000  Uiso   1.00
O471   O     0.92158   0.81892   0.27014   0.00000  Uiso   1.00
O472   O     0.80426   0.73610   0.23413   0.00000  Uiso   1.00
O473   O     0.87012   0.92286   0.21361   0.00000  Uiso   1.00
Zn474  Zn    0.86005   0.80661   0.28734   0.00000  Uiso   1.00
Zn475  Zn    0.80046   0.79124   0.21876   0.00000  Uiso   1.00
Zn476  Zn    0.87723   0.86442   0.20657   0.00000  Uiso   1.00
Zn477  Zn    0.79560   0.87106   0.28734   0.00000  Uiso   1.00
C478   C     0.05276   0.15990   0.76003   0.00000  Uiso   1.00
C479   C     0.16482   0.16050   0.56158   0.00000  Uiso   1.00
C480   C     0.23233   0.13309   0.55538   0.00000  Uiso   1.00
C481   C     0.28081   0.17385   0.73994   0.00000  Uiso   1.00
C482   C     0.13335   0.18513   0.92030   0.00000  Uiso   1.00
C483   C     0.32681   0.17639   0.73559   0.00000  Uiso   1.00
C484   C     0.00740   0.15796   0.76424   0.00000  Uiso   1.00
C485   C     0.17934   0.32238   0.73778   0.00000  Uiso   1.00
C486   C     0.15068   0.01258   0.76505   0.00000  Uiso   1.00
C487   C     0.15672   0.05609   0.75966   0.00000  Uiso   1.00
C488   C     0.17628   0.27792   0.74042   0.00000  Uiso   1.00
C489   C     0.07353   0.17175   0.98551   0.00000  Uiso   1.00
C490   C     0.18552   0.14843   0.62943   0.00000  Uiso   1.00
C491   C     0.14776   0.18417   0.87101   0.00000  Uiso   1.00
C492   C     0.24589   0.13990   0.51030   0.00000  Uiso   1.00
C493   C     0.19265   0.14445   0.58124   0.00000  Uiso   1.00
C494   C     0.08872   0.18337   0.94189   0.00000  Uiso   1.00
C495   C     0.10167   0.16268   0.50851   0.00000  Uiso   1.00
C496   C     0.14651   0.16900   0.99034   0.00000  Uiso   1.00
C497   C     0.16250   0.17912   0.94513   0.00000  Uiso   1.00
C498   C     0.17567   0.16120   0.51432   0.00000  Uiso   1.00
C499   C     0.21846   0.15516   0.98994   0.00000  Uiso   1.00
C500   C     0.23408   0.16632   0.94608   0.00000  Uiso   1.00
C501   C     0.20718   0.18095   0.92514   0.00000  Uiso   1.00
H502   H     0.25437   0.12227   0.57099   0.00000  Uiso   1.00
H503   H     0.31878   0.14150   0.79146   0.00000  Uiso   1.00
H504   H     0.20613   0.00336   0.71264   0.00000  Uiso   1.00
H505   H     0.26754   0.16479   0.92827   0.00000  Uiso   1.00
H506   H     0.27817   0.13410   0.99157   0.00000  Uiso   1.00
H507   H     0.08766   0.14866   0.53976   0.00000  Uiso   1.00
H508   H     0.03924   0.16743   0.50101   0.00000  Uiso   1.00
H509   H     0.22169   0.19207   0.89237   0.00000  Uiso   1.00
H510   H     0.01608   0.19317   0.70897   0.00000  Uiso   1.00
I511   I     0.09463   0.32723   0.81650   0.00000  Uiso   1.00
I512   I     0.11781   0.19764   0.60517   0.00000  Uiso   1.00
I513   I     0.03974   0.19057   0.91057   0.00000  Uiso   1.00
O514   O     0.16667   0.16667   0.75000   0.00000  Uiso   1.00
O515   O     0.15451   0.12637   0.65459   0.00000  Uiso   1.00
O516   O     0.12940   0.20391   0.84968   0.00000  Uiso   1.00
O517   O     0.20824   0.17759   0.64606   0.00000  Uiso   1.00
O518   O     0.17451   0.15880   0.84968   0.00000  Uiso   1.00
O519   O     0.17930   0.08019   0.78214   0.00000  Uiso   1.00
O520   O     0.14632   0.26085   0.77014   0.00000  Uiso   1.00
O521   O     0.07412   0.13291   0.73413   0.00000  Uiso   1.00
O522   O     0.26693   0.19272   0.71361   0.00000  Uiso   1.00
O523   O     0.07071   0.18878   0.78213   0.00000  Uiso   1.00
O524   O     0.25491   0.15226   0.77014   0.00000  Uiso   1.00
O525   O     0.13760   0.06944   0.73413   0.00000  Uiso   1.00
O526   O     0.20345   0.25620   0.71361   0.00000  Uiso   1.00
Zn527  Zn    0.19338   0.13994   0.78734   0.00000  Uiso   1.00
Zn528  Zn    0.13379   0.12458   0.71876   0.00000  Uiso   1.00
Zn529  Zn    0.21056   0.19775   0.70657   0.00000  Uiso   1.00
Zn530  Zn    0.12893   0.20439   0.78734   0.00000  Uiso   1.00
C531   C     0.38609   0.15990   0.76003   0.00000  Uiso   1.00
C532   C     0.49816   0.16050   0.56158   0.00000  Uiso   1.00
C533   C     0.56567   0.13309   0.55538   0.00000  Uiso   1.00
C534   C     0.61414   0.17385   0.73994   0.00000  Uiso   1.00
C535   C     0.46669   0.18513   0.92030   0.00000  Uiso   1.00
C536   C     0.66014   0.17639   0.73559   0.00000  Uiso   1.00
C537   C     0.34073   0.15796   0.76424   0.00000  Uiso   1.00
C538   C     0.51268   0.32238   0.73778   0.00000  Uiso   1.00
C539   C     0.48401   0.01258   0.76505   0.00000  Uiso   1.00
C540   C     0.49005   0.05609   0.75966   0.00000  Uiso   1.00
C541   C     0.50961   0.27792   0.74042   0.00000  Uiso   1.00
C542   C     0.40687   0.17175   0.98551   0.00000  Uiso   1.00
C543   C     0.51885   0.14843   0.62943   0.00000  Uiso   1.00
C544   C     0.48110   0.18417   0.87101   0.00000  Uiso   1.00
C545   C     0.57922   0.13990   0.51030   0.00000  Uiso   1.00
C546   C     0.52599   0.14445   0.58124   0.00000  Uiso   1.00
C547   C     0.42206   0.18337   0.94189   0.00000  Uiso   1.00
C548   C     0.43500   0.16268   0.50851   0.00000  Uiso   1.00
C549   C     0.47984   0.16900   0.99034   0.00000  Uiso   1.00
C550   C     0.49584   0.17912   0.94513   0.00000  Uiso   1.00
C551   C     0.50901   0.16120   0.51432   0.00000  Uiso   1.00
C552   C     0.55179   0.15516   0.98994   0.00000  Uiso   1.00
C553   C     0.56741   0.16632   0.94608   0.00000  Uiso   1.00
C554   C     0.54051   0.18095   0.92514   0.00000  Uiso   1.00
H555   H     0.58770   0.12227   0.57099   0.00000  Uiso   1.00
H556   H     0.65211   0.14150   0.79146   0.00000  Uiso   1.00
H557   H     0.53947   0.00336   0.71264   0.00000  Uiso   1.00
H558   H     0.60088   0.16479   0.92827   0.00000  Uiso   1.00
H559   H     0.61150   0.13410   0.99157   0.00000  Uiso   1.00
H560   H     0.42099   0.14866   0.53976   0.00000  Uiso   1.00
H561   H     0.37257   0.16743   0.50101   0.00000  Uiso   1.00
H562   H     0.55503   0.19207   0.89237   0.00000  Uiso   1.00
H563   H     0.34941   0.19317   0.70897   0.00000  Uiso   1.00
I564   I     0.42796   0.32723   0.81650   0.00000  Uiso   1.00
I565   I     0.45114   0.19764   0.60517   0.00000  Uiso   1.00
I566   I     0.37308   0.19057   0.91057   0.00000  Uiso   1.00
O567   O     0.50000   0.16667   0.75000   0.00000  Uiso   1.00
O568   O     0.48784   0.12637   0.65459   0.00000  Uiso   1.00
O569   O     0.46274   0.20391   0.84968   0.00000  Uiso   1.00
O570   O     0.54157   0.17759   0.64606   0.00000  Uiso   1.00
O571   O     0.50785   0.15880   0.84968   0.00000  Uiso   1.00
O572   O     0.51264   0.08019   0.78214   0.00000  Uiso   1.00
O573   O     0.47965   0.26085   0.77014   0.00000  Uiso   1.00
O574   O     0.40745   0.13291   0.73413   0.00000  Uiso   1.00
O575   O     0.60026   0.19272   0.71361   0.00000  Uiso   1.00
O576   O     0.40405   0.18878   0.78213   0.00000  Uiso   1.00
O577   O     0.58824   0.15226   0.77014   0.00000  Uiso   1.00
O578   O     0.47093   0.06944   0.73413   0.00000  Uiso   1.00
O579   O     0.53678   0.25620   0.71361   0.00000  Uiso   1.00
Zn580  Zn    0.52672   0.13994   0.78734   0.00000  Uiso   1.00
Zn581  Zn    0.46713   0.12458   0.71876   0.00000  Uiso   1.00
Zn582  Zn    0.54389   0.19775   0.70657   0.00000  Uiso   1.00
Zn583  Zn    0.46226   0.20439   0.78734   0.00000  Uiso   1.00
C584   C     0.71942   0.15990   0.76003   0.00000  Uiso   1.00
C585   C     0.83149   0.16050   0.56158   0.00000  Uiso   1.00
C586   C     0.89900   0.13309   0.55538   0.00000  Uiso   1.00
C587   C     0.94747   0.17385   0.73994   0.00000  Uiso   1.00
C588   C     0.80002   0.18513   0.92030   0.00000  Uiso   1.00
C589   C     0.99347   0.17639   0.73559   0.00000  Uiso   1.00
C590   C     0.67407   0.15796   0.76424   0.00000  Uiso   1.00
C591   C     0.84601   0.32238   0.73778   0.00000  Uiso   1.00
C592   C     0.81735   0.01258   0.76505   0.00000  Uiso   1.00
C593   C     0.82339   0.05609   0.75966   0.00000  Uiso   1.00
C594   C     0.84294   0.27792   0.74042   0.00000  Uiso   1.00
C595   C     0.74020   0.17175   0.98551   0.00000  Uiso   1.00
C596   C     0.85218   0.14843   0.62943   0.00000  Uiso   1.00
C597   C     0.81443   0.18417   0.87101   0.00000  Uiso   1.00
C598   C     0.91256   0.13990   0.51030   0.00000  Uiso   1.00
C599   C     0.85932   0.14445   0.58124   0.00000  Uiso   1.00
C600   C     0.75539   0.18337   0.94189   0.00000  Uiso   1.00
C601   C     0.76834   0.16268   0.50851   0.00000  Uiso   1.00
C602   C     0.81317   0.16900   0.99034   0.00000  Uiso   1.00
C603   C     0.82917   0.17912   0.94513   0.00000  Uiso   1.00
C604   C     0.84234   0.16120   0.51432   0.00000  Uiso   1.00
C605   C     0.88513   0.15516   0.98994   0.00000  Uiso   1.00
C606   C     0.90074   0.16632   0.94608   0.00000  Uiso   1.00
C607   C     0.87385   0.18095   0.92514   0.00000  Uiso   1.00
H608   H     0.92104   0.12227   0.57099   0.00000  Uiso   1.00
H609   H     0.98545   0.14150   0.79146   0.00000  Uiso   1.00
H610   H     0.87280   0.00336   0.71264   0.00000  Uiso   1.00
H611   H     0.93421   0.16479   0.92827   0.00000  Uiso   1.00
H612   H     0.94483   0.13410   0.99157   0.00000  Uiso   1.00
H613   H     0.75433   0.14866   0.53976   0.00000  Uiso   1.00
H614   H     0.70590   0.16743   0.50101   0.00000  Uiso   1.00
H615   H     0.88836   0.19207   0.89237   0.00000  Uiso   1.00
H616   H     0.68275   0.19317   0.70897   0.00000  Uiso   1.00
I617   I     0.76129   0.32723   0.81650   0.00000  Uiso   1.00
I618   I     0.78447   0.19764   0.60517   0.00000  Uiso   1.00
I619   I     0.70641   0.19057   0.91057   0.00000  Uiso   1.00
O620   O     0.83333   0.16667   0.75000   0.00000  Uiso   1.00
O621   O     0.82118   0.12637   0.65459   0.00000  Uiso   1.00
O622   O     0.79607   0.20391   0.84968   0.00000  Uiso   1.00
O623   O     0.87491   0.17759   0.64606   0.00000  Uiso   1.00
O624   O     0.84118   0.15880   0.84968   0.00000  Uiso   1.00
O625   O     0.84597   0.08019   0.78214   0.00000  Uiso   1.00
O626   O     0.81298   0.26085   0.77014   0.00000  Uiso   1.00
O627   O     0.74078   0.13291   0.73413   0.00000  Uiso   1.00
O628   O     0.93360   0.19272   0.71361   0.00000  Uiso   1.00
O629   O     0.73738   0.18878   0.78213   0.00000  Uiso   1.00
O630   O     0.92158   0.15226   0.77014   0.00000  Uiso   1.00
O631   O     0.80426   0.06944   0.73413   0.00000  Uiso   1.00
O632   O     0.87012   0.25620   0.71361   0.00000  Uiso   1.00
Zn633  Zn    0.86005   0.13994   0.78734   0.00000  Uiso   1.00
Zn634  Zn    0.80046   0.12458   0.71876   0.00000  Uiso   1.00
Zn635  Zn    0.87723   0.19775   0.70657   0.00000  Uiso   1.00
Zn636  Zn    0.79560   0.20439   0.78734   0.00000  Uiso   1.00
C637   C     0.05276   0.49324   0.76003   0.00000  Uiso   1.00
C638   C     0.16482   0.49383   0.56158   0.00000  Uiso   1.00
C639   C     0.23233   0.46643   0.55538   0.00000  Uiso   1.00
C640   C     0.28081   0.50719   0.73994   0.00000  Uiso   1.00
C641   C     0.13335   0.51846   0.92030   0.00000  Uiso   1.00
C642   C     0.32681   0.50972   0.73559   0.00000  Uiso   1.00
C643   C     0.00740   0.49129   0.76424   0.00000  Uiso   1.00
C644   C     0.17934   0.65572   0.73778   0.00000  Uiso   1.00
C645   C     0.15068   0.34591   0.76505   0.00000  Uiso   1.00
C646   C     0.15672   0.38942   0.75966   0.00000  Uiso   1.00
C647   C     0.17628   0.61125   0.74042   0.00000  Uiso   1.00
C648   C     0.07353   0.50508   0.98551   0.00000  Uiso   1.00
C649   C     0.18552   0.48176   0.62943   0.00000  Uiso   1.00
C650   C     0.14776   0.51751   0.87101   0.00000  Uiso   1.00
C651   C     0.24589   0.47324   0.51030   0.00000  Uiso   1.00
C652   C     0.19265   0.47778   0.58124   0.00000  Uiso   1.00
C653   C     0.08872   0.51671   0.94189   0.00000  Uiso   1.00
C654   C     0.10167   0.49601   0.50851   0.00000  Uiso   1.00
C655   C     0.14651   0.50234   0.99034   0.00000  Uiso   1.00
C656   C     0.16250   0.51246   0.94513   0.00000  Uiso   1.00
C657   C     0.17567   0.49453   0.51432   0.00000  Uiso   1.00
C658   C     0.21846   0.48850   0.98994   0.00000  Uiso   1.00
C659   C     0.23408   0.49966   0.94608   0.00000  Uiso   1.00
C660   C     0.20718   0.51429   0.92514   0.00000  Uiso   1.00
H661   H     0.25437   0.45561   0.57099   0.00000  Uiso   1.00
H662   H     0.31878   0.47483   0.79146   0.00000  Uiso   1.00
H663   H     0.20613   0.33669   0.71264   0.00000  Uiso   1.00
H664   H     0.26754   0.49812   0.92827   0.00000  Uiso   1.00
H665   H     0.27817   0.46744   0.99157   0.00000  Uiso   1.00
H666   H     0.08766   0.48199   0.53976   0.00000  Uiso   1.00
H667   H     0.03924   0.50077   0.50101   0.00000  Uiso   1.00
H668   H     0.22169   0.52540   0.89237   0.00000  Uiso   1.00
H669   H     0.01608   0.52650   0.70897   0.00000  Uiso   1.00
I670   I     0.09463   0.66056   0.81650   0.00000  Uiso   1.00
I671   I     0.11781   0.53097   0.60517   0.00000  Uiso   1.00
I672   I     0.03974   0.52390   0.91057   0.00000  Uiso   1.00
O673   O     0.16667   0.50000   0.75000   0.00000  Uiso   1.00
O674   O     0.15451   0.45970   0.65459   0.00000  Uiso   1.00
O675   O     0.12940   0.53724   0.84968   0.00000  Uiso   1.00
O676   O     0.20824   0.51092   0.64606   0.00000  Uiso   1.00
O677   O     0.17451   0.49213   0.84968   0.00000  Uiso   1.00
O678   O     0.17930   0.41352   0.78214   0.00000  Uiso   1.00
O679   O     0.14632   0.59418   0.77014   0.00000  Uiso   1.00
O680   O     0.07412   0.46625   0.73413   0.00000  Uiso   1.00
O681   O     0.26693   0.52605   0.71361   0.00000  Uiso   1.00
O682   O     0.07071   0.52211   0.78213   0.00000  Uiso   1.00
O683   O     0.25491   0.48559   0.77014   0.00000  Uiso   1.00
O684   O     0.13760   0.40277   0.73413   0.00000  Uiso   1.00
O685   O     0.20345   0.58953   0.71361   0.00000  Uiso   1.00
Zn686  Zn    0.19338   0.47327   0.78734   0.00000  Uiso   1.00
Zn687  Zn    0.13379   0.45791   0.71876   0.00000  Uiso   1.00
Zn688  Zn    0.21056   0.53109   0.70657   0.00000  Uiso   1.00
Zn689  Zn    0.12893   0.53773   0.78734   0.00000  Uiso   1.00
C690   C     0.38609   0.49324   0.76003   0.00000  Uiso   1.00
C691   C     0.49816   0.49383   0.56158   0.00000  Uiso   1.00
C692   C     0.56567   0.46643   0.55538   0.00000  Uiso   1.00
C693   C     0.61414   0.50719   0.73994   0.00000  Uiso   1.00
C694   C     0.46669   0.51846   0.92030   0.00000  Uiso   1.00
C695   C     0.66014   0.50972   0.73559   0.00000  Uiso   1.00
C696   C     0.34073   0.49129   0.76424   0.00000  Uiso   1.00
C697   C     0.51268   0.65572   0.73778   0.00000  Uiso   1.00
C698   C     0.48401   0.34591   0.76505   0.00000  Uiso   1.00
C699   C     0.49005   0.38942   0.75966   0.00000  Uiso   1.00
C700   C     0.50961   0.61125   0.74042   0.00000  Uiso   1.00
C701   C     0.40687   0.50508   0.98551   0.00000  Uiso   1.00
C702   C     0.51885   0.48176   0.62943   0.00000  Uiso   1.00
C703   C     0.48110   0.51751   0.87101   0.00000  Uiso   1.00
C704   C     0.57922   0.47324   0.51030   0.00000  Uiso   1.00
C705   C     0.52599   0.47778   0.58124   0.00000  Uiso   1.00
C706   C     0.42206   0.51671   0.94189   0.00000  Uiso   1.00
C707   C     0.43500   0.49601   0.50851   0.00000  Uiso   1.00
C708   C     0.47984   0.50234   0.99034   0.00000  Uiso   1.00
C709   C     0.49584   0.51246   0.94513   0.00000  Uiso   1.00
C710   C     0.50901   0.49453   0.51432   0.00000  Uiso   1.00
C711   C     0.55179   0.48850   0.98994   0.00000  Uiso   1.00
C712   C     0.56741   0.49966   0.94608   0.00000  Uiso   1.00
C713   C     0.54051   0.51429   0.92514   0.00000  Uiso   1.00
H714   H     0.58770   0.45561   0.57099   0.00000  Uiso   1.00
H715   H     0.65211   0.47483   0.79146   0.00000  Uiso   1.00
H716   H     0.53947   0.33669   0.71264   0.00000  Uiso   1.00
H717   H     0.60088   0.49812   0.92827   0.00000  Uiso   1.00
H718   H     0.61150   0.46744   0.99157   0.00000  Uiso   1.00
H719   H     0.42099   0.48199   0.53976   0.00000  Uiso   1.00
H720   H     0.37257   0.50077   0.50101   0.00000  Uiso   1.00
H721   H     0.55503   0.52540   0.89237   0.00000  Uiso   1.00
H722   H     0.34941   0.52650   0.70897   0.00000  Uiso   1.00
I723   I     0.42796   0.66056   0.81650   0.00000  Uiso   1.00
I724   I     0.45114   0.53097   0.60517   0.00000  Uiso   1.00
I725   I     0.37308   0.52390   0.91057   0.00000  Uiso   1.00
O726   O     0.50000   0.50000   0.75000   0.00000  Uiso   1.00
O727   O     0.48784   0.45970   0.65459   0.00000  Uiso   1.00
O728   O     0.46274   0.53724   0.84968   0.00000  Uiso   1.00
O729   O     0.54157   0.51092   0.64606   0.00000  Uiso   1.00
O730   O     0.50785   0.49213   0.84968   0.00000  Uiso   1.00
O731   O     0.51264   0.41352   0.78214   0.00000  Uiso   1.00
O732   O     0.47965   0.59418   0.77014   0.00000  Uiso   1.00
O733   O     0.40745   0.46625   0.73413   0.00000  Uiso   1.00
O734   O     0.60026   0.52605   0.71361   0.00000  Uiso   1.00
O735   O     0.40405   0.52211   0.78213   0.00000  Uiso   1.00
O736   O     0.58824   0.48559   0.77014   0.00000  Uiso   1.00
O737   O     0.47093   0.40277   0.73413   0.00000  Uiso   1.00
O738   O     0.53678   0.58953   0.71361   0.00000  Uiso   1.00
Zn739  Zn    0.52672   0.47327   0.78734   0.00000  Uiso   1.00
Zn740  Zn    0.46713   0.45791   0.71876   0.00000  Uiso   1.00
Zn741  Zn    0.54389   0.53109   0.70657   0.00000  Uiso   1.00
Zn742  Zn    0.46226   0.53773   0.78734   0.00000  Uiso   1.00
C743   C     0.71942   0.49324   0.76003   0.00000  Uiso   1.00
C744   C     0.83149   0.49383   0.56158   0.00000  Uiso   1.00
C745   C     0.89900   0.46643   0.55538   0.00000  Uiso   1.00
C746   C     0.94747   0.50719   0.73994   0.00000  Uiso   1.00
C747   C     0.80002   0.51846   0.92030   0.00000  Uiso   1.00
C748   C     0.99347   0.50972   0.73559   0.00000  Uiso   1.00
C749   C     0.67407   0.49129   0.76424   0.00000  Uiso   1.00
C750   C     0.84601   0.65572   0.73778   0.00000  Uiso   1.00
C751   C     0.81735   0.34591   0.76505   0.00000  Uiso   1.00
C752   C     0.82339   0.38942   0.75966   0.00000  Uiso   1.00
C753   C     0.84294   0.61125   0.74042   0.00000  Uiso   1.00
C754   C     0.74020   0.50508   0.98551   0.00000  Uiso   1.00
C755   C     0.85218   0.48176   0.62943   0.00000  Uiso   1.00
C756   C     0.81443   0.51751   0.87101   0.00000  Uiso   1.00
C757   C     0.91256   0.47324   0.51030   0.00000  Uiso   1.00
C758   C     0.85932   0.47778   0.58124   0.00000  Uiso   1.00
C759   C     0.75539   0.51671   0.94189   0.00000  Uiso   1.00
C760   C     0.76834   0.49601   0.50851   0.00000  Uiso   1.00
C761   C     0.81317   0.50234   0.99034   0.00000  Uiso   1.00
C762   C     0.82917   0.51246   0.94513   0.00000  Uiso   1.00
C763   C     0.84234   0.49453   0.51432   0.00000  Uiso   1.00
C764   C     0.88513   0.48850   0.98994   0.00000  Uiso   1.00
C765   C     0.90074   0.49966   0.94608   0.00000  Uiso   1.00
C766   C     0.87385   0.51429   0.92514   0.00000  Uiso   1.00
H767   H     0.92104   0.45561   0.57099   0.00000  Uiso   1.00
H768   H     0.98545   0.47483   0.79146   0.00000  Uiso   1.00
H769   H     0.87280   0.33669   0.71264   0.00000  Uiso   1.00
H770   H     0.93421   0.49812   0.92827   0.00000  Uiso   1.00
H771   H     0.94483   0.46744   0.99157   0.00000  Uiso   1.00
H772   H     0.75433   0.48199   0.53976   0.00000  Uiso   1.00
H773   H     0.70590   0.50077   0.50101   0.00000  Uiso   1.00
H774   H     0.88836   0.52540   0.89237   0.00000  Uiso   1.00
H775   H     0.68275   0.52650   0.70897   0.00000  Uiso   1.00
I776   I     0.76129   0.66056   0.81650   0.00000  Uiso   1.00
I777   I     0.78447   0.53097   0.60517   0.00000  Uiso   1.00
I778   I     0.70641   0.52390   0.91057   0.00000  Uiso   1.00
O779   O     0.83333   0.50000   0.75000   0.00000  Uiso   1.00
O780   O     0.82118   0.45970   0.65459   0.00000  Uiso   1.00
O781   O     0.79607   0.53724   0.84968   0.00000  Uiso   1.00
O782   O     0.87491   0.51092   0.64606   0.00000  Uiso   1.00
O783   O     0.84118   0.49213   0.84968   0.00000  Uiso   1.00
O784   O     0.84597   0.41352   0.78214   0.00000  Uiso   1.00
O785   O     0.81298   0.59418   0.77014   0.00000  Uiso   1.00
O786   O     0.74078   0.46625   0.73413   0.00000  Uiso   1.00
O787   O     0.93360   0.52605   0.71361   0.00000  Uiso   1.00
O788   O     0.73738   0.52211   0.78213   0.00000  Uiso   1.00
O789   O     0.92158   0.48559   0.77014   0.00000  Uiso   1.00
O790   O     0.80426   0.40277   0.73413   0.00000  Uiso   1.00
O791   O     0.87012   0.58953   0.71361   0.00000  Uiso   1.00
Zn792  Zn    0.86005   0.47327   0.78734   0.00000  Uiso   1.00
Zn793  Zn    0.80046   0.45791   0.71876   0.00000  Uiso   1.00
Zn794  Zn    0.87723   0.53109   0.70657   0.00000  Uiso   1.00
Zn795  Zn    0.79560   0.53773   0.78734   0.00000  Uiso   1.00
C796   C     0.05276   0.82657   0.76003   0.00000  Uiso   1.00
C797   C     0.16482   0.82716   0.56158   0.00000  Uiso   1.00
C798   C     0.23233   0.79976   0.55538   0.00000  Uiso   1.00
C799   C     0.28081   0.84052   0.73994   0.00000  Uiso   1.00
C800   C     0.13335   0.85180   0.92030   0.00000  Uiso   1.00
C801   C     0.32681   0.84305   0.73559   0.00000  Uiso   1.00
C802   C     0.00740   0.82462   0.76424   0.00000  Uiso   1.00
C803   C     0.17934   0.98905   0.73778   0.00000  Uiso   1.00
C804   C     0.15068   0.67925   0.76505   0.00000  Uiso   1.00
C805   C     0.15672   0.72275   0.75966   0.00000  Uiso   1.00
C806   C     0.17628   0.94459   0.74042   0.00000  Uiso   1.00
C807   C     0.07353   0.83841   0.98551   0.00000  Uiso   1.00
C808   C     0.18552   0.81509   0.62943   0.00000  Uiso   1.00
C809   C     0.14776   0.85084   0.87101   0.00000  Uiso   1.00
C810   C     0.24589   0.80657   0.51030   0.00000  Uiso   1.00
C811   C     0.19265   0.81112   0.58124   0.00000  Uiso   1.00
C812   C     0.08872   0.85004   0.94189   0.00000  Uiso   1.00
C813   C     0.10167   0.82934   0.50851   0.00000  Uiso   1.00
C814   C     0.14651   0.83567   0.99034   0.00000  Uiso   1.00
C815   C     0.16250   0.84579   0.94513   0.00000  Uiso   1.00
C816   C     0.17567   0.82786   0.51432   0.00000  Uiso   1.00
C817   C     0.21846   0.82183   0.98994   0.00000  Uiso   1.00
C818   C     0.23408   0.83299   0.94608   0.00000  Uiso   1.00
C819   C     0.20718   0.84762   0.92514   0.00000  Uiso   1.00
H820   H     0.25437   0.78894   0.57099   0.00000  Uiso   1.00
H821   H     0.31878   0.80816   0.79146   0.00000  Uiso   1.00
H822   H     0.20613   0.67003   0.71264   0.00000  Uiso   1.00
H823   H     0.26754   0.83145   0.92827   0.00000  Uiso   1.00
H824   H     0.27817   0.80077   0.99157   0.00000  Uiso   1.00
H825   H     0.08766   0.81533   0.53976   0.00000  Uiso   1.00
H826   H     0.03924   0.83410   0.50101   0.00000  Uiso   1.00
H827   H     0.22169   0.85874   0.89237   0.00000  Uiso   1.00
H828   H     0.01608   0.85983   0.70897   0.00000  Uiso   1.00
I829   I     0.09463   0.99389   0.81650   0.00000  Uiso   1.00
I830   I     0.11781   0.86431   0.60517   0.00000  Uiso   1.00
I831   I     0.03974   0.85724   0.91057   0.00000  Uiso   1.00
O832   O     0.16667   0.83333   0.75000   0.00000  Uiso   1.00
O833   O     0.15451   0.79304   0.65459   0.00000  Uiso   1.00
O834   O     0.12940   0.87058   0.84968   0.00000  Uiso   1.00
O835   O     0.20824   0.84425   0.64606   0.00000  Uiso   1.00
O836   O     0.17451   0.82546   0.84968   0.00000  Uiso   1.00
O837   O     0.17930   0.74686   0.78214   0.00000  Uiso   1.00
O838   O     0.14632   0.92751   0.77014   0.00000  Uiso   1.00
O839   O     0.07412   0.79958   0.73413   0.00000  Uiso   1.00
O840   O     0.26693   0.85939   0.71361   0.00000  Uiso   1.00
O841   O     0.07071   0.85544   0.78213   0.00000  Uiso   1.00
O842   O     0.25491   0.81892   0.77014   0.00000  Uiso   1.00
O843   O     0.13760   0.73610   0.73413   0.00000  Uiso   1.00
O844   O     0.20345   0.92286   0.71361   0.00000  Uiso   1.00
Zn845  Zn    0.19338   0.80661   0.78734   0.00000  Uiso   1.00
Zn846  Zn    0.13379   0.79124   0.71876   0.00000  Uiso   1.00
Zn847  Zn    0.21056   0.86442   0.70657   0.00000  Uiso   1.00
Zn848  Zn    0.12893   0.87106   0.78734   0.00000  Uiso   1.00
C849   C     0.38609   0.82657   0.76003   0.00000  Uiso   1.00
C850   C     0.49816   0.82716   0.56158   0.00000  Uiso   1.00
C851   C     0.56567   0.79976   0.55538   0.00000  Uiso   1.00
C852   C     0.61414   0.84052   0.73994   0.00000  Uiso   1.00
C853   C     0.46669   0.85180   0.92030   0.00000  Uiso   1.00
C854   C     0.66014   0.84305   0.73559   0.00000  Uiso   1.00
C855   C     0.34073   0.82462   0.76424   0.00000  Uiso   1.00
C856   C     0.51268   0.98905   0.73778   0.00000  Uiso   1.00
C857   C     0.48401   0.67925   0.76505   0.00000  Uiso   1.00
C858   C     0.49005   0.72275   0.75966   0.00000  Uiso   1.00
C859   C     0.50961   0.94459   0.74042   0.00000  Uiso   1.00
C860   C     0.40687   0.83841   0.98551   0.00000  Uiso   1.00
C861   C     0.51885   0.81509   0.62943   0.00000  Uiso   1.00
C862   C     0.48110   0.85084   0.87101   0.00000  Uiso   1.00
C863   C     0.57922   0.80657   0.51030   0.00000  Uiso   1.00
C864   C     0.52599   0.81112   0.58124   0.00000  Uiso   1.00
C865   C     0.42206   0.85004   0.94189   0.00000  Uiso   1.00
C866   C     0.43500   0.82934   0.50851   0.00000  Uiso   1.00
C867   C     0.47984   0.83567   0.99034   0.00000  Uiso   1.00
C868   C     0.49584   0.84579   0.94513   0.00000  Uiso   1.00
C869   C     0.50901   0.82786   0.51432   0.00000  Uiso   1.00
C870   C     0.55179   0.82183   0.98994   0.00000  Uiso   1.00
C871   C     0.56741   0.83299   0.94608   0.00000  Uiso   1.00
C872   C     0.54051   0.84762   0.92514   0.00000  Uiso   1.00
H873   H     0.58770   0.78894   0.57099   0.00000  Uiso   1.00
H874   H     0.65211   0.80816   0.79146   0.00000  Uiso   1.00
H875   H     0.53947   0.67003   0.71264   0.00000  Uiso   1.00
H876   H     0.60088   0.83145   0.92827   0.00000  Uiso   1.00
H877   H     0.61150   0.80077   0.99157   0.00000  Uiso   1.00
H878   H     0.42099   0.81533   0.53976   0.00000  Uiso   1.00
H879   H     0.37257   0.83410   0.50101   0.00000  Uiso   1.00
H880   H     0.55503   0.85874   0.89237   0.00000  Uiso   1.00
H881   H     0.34941   0.85983   0.70897   0.00000  Uiso   1.00
I882   I     0.42796   0.99389   0.81650   0.00000  Uiso   1.00
I883   I     0.45114   0.86431   0.60517   0.00000  Uiso   1.00
I884   I     0.37308   0.85724   0.91057   0.00000  Uiso   1.00
O885   O     0.50000   0.83333   0.75000   0.00000  Uiso   1.00
O886   O     0.48784   0.79304   0.65459   0.00000  Uiso   1.00
O887   O     0.46274   0.87058   0.84968   0.00000  Uiso   1.00
O888   O     0.54157   0.84425   0.64606   0.00000  Uiso   1.00
O889   O     0.50785   0.82546   0.84968   0.00000  Uiso   1.00
O890   O     0.51264   0.74686   0.78214   0.00000  Uiso   1.00
O891   O     0.47965   0.92751   0.77014   0.00000  Uiso   1.00
O892   O     0.40745   0.79958   0.73413   0.00000  Uiso   1.00
O893   O     0.60026   0.85939   0.71361   0.00000  Uiso   1.00
O894   O     0.40405   0.85544   0.78213   0.00000  Uiso   1.00
O895   O     0.58824   0.81892   0.77014   0.00000  Uiso   1.00
O896   O     0.47093   0.73610   0.73413   0.00000  Uiso   1.00
O897   O     0.53678   0.92286   0.71361   0.00000  Uiso   1.00
Zn898  Zn    0.52672   0.80661   0.78734   0.00000  Uiso   1.00
Zn899  Zn    0.46713   0.79124   0.71876   0.00000  Uiso   1.00
Zn900  Zn    0.54389   0.86442   0.70657   0.00000  Uiso   1.00
Zn901  Zn    0.46226   0.87106   0.78734   0.00000  Uiso   1.00
C902   C     0.71942   0.82657   0.76003   0.00000  Uiso   1.00
C903   C     0.83149   0.82716   0.56158   0.00000  Uiso   1.00
C904   C     0.89900   0.79976   0.55538   0.00000  Uiso   1.00
C905   C     0.94747   0.84052   0.73994   0.00000  Uiso   1.00
C906   C     0.80002   0.85180   0.92030   0.00000  Uiso   1.00
C907   C     0.99347   0.84305   0.73559   0.00000  Uiso   1.00
C908   C     0.67407   0.82462   0.76424   0.00000  Uiso   1.00
C909   C     0.84601   0.98905   0.73778   0.00000  Uiso   1.00
C910   C     0.81735   0.67925   0.76505   0.00000  Uiso   1.00
C911   C     0.82339   0.72275   0.75966   0.00000  Uiso   1.00
C912   C     0.84294   0.94459   0.74042   0.00000  Uiso   1.00
C913   C     0.74020   0.83841   0.98551   0.00000  Uiso   1.00
C914   C     0.85218   0.81509   0.62943   0.00000  Uiso   1.00
C915   C     0.81443   0.85084   0.87101   0.00000  Uiso   1.00
C916   C     0.91256   0.80657   0.51030   0.00000  Uiso   1.00
C917   C     0.85932   0.81112   0.58124   0.00000  Uiso   1.00
C918   C     0.75539   0.85004   0.94189   0.00000  Uiso   1.00
C919   C     0.76834   0.82934   0.50851   0.00000  Uiso   1.00
C920   C     0.81317   0.83567   0.99034   0.00000  Uiso   1.00
C921   C     0.82917   0.84579   0.94513   0.00000  Uiso   1.00
C922   C     0.84234   0.82786   0.51432   0.00000  Uiso   1.00
C923   C     0.88513   0.82183   0.98994   0.00000  Uiso   1.00
C924   C     0.90074   0.83299   0.94608   0.00000  Uiso   1.00
C925   C     0.87385   0.84762   0.92514   0.00000  Uiso   1.00
H926   H     0.92104   0.78894   0.57099   0.00000  Uiso   1.00
H927   H     0.98545   0.80816   0.79146   0.00000  Uiso   1.00
H928   H     0.87280   0.67003   0.71264   0.00000  Uiso   1.00
H929   H     0.93421   0.83145   0.92827   0.00000  Uiso   1.00
H930   H     0.94483   0.80077   0.99157   0.00000  Uiso   1.00
H931   H     0.75433   0.81533   0.53976   0.00000  Uiso   1.00
H932   H     0.70590   0.83410   0.50101   0.00000  Uiso   1.00
H933   H     0.88836   0.85874   0.89237   0.00000  Uiso   1.00
H934   H     0.68275   0.85983   0.70897   0.00000  Uiso   1.00
I935   I     0.76129   0.99389   0.81650   0.00000  Uiso   1.00
I936   I     0.78447   0.86431   0.60517   0.00000  Uiso   1.00
I937   I     0.70641   0.85724   0.91057   0.00000  Uiso   1.00
O938   O     0.83333   0.83333   0.75000   0.00000  Uiso   1.00
O939   O     0.82118   0.79304   0.65459   0.00000  Uiso   1.00
O940   O     0.79607   0.87058   0.84968   0.00000  Uiso   1.00
O941   O     0.87491   0.84425   0.64606   0.00000  Uiso   1.00
O942   O     0.84118   0.82546   0.84968   0.00000  Uiso   1.00
O943   O     0.84597   0.74686   0.78214   0.00000  Uiso   1.00
O944   O     0.81298   0.92751   0.77014   0.00000  Uiso   1.00
O945   O     0.74078   0.79958   0.73413   0.00000  Uiso   1.00
O946   O     0.93360   0.85939   0.71361   0.00000  Uiso   1.00
O947   O     0.73738   0.85544   0.78213   0.00000  Uiso   1.00
O948   O     0.92158   0.81892   0.77014   0.00000  Uiso   1.00
O949   O     0.80426   0.73610   0.73413   0.00000  Uiso   1.00
O950   O     0.87012   0.92286   0.71361   0.00000  Uiso   1.00
Zn951  Zn    0.86005   0.80661   0.78734   0.00000  Uiso   1.00
Zn952  Zn    0.80046   0.79124   0.71876   0.00000  Uiso   1.00
Zn953  Zn    0.87723   0.86442   0.70657   0.00000  Uiso   1.00
Zn954  Zn    0.79560   0.87106   0.78734   0.00000  Uiso   1.00
loop_
_geom_bond_atom_site_label_1
_geom_bond_atom_site_label_2
_geom_bond_distance
_geom_bond_site_symmetry_2
_ccdc_geom_bond_type
C1     O44     1.272   .     A
C1     O46     1.271   .     A
C1     C7      1.437   .     S
C2     I35     2.163   .     S
C2     C16     1.406   .     A
C2     C21     1.419   .     A
C3     H25     1.084   .     S
C3     C15     1.386   .     A
C3     C16     1.398   .     A
C4     O45     1.285   .     A
C4     C6      1.455   .     S
C4     O47     1.280   .     A
C5     C14     1.476   .     S
C5     C20     1.422   .     A
C5     C17     1.419   .     A
C6     C60     1.335   .     S
C6     H86     1.088   .     S
C7     C112    1.335   1_455 S
C7     H132    1.086   1_455 S
C8     C11     1.450   .     S
C8     C168    1.344   .     S
C8     H186    1.088   .     S
C9     C10     1.427   .     S
C9     C326    1.344   1_545 S
C9     I352    2.138   1_545 S
C10    O42     1.279   .     A
C10    O48     1.278   .     A
C11    O43     1.259   .     A
C11    O49     1.274   .     A
C12    C17     1.390   .     A
C12    C495    1.385   .     S
C12    H508    1.083   .     S
C13    O38     1.279   .     A
C13    C16     1.449   .     S
C13    O40     1.270   .     A
C14    O41     1.285   .     A
C14    O39     1.279   .     A
C15    C499    1.397   1_554 S
C15    H506    1.084   1_554 S
C17    I36     2.132   .     S
C18    H30     1.079   .     S
C18    C489    1.385   1_554 S
C18    C496    1.406   1_554 S
C19    C20     1.421   .     A
C19    C495    1.406   .     S
C19    C498    1.421   .     S
C20    C24     1.411   .     A
C21    C496    1.421   1_554 S
C21    C499    1.421   1_554 S
C22    C23     1.392   .     A
C22    C492    1.397   .     S
C22    C498    1.421   .     S
C23    C24     1.385   .     A
C23    H28     1.084   .     S
C24    H32     1.081   .     S
H26    C60     1.086   .     S
H27    C326    1.088   1_545 S
H29    C492    1.084   .     S
H31    C489    1.083   1_554 S
H33    C112    1.088   1_455 S
I34    C168    2.138   .     S
O37    Zn53    1.925   .     S
O37    Zn50    1.966   .     S
O37    Zn51    1.953   .     S
O37    Zn52    1.934   .     S
O38    Zn51    1.932   .     S
O39    Zn53    1.948   .     S
O40    Zn52    1.942   .     S
O41    Zn50    1.927   .     S
O42    Zn50    1.936   .     S
O43    Zn53    1.939   .     S
O44    Zn51    1.919   .     S
O45    Zn52    1.935   .     S
O46    Zn53    1.933   .     S
O47    Zn50    1.919   .     S
O48    Zn51    1.942   .     S
O49    Zn52    1.934   .     S
C54    O97     1.272   .     A
C54    O99     1.271   .     A
C54    C60     1.437   .     S
C55    I88     2.163   .     S
C55    C69     1.406   .     A
C55    C74     1.419   .     A
C56    H78     1.084   .     S
C56    C68     1.386   .     A
C56    C69     1.398   .     A
C57    O98     1.285   .     A
C57    C59     1.455   .     S
C57    O100    1.280   .     A
C58    C67     1.476   .     S
C58    C73     1.422   .     A
C58    C70     1.419   .     A
C59    C113    1.335   .     S
C59    H139    1.088   .     S
C61    C64     1.450   .     S
C61    C221    1.344   .     S
C61    H239    1.088   .     S
C62    C63     1.427   .     S
C62    C379    1.344   1_545 S
C62    I405    2.138   1_545 S
C63    O95     1.279   .     A
C63    O101    1.278   .     A
C64    O96     1.259   .     A
C64    O102    1.274   .     A
C65    C70     1.390   .     A
C65    C548    1.385   .     S
C65    H561    1.083   .     S
C66    O91     1.279   .     A
C66    C69     1.449   .     S
C66    O93     1.270   .     A
C67    O94     1.285   .     A
C67    O92     1.279   .     A
C68    C552    1.397   1_554 S
C68    H559    1.084   1_554 S
C70    I89     2.132   .     S
C71    H83     1.079   .     S
C71    C542    1.385   1_554 S
C71    C549    1.406   1_554 S
C72    C73     1.421   .     A
C72    C548    1.406   .     S
C72    C551    1.421   .     S
C73    C77     1.411   .     A
C74    C549    1.421   1_554 S
C74    C552    1.421   1_554 S
C75    C76     1.392   .     A
C75    C545    1.397   .     S
C75    C551    1.421   .     S
C76    C77     1.385   .     A
C76    H81     1.084   .     S
C77    H85     1.081   .     S
H79    C113    1.086   .     S
H80    C379    1.088   1_545 S
H82    C545    1.084   .     S
H84    C542    1.083   1_554 S
I87    C221    2.138   .     S
O90    Zn106   1.925   .     S
O90    Zn103   1.966   .     S
O90    Zn104   1.953   .     S
O90    Zn105   1.934   .     S
O91    Zn104   1.932   .     S
O92    Zn106   1.948   .     S
O93    Zn105   1.942   .     S
O94    Zn103   1.927   .     S
O95    Zn103   1.936   .     S
O96    Zn106   1.939   .     S
O97    Zn104   1.919   .     S
O98    Zn105   1.935   .     S
O99    Zn106   1.933   .     S
O100   Zn103   1.919   .     S
O101   Zn104   1.942   .     S
O102   Zn105   1.934   .     S
C107   O150    1.272   .     A
C107   O152    1.271   .     A
C107   C113    1.437   .     S
C108   I141    2.163   .     S
C108   C122    1.406   .     A
C108   C127    1.419   .     A
C109   H131    1.084   .     S
C109   C121    1.386   .     A
C109   C122    1.398   .     A
C110   O151    1.285   .     A
C110   C112    1.455   .     S
C110   O153    1.280   .     A
C111   C120    1.476   .     S
C111   C126    1.422   .     A
C111   C123    1.419   .     A
C112   C7      1.335   1_655 S
C112   H33     1.088   1_655 S
C114   C117    1.450   .     S
C114   C274    1.344   .     S
C114   H292    1.088   .     S
C115   C116    1.427   .     S
C115   C432    1.344   1_545 S
C115   I458    2.138   1_545 S
C116   O148    1.279   .     A
C116   O154    1.278   .     A
C117   O149    1.259   .     A
C117   O155    1.274   .     A
C118   C123    1.390   .     A
C118   C601    1.385   .     S
C118   H614    1.083   .     S
C119   O144    1.279   .     A
C119   C122    1.449   .     S
C119   O146    1.270   .     A
C120   O147    1.285   .     A
C120   O145    1.279   .     A
C121   C605    1.397   1_554 S
C121   H612    1.084   1_554 S
C123   I142    2.132   .     S
C124   H136    1.079   .     S
C124   C595    1.385   1_554 S
C124   C602    1.406   1_554 S
C125   C126    1.421   .     A
C125   C601    1.406   .     S
C125   C604    1.421   .     S
C126   C130    1.411   .     A
C127   C602    1.421   1_554 S
C127   C605    1.421   1_554 S
C128   C129    1.392   .     A
C128   C598    1.397   .     S
C128   C604    1.421   .     S
C129   C130    1.385   .     A
C129   H134    1.084   .     S
C130   H138    1.081   .     S
H132   C7      1.086   1_655 S
H133   C432    1.088   1_545 S
H135   C598    1.084   .     S
H137   C595    1.083   1_554 S
I140   C274    2.138   .     S
O143   Zn159   1.925   .     S
O143   Zn156   1.966   .     S
O143   Zn157   1.953   .     S
O143   Zn158   1.934   .     S
O144   Zn157   1.932   .     S
O145   Zn159   1.948   .     S
O146   Zn158   1.942   .     S
O147   Zn156   1.927   .     S
O148   Zn156   1.936   .     S
O149   Zn159   1.939   .     S
O150   Zn157   1.919   .     S
O151   Zn158   1.935   .     S
O152   Zn159   1.933   .     S
O153   Zn156   1.919   .     S
O154   Zn157   1.942   .     S
O155   Zn158   1.934   .     S
C160   O203    1.272   .     A
C160   O205    1.271   .     A
C160   C166    1.437   .     S
C161   I194    2.163   .     S
C161   C175    1.406   .     A
C161   C180    1.419   .     A
C162   H184    1.084   .     S
C162   C174    1.386   .     A
C162   C175    1.398   .     A
C163   O204    1.285   .     A
C163   C165    1.455   .     S
C163   O206    1.280   .     A
C164   C173    1.476   .     S
C164   C179    1.422   .     A
C164   C176    1.419   .     A
C165   C219    1.335   .     S
C165   H245    1.088   .     S
C166   C271    1.335   1_455 S
C166   H291    1.086   1_455 S
C167   C170    1.450   .     S
C167   C327    1.344   .     S
C167   H345    1.088   .     S
C168   C169    1.427   .     S
C169   O201    1.279   .     A
C169   O207    1.278   .     A
C170   O202    1.259   .     A
C170   O208    1.274   .     A
C171   C176    1.390   .     A
C171   C654    1.385   .     S
C171   H667    1.083   .     S
C172   O197    1.279   .     A
C172   C175    1.449   .     S
C172   O199    1.270   .     A
C173   O200    1.285   .     A
C173   O198    1.279   .     A
C174   C658    1.397   1_554 S
C174   H665    1.084   1_554 S
C176   I195    2.132   .     S
C177   H189    1.079   .     S
C177   C648    1.385   1_554 S
C177   C655    1.406   1_554 S
C178   C179    1.421   .     A
C178   C654    1.406   .     S
C178   C657    1.421   .     S
C179   C183    1.411   .     A
C180   C655    1.421   1_554 S
C180   C658    1.421   1_554 S
C181   C182    1.392   .     A
C181   C651    1.397   .     S
C181   C657    1.421   .     S
C182   C183    1.385   .     A
C182   H187    1.084   .     S
C183   H191    1.081   .     S
H185   C219    1.086   .     S
H188   C651    1.084   .     S
H190   C648    1.083   1_554 S
H192   C271    1.088   1_455 S
I193   C327    2.138   .     S
O196   Zn212   1.925   .     S
O196   Zn209   1.966   .     S
O196   Zn210   1.953   .     S
O196   Zn211   1.934   .     S
O197   Zn210   1.932   .     S
O198   Zn212   1.948   .     S
O199   Zn211   1.942   .     S
O200   Zn209   1.927   .     S
O201   Zn209   1.936   .     S
O202   Zn212   1.939   .     S
O203   Zn210   1.919   .     S
O204   Zn211   1.935   .     S
O205   Zn212   1.933   .     S
O206   Zn209   1.919   .     S
O207   Zn210   1.942   .     S
O208   Zn211   1.934   .     S
C213   O256    1.272   .     A
C213   O258    1.271   .     A
C213   C219    1.437   .     S
C214   I247    2.163   .     S
C214   C228    1.406   .     A
C214   C233    1.419   .     A
C215   H237    1.084   .     S
C215   C227    1.386   .     A
C215   C228    1.398   .     A
C216   O257    1.285   .     A
C216   C218    1.455   .     S
C216   O259    1.280   .     A
C217   C226    1.476   .     S
C217   C232    1.422   .     A
C217   C229    1.419   .     A
C218   C272    1.335   .     S
C218   H298    1.088   .     S
C220   C223    1.450   .     S
C220   C380    1.344   .     S
C220   H398    1.088   .     S
C221   C222    1.427   .     S
C222   O254    1.279   .     A
C222   O260    1.278   .     A
C223   O255    1.259   .     A
C223   O261    1.274   .     A
C224   C229    1.390   .     A
C224   C707    1.385   .     S
C224   H720    1.083   .     S
C225   O250    1.279   .     A
C225   C228    1.449   .     S
C225   O252    1.270   .     A
C226   O253    1.285   .     A
C226   O251    1.279   .     A
C227   C711    1.397   1_554 S
C227   H718    1.084   1_554 S
C229   I248    2.132   .     S
C230   H242    1.079   .     S
C230   C701    1.385   1_554 S
C230   C708    1.406   1_554 S
C231   C232    1.421   .     A
C231   C707    1.406   .     S
C231   C710    1.421   .     S
C232   C236    1.411   .     A
C233   C708    1.421   1_554 S
C233   C711    1.421   1_554 S
C234   C235    1.392   .     A
C234   C704    1.397   .     S
C234   C710    1.421   .     S
C235   C236    1.385   .     A
C235   H240    1.084   .     S
C236   H244    1.081   .     S
H238   C272    1.086   .     S
H241   C704    1.084   .     S
H243   C701    1.083   1_554 S
I246   C380    2.138   .     S
O249   Zn265   1.925   .     S
O249   Zn262   1.966   .     S
O249   Zn263   1.953   .     S
O249   Zn264   1.934   .     S
O250   Zn263   1.932   .     S
O251   Zn265   1.948   .     S
O252   Zn264   1.942   .     S
O253   Zn262   1.927   .     S
O254   Zn262   1.936   .     S
O255   Zn265   1.939   .     S
O256   Zn263   1.919   .     S
O257   Zn264   1.935   .     S
O258   Zn265   1.933   .     S
O259   Zn262   1.919   .     S
O260   Zn263   1.942   .     S
O261   Zn264   1.934   .     S
C266   O309    1.272   .     A
C266   O311    1.271   .     A
C266   C272    1.437   .     S
C267   I300    2.163   .     S
C267   C281    1.406   .     A
C267   C286    1.419   .     A
C268   H290    1.084   .     S
C268   C280    1.386   .     A
C268   C281    1.398   .     A
C269   O310    1.285   .     A
C269   C271    1.455   .     S
C269   O312    1.280   .     A
C270   C279    1.476   .     S
C270   C285    1.422   .     A
C270   C282    1.419   .     A
C271   C166    1.335   1_655 S
C271   H192    1.088   1_655 S
C273   C276    1.450   .     S
C273   C433    1.344   .     S
C273   H451    1.088   .     S
C274   C275    1.427   .     S
C275   O307    1.279   .     A
C275   O313    1.278   .     A
C276   O308    1.259   .     A
C276   O314    1.274   .     A
C277   C282    1.390   .     A
C277   C760    1.385   .     S
C277   H773    1.083   .     S
C278   O303    1.279   .     A
C278   C281    1.449   .     S
C278   O305    1.270   .     A
C279   O306    1.285   .     A
C279   O304    1.279   .     A
C280   C764    1.397   1_554 S
C280   H771    1.084   1_554 S
C282   I301    2.132   .     S
C283   H295    1.079   .     S
C283   C754    1.385   1_554 S
C283   C761    1.406   1_554 S
C284   C285    1.421   .     A
C284   C760    1.406   .     S
C284   C763    1.421   .     S
C285   C289    1.411   .     A
C286   C761    1.421   1_554 S
C286   C764    1.421   1_554 S
C287   C288    1.392   .     A
C287   C757    1.397   .     S
C287   C763    1.421   .     S
C288   C289    1.385   .     A
C288   H293    1.084   .     S
C289   H297    1.081   .     S
H291   C166    1.086   1_655 S
H294   C757    1.084   .     S
H296   C754    1.083   1_554 S
I299   C433    2.138   .     S
O302   Zn318   1.925   .     S
O302   Zn315   1.966   .     S
O302   Zn316   1.953   .     S
O302   Zn317   1.934   .     S
O303   Zn316   1.932   .     S
O304   Zn318   1.948   .     S
O305   Zn317   1.942   .     S
O306   Zn315   1.927   .     S
O307   Zn315   1.936   .     S
O308   Zn318   1.939   .     S
O309   Zn316   1.919   .     S
O310   Zn317   1.935   .     S
O311   Zn318   1.933   .     S
O312   Zn315   1.919   .     S
O313   Zn316   1.942   .     S
O314   Zn317   1.934   .     S
C319   O362    1.272   .     A
C319   O364    1.271   .     A
C319   C325    1.437   .     S
C320   I353    2.163   .     S
C320   C334    1.406   .     A
C320   C339    1.419   .     A
C321   H343    1.084   .     S
C321   C333    1.386   .     A
C321   C334    1.398   .     A
C322   O363    1.285   .     A
C322   C324    1.455   .     S
C322   O365    1.280   .     A
C323   C332    1.476   .     S
C323   C338    1.422   .     A
C323   C335    1.419   .     A
C324   C378    1.335   .     S
C324   H404    1.088   .     S
C325   C430    1.335   1_455 S
C325   H450    1.086   1_455 S
C326   C329    1.450   .     S
C326   C9      1.344   1_565 S
C326   H27     1.088   1_565 S
C327   C328    1.427   .     S
C328   O360    1.279   .     A
C328   O366    1.278   .     A
C329   O361    1.259   .     A
C329   O367    1.274   .     A
C330   C335    1.390   .     A
C330   C813    1.385   .     S
C330   H826    1.083   .     S
C331   O356    1.279   .     A
C331   C334    1.449   .     S
C331   O358    1.270   .     A
C332   O359    1.285   .     A
C332   O357    1.279   .     A
C333   C817    1.397   1_554 S
C333   H824    1.084   1_554 S
C335   I354    2.132   .     S
C336   H348    1.079   .     S
C336   C807    1.385   1_554 S
C336   C814    1.406   1_554 S
C337   C338    1.421   .     A
C337   C813    1.406   .     S
C337   C816    1.421   .     S
C338   C342    1.411   .     A
C339   C814    1.421   1_554 S
C339   C817    1.421   1_554 S
C340   C341    1.392   .     A
C340   C810    1.397   .     S
C340   C816    1.421   .     S
C341   C342    1.385   .     A
C341   H346    1.084   .     S
C342   H350    1.081   .     S
H344   C378    1.086   .     S
H347   C810    1.084   .     S
H349   C807    1.083   1_554 S
H351   C430    1.088   1_455 S
I352   C9      2.138   1_565 S
O355   Zn371   1.925   .     S
O355   Zn368   1.966   .     S
O355   Zn369   1.953   .     S
O355   Zn370   1.934   .     S
O356   Zn369   1.932   .     S
O357   Zn371   1.948   .     S
O358   Zn370   1.942   .     S
O359   Zn368   1.927   .     S
O360   Zn368   1.936   .     S
O361   Zn371   1.939   .     S
O362   Zn369   1.919   .     S
O363   Zn370   1.935   .     S
O364   Zn371   1.933   .     S
O365   Zn368   1.919   .     S
O366   Zn369   1.942   .     S
O367   Zn370   1.934   .     S
C372   O415    1.272   .     A
C372   O417    1.271   .     A
C372   C378    1.437   .     S
C373   I406    2.163   .     S
C373   C387    1.406   .     A
C373   C392    1.419   .     A
C374   H396    1.084   .     S
C374   C386    1.386   .     A
C374   C387    1.398   .     A
C375   O416    1.285   .     A
C375   C377    1.455   .     S
C375   O418    1.280   .     A
C376   C385    1.476   .     S
C376   C391    1.422   .     A
C376   C388    1.419   .     A
C377   C431    1.335   .     S
C377   H457    1.088   .     S
C379   C382    1.450   .     S
C379   C62     1.344   1_565 S
C379   H80     1.088   1_565 S
C380   C381    1.427   .     S
C381   O413    1.279   .     A
C381   O419    1.278   .     A
C382   O414    1.259   .     A
C382   O420    1.274   .     A
C383   C388    1.390   .     A
C383   C866    1.385   .     S
C383   H879    1.083   .     S
C384   O409    1.279   .     A
C384   C387    1.449   .     S
C384   O411    1.270   .     A
C385   O412    1.285   .     A
C385   O410    1.279   .     A
C386   C870    1.397   1_554 S
C386   H877    1.084   1_554 S
C388   I407    2.132   .     S
C389   H401    1.079   .     S
C389   C860    1.385   1_554 S
C389   C867    1.406   1_554 S
C390   C391    1.421   .     A
C390   C866    1.406   .     S
C390   C869    1.421   .     S
C391   C395    1.411   .     A
C392   C867    1.421   1_554 S
C392   C870    1.421   1_554 S
C393   C394    1.392   .     A
C393   C863    1.397   .     S
C393   C869    1.421   .     S
C394   C395    1.385   .     A
C394   H399    1.084   .     S
C395   H403    1.081   .     S
H397   C431    1.086   .     S
H400   C863    1.084   .     S
H402   C860    1.083   1_554 S
I405   C62     2.138   1_565 S
O408   Zn424   1.925   .     S
O408   Zn421   1.966   .     S
O408   Zn422   1.953   .     S
O408   Zn423   1.934   .     S
O409   Zn422   1.932   .     S
O410   Zn424   1.948   .     S
O411   Zn423   1.942   .     S
O412   Zn421   1.927   .     S
O413   Zn421   1.936   .     S
O414   Zn424   1.939   .     S
O415   Zn422   1.919   .     S
O416   Zn423   1.935   .     S
O417   Zn424   1.933   .     S
O418   Zn421   1.919   .     S
O419   Zn422   1.942   .     S
O420   Zn423   1.934   .     S
C425   O468    1.272   .     A
C425   O470    1.271   .     A
C425   C431    1.437   .     S
C426   I459    2.163   .     S
C426   C440    1.406   .     A
C426   C445    1.419   .     A
C427   H449    1.084   .     S
C427   C439    1.386   .     A
C427   C440    1.398   .     A
C428   O469    1.285   .     A
C428   C430    1.455   .     S
C428   O471    1.280   .     A
C429   C438    1.476   .     S
C429   C444    1.422   .     A
C429   C441    1.419   .     A
C430   C325    1.335   1_655 S
C430   H351    1.088   1_655 S
C432   C435    1.450   .     S
C432   C115    1.344   1_565 S
C432   H133    1.088   1_565 S
C433   C434    1.427   .     S
C434   O466    1.279   .     A
C434   O472    1.278   .     A
C435   O467    1.259   .     A
C435   O473    1.274   .     A
C436   C441    1.390   .     A
C436   C919    1.385   .     S
C436   H932    1.083   .     S
C437   O462    1.279   .     A
C437   C440    1.449   .     S
C437   O464    1.270   .     A
C438   O465    1.285   .     A
C438   O463    1.279   .     A
C439   C923    1.397   1_554 S
C439   H930    1.084   1_554 S
C441   I460    2.132   .     S
C442   H454    1.079   .     S
C442   C913    1.385   1_554 S
C442   C920    1.406   1_554 S
C443   C444    1.421   .     A
C443   C919    1.406   .     S
C443   C922    1.421   .     S
C444   C448    1.411   .     A
C445   C920    1.421   1_554 S
C445   C923    1.421   1_554 S
C446   C447    1.392   .     A
C446   C916    1.397   .     S
C446   C922    1.421   .     S
C447   C448    1.385   .     A
C447   H452    1.084   .     S
C448   H456    1.081   .     S
H450   C325    1.086   1_655 S
H453   C916    1.084   .     S
H455   C913    1.083   1_554 S
I458   C115    2.138   1_565 S
O461   Zn477   1.925   .     S
O461   Zn474   1.966   .     S
O461   Zn475   1.953   .     S
O461   Zn476   1.934   .     S
O462   Zn475   1.932   .     S
O463   Zn477   1.948   .     S
O464   Zn476   1.942   .     S
O465   Zn474   1.927   .     S
O466   Zn474   1.936   .     S
O467   Zn477   1.939   .     S
O468   Zn475   1.919   .     S
O469   Zn476   1.935   .     S
O470   Zn477   1.933   .     S
O471   Zn474   1.919   .     S
O472   Zn475   1.942   .     S
O473   Zn476   1.934   .     S
C478   O521    1.272   .     A
C478   O523    1.271   .     A
C478   C484    1.437   .     S
C479   I512    2.163   .     S
C479   C493    1.406   .     A
C479   C498    1.419   .     A
C480   H502    1.084   .     S
C480   C492    1.386   .     A
C480   C493    1.398   .     A
C481   O522    1.285   .     A
C481   C483    1.455   .     S
C481   O524    1.280   .     A
C482   C491    1.476   .     S
C482   C497    1.422   .     A
C482   C494    1.419   .     A
C483   C537    1.335   .     S
C483   H563    1.088   .     S
C484   C589    1.335   1_455 S
C484   H609    1.086   1_455 S
C485   C488    1.450   .     S
C485   C645    1.344   .     S
C485   H663    1.088   .     S
C486   C487    1.427   .     S
C486   C803    1.344   1_545 S
C486   I829    2.138   1_545 S
C487   O519    1.279   .     A
C487   O525    1.278   .     A
C488   O520    1.259   .     A
C488   O526    1.274   .     A
C489   C494    1.390   .     A
C489   C18     1.385   1_556 S
C489   H31     1.083   1_556 S
C490   O515    1.279   .     A
C490   C493    1.449   .     S
C490   O517    1.270   .     A
C491   O518    1.285   .     A
C491   O516    1.279   .     A
C494   I513    2.132   .     S
C495   H507    1.079   .     S
C496   C497    1.421   .     A
C496   C18     1.406   1_556 S
C496   C21     1.421   1_556 S
C497   C501    1.411   .     A
C499   C500    1.392   .     A
C499   C15     1.397   1_556 S
C499   C21     1.421   1_556 S
C500   C501    1.385   .     A
C500   H505    1.084   .     S
C501   H509    1.081   .     S
H503   C537    1.086   .     S
H504   C803    1.088   1_545 S
H506   C15     1.084   1_556 S
H510   C589    1.088   1_455 S
I511   C645    2.138   .     S
O514   Zn530   1.925   .     S
O514   Zn527   1.966   .     S
O514   Zn528   1.953   .     S
O514   Zn529   1.934   .     S
O515   Zn528   1.932   .     S
O516   Zn530   1.948   .     S
O517   Zn529   1.942   .     S
O518   Zn527   1.927   .     S
O519   Zn527   1.936   .     S
O520   Zn530   1.939   .     S
O521   Zn528   1.919   .     S
O522   Zn529   1.935   .     S
O523   Zn530   1.933   .     S
O524   Zn527   1.919   .     S
O525   Zn528   1.942   .     S
O526   Zn529   1.934   .     S
C531   O574    1.272   .     A
C531   O576    1.271   .     A
C531   C537    1.437   .     S
C532   I565    2.163   .     S
C532   C546    1.406   .     A
C532   C551    1.419   .     A
C533   H555    1.084   .     S
C533   C545    1.386   .     A
C533   C546    1.398   .     A
C534   O575    1.285   .     A
C534   C536    1.455   .     S
C534   O577    1.280   .     A
C535   C544    1.476   .     S
C535   C550    1.422   .     A
C535   C547    1.419   .     A
C536   C590    1.335   .     S
C536   H616    1.088   .     S
C538   C541    1.450   .     S
C538   C698    1.344   .     S
C538   H716    1.088   .     S
C539   C540    1.427   .     S
C539   C856    1.344   1_545 S
C539   I882    2.138   1_545 S
C540   O572    1.279   .     A
C540   O578    1.278   .     A
C541   O573    1.259   .     A
C541   O579    1.274   .     A
C542   C547    1.390   .     A
C542   C71     1.385   1_556 S
C542   H84     1.083   1_556 S
C543   O568    1.279   .     A
C543   C546    1.449   .     S
C543   O570    1.270   .     A
C544   O571    1.285   .     A
C544   O569    1.279   .     A
C547   I566    2.132   .     S
C548   H560    1.079   .     S
C549   C550    1.421   .     A
C549   C71     1.406   1_556 S
C549   C74     1.421   1_556 S
C550   C554    1.411   .     A
C552   C553    1.392   .     A
C552   C68     1.397   1_556 S
C552   C74     1.421   1_556 S
C553   C554    1.385   .     A
C553   H558    1.084   .     S
C554   H562    1.081   .     S
H556   C590    1.086   .     S
H557   C856    1.088   1_545 S
H559   C68     1.084   1_556 S
I564   C698    2.138   .     S
O567   Zn583   1.925   .     S
O567   Zn580   1.966   .     S
O567   Zn581   1.953   .     S
O567   Zn582   1.934   .     S
O568   Zn581   1.932   .     S
O569   Zn583   1.948   .     S
O570   Zn582   1.942   .     S
O571   Zn580   1.927   .     S
O572   Zn580   1.936   .     S
O573   Zn583   1.939   .     S
O574   Zn581   1.919   .     S
O575   Zn582   1.935   .     S
O576   Zn583   1.933   .     S
O577   Zn580   1.919   .     S
O578   Zn581   1.942   .     S
O579   Zn582   1.934   .     S
C584   O627    1.272   .     A
C584   O629    1.271   .     A
C584   C590    1.437   .     S
C585   I618    2.163   .     S
C585   C599    1.406   .     A
C585   C604    1.419   .     A
C586   H608    1.084   .     S
C586   C598    1.386   .     A
C586   C599    1.398   .     A
C587   O628    1.285   .     A
C587   C589    1.455   .     S
C587   O630    1.280   .     A
C588   C597    1.476   .     S
C588   C603    1.422   .     A
C588   C600    1.419   .     A
C589   C484    1.335   1_655 S
C589   H510    1.088   1_655 S
C591   C594    1.450   .     S
C591   C751    1.344   .     S
C591   H769    1.088   .     S
C592   C593    1.427   .     S
C592   C909    1.344   1_545 S
C592   I935    2.138   1_545 S
C593   O625    1.279   .     A
C593   O631    1.278   .     A
C594   O626    1.259   .     A
C594   O632    1.274   .     A
C595   C600    1.390   .     A
C595   C124    1.385   1_556 S
C595   H137    1.083   1_556 S
C596   O621    1.279   .     A
C596   C599    1.449   .     S
C596   O623    1.270   .     A
C597   O624    1.285   .     A
C597   O622    1.279   .     A
C600   I619    2.132   .     S
C601   H613    1.079   .     S
C602   C603    1.421   .     A
C602   C124    1.406   1_556 S
C602   C127    1.421   1_556 S
C603   C607    1.411   .     A
C605   C606    1.392   .     A
C605   C121    1.397   1_556 S
C605   C127    1.421   1_556 S
C606   C607    1.385   .     A
C606   H611    1.084   .     S
C607   H615    1.081   .     S
H609   C484    1.086   1_655 S
H610   C909    1.088   1_545 S
H612   C121    1.084   1_556 S
I617   C751    2.138   .     S
O620   Zn636   1.925   .     S
O620   Zn633   1.966   .     S
O620   Zn634   1.953   .     S
O620   Zn635   1.934   .     S
O621   Zn634   1.932   .     S
O622   Zn636   1.948   .     S
O623   Zn635   1.942   .     S
O624   Zn633   1.927   .     S
O625   Zn633   1.936   .     S
O626   Zn636   1.939   .     S
O627   Zn634   1.919   .     S
O628   Zn635   1.935   .     S
O629   Zn636   1.933   .     S
O630   Zn633   1.919   .     S
O631   Zn634   1.942   .     S
O632   Zn635   1.934   .     S
C637   O680    1.272   .     A
C637   O682    1.271   .     A
C637   C643    1.437   .     S
C638   I671    2.163   .     S
C638   C652    1.406   .     A
C638   C657    1.419   .     A
C639   H661    1.084   .     S
C639   C651    1.386   .     A
C639   C652    1.398   .     A
C640   O681    1.285   .     A
C640   C642    1.455   .     S
C640   O683    1.280   .     A
C641   C650    1.476   .     S
C641   C656    1.422   .     A
C641   C653    1.419   .     A
C642   C696    1.335   .     S
C642   H722    1.088   .     S
C643   C748    1.335   1_455 S
C643   H768    1.086   1_455 S
C644   C647    1.450   .     S
C644   C804    1.344   .     S
C644   H822    1.088   .     S
C645   C646    1.427   .     S
C646   O678    1.279   .     A
C646   O684    1.278   .     A
C647   O679    1.259   .     A
C647   O685    1.274   .     A
C648   C653    1.390   .     A
C648   C177    1.385   1_556 S
C648   H190    1.083   1_556 S
C649   O674    1.279   .     A
C649   C652    1.449   .     S
C649   O676    1.270   .     A
C650   O677    1.285   .     A
C650   O675    1.279   .     A
C653   I672    2.132   .     S
C654   H666    1.079   .     S
C655   C656    1.421   .     A
C655   C177    1.406   1_556 S
C655   C180    1.421   1_556 S
C656   C660    1.411   .     A
C658   C659    1.392   .     A
C658   C174    1.397   1_556 S
C658   C180    1.421   1_556 S
C659   C660    1.385   .     A
C659   H664    1.084   .     S
C660   H668    1.081   .     S
H662   C696    1.086   .     S
H665   C174    1.084   1_556 S
H669   C748    1.088   1_455 S
I670   C804    2.138   .     S
O673   Zn689   1.925   .     S
O673   Zn686   1.966   .     S
O673   Zn687   1.953   .     S
O673   Zn688   1.934   .     S
O674   Zn687   1.932   .     S
O675   Zn689   1.948   .     S
O676   Zn688   1.942   .     S
O677   Zn686   1.927   .     S
O678   Zn686   1.936   .     S
O679   Zn689   1.939   .     S
O680   Zn687   1.919   .     S
O681   Zn688   1.935   .     S
O682   Zn689   1.933   .     S
O683   Zn686   1.919   .     S
O684   Zn687   1.942   .     S
O685   Zn688   1.934   .     S
C690   O733    1.272   .     A
C690   O735    1.271   .     A
C690   C696    1.437   .     S
C691   I724    2.163   .     S
C691   C705    1.406   .     A
C691   C710    1.419   .     A
C692   H714    1.084   .     S
C692   C704    1.386   .     A
C692   C705    1.398   .     A
C693   O734    1.285   .     A
C693   C695    1.455   .     S
C693   O736    1.280   .     A
C694   C703    1.476   .     S
C694   C709    1.422   .     A
C694   C706    1.419   .     A
C695   C749    1.335   .     S
C695   H775    1.088   .     S
C697   C700    1.450   .     S
C697   C857    1.344   .     S
C697   H875    1.088   .     S
C698   C699    1.427   .     S
C699   O731    1.279   .     A
C699   O737    1.278   .     A
C700   O732    1.259   .     A
C700   O738    1.274   .     A
C701   C706    1.390   .     A
C701   C230    1.385   1_556 S
C701   H243    1.083   1_556 S
C702   O727    1.279   .     A
C702   C705    1.449   .     S
C702   O729    1.270   .     A
C703   O730    1.285   .     A
C703   O728    1.279   .     A
C706   I725    2.132   .     S
C707   H719    1.079   .     S
C708   C709    1.421   .     A
C708   C230    1.406   1_556 S
C708   C233    1.421   1_556 S
C709   C713    1.411   .     A
C711   C712    1.392   .     A
C711   C227    1.397   1_556 S
C711   C233    1.421   1_556 S
C712   C713    1.385   .     A
C712   H717    1.084   .     S
C713   H721    1.081   .     S
H715   C749    1.086   .     S
H718   C227    1.084   1_556 S
I723   C857    2.138   .     S
O726   Zn742   1.925   .     S
O726   Zn739   1.966   .     S
O726   Zn740   1.953   .     S
O726   Zn741   1.934   .     S
O727   Zn740   1.932   .     S
O728   Zn742   1.948   .     S
O729   Zn741   1.942   .     S
O730   Zn739   1.927   .     S
O731   Zn739   1.936   .     S
O732   Zn742   1.939   .     S
O733   Zn740   1.919   .     S
O734   Zn741   1.935   .     S
O735   Zn742   1.933   .     S
O736   Zn739   1.919   .     S
O737   Zn740   1.942   .     S
O738   Zn741   1.934   .     S
C743   O786    1.272   .     A
C743   O788    1.271   .     A
C743   C749    1.437   .     S
C744   I777    2.163   .     S
C744   C758    1.406   .     A
C744   C763    1.419   .     A
C745   H767    1.084   .     S
C745   C757    1.386   .     A
C745   C758    1.398   .     A
C746   O787    1.285   .     A
C746   C748    1.455   .     S
C746   O789    1.280   .     A
C747   C756    1.476   .     S
C747   C762    1.422   .     A
C747   C759    1.419   .     A
C748   C643    1.335   1_655 S
C748   H669    1.088   1_655 S
C750   C753    1.450   .     S
C750   C910    1.344   .     S
C750   H928    1.088   .     S
C751   C752    1.427   .     S
C752   O784    1.279   .     A
C752   O790    1.278   .     A
C753   O785    1.259   .     A
C753   O791    1.274   .     A
C754   C759    1.390   .     A
C754   C283    1.385   1_556 S
C754   H296    1.083   1_556 S
C755   O780    1.279   .     A
C755   C758    1.449   .     S
C755   O782    1.270   .     A
C756   O783    1.285   .     A
C756   O781    1.279   .     A
C759   I778    2.132   .     S
C760   H772    1.079   .     S
C761   C762    1.421   .     A
C761   C283    1.406   1_556 S
C761   C286    1.421   1_556 S
C762   C766    1.411   .     A
C764   C765    1.392   .     A
C764   C280    1.397   1_556 S
C764   C286    1.421   1_556 S
C765   C766    1.385   .     A
C765   H770    1.084   .     S
C766   H774    1.081   .     S
H768   C643    1.086   1_655 S
H771   C280    1.084   1_556 S
I776   C910    2.138   .     S
O779   Zn795   1.925   .     S
O779   Zn792   1.966   .     S
O779   Zn793   1.953   .     S
O779   Zn794   1.934   .     S
O780   Zn793   1.932   .     S
O781   Zn795   1.948   .     S
O782   Zn794   1.942   .     S
O783   Zn792   1.927   .     S
O784   Zn792   1.936   .     S
O785   Zn795   1.939   .     S
O786   Zn793   1.919   .     S
O787   Zn794   1.935   .     S
O788   Zn795   1.933   .     S
O789   Zn792   1.919   .     S
O790   Zn793   1.942   .     S
O791   Zn794   1.934   .     S
C796   O839    1.272   .     A
C796   O841    1.271   .     A
C796   C802    1.437   .     S
C797   I830    2.163   .     S
C797   C811    1.406   .     A
C797   C816    1.419   .     A
C798   H820    1.084   .     S
C798   C810    1.386   .     A
C798   C811    1.398   .     A
C799   O840    1.285   .     A
C799   C801    1.455   .     S
C799   O842    1.280   .     A
C800   C809    1.476   .     S
C800   C815    1.422   .     A
C800   C812    1.419   .     A
C801   C855    1.335   .     S
C801   H881    1.088   .     S
C802   C907    1.335   1_455 S
C802   H927    1.086   1_455 S
C803   C806    1.450   .     S
C803   C486    1.344   1_565 S
C803   H504    1.088   1_565 S
C804   C805    1.427   .     S
C805   O837    1.279   .     A
C805   O843    1.278   .     A
C806   O838    1.259   .     A
C806   O844    1.274   .     A
C807   C812    1.390   .     A
C807   C336    1.385   1_556 S
C807   H349    1.083   1_556 S
C808   O833    1.279   .     A
C808   C811    1.449   .     S
C808   O835    1.270   .     A
C809   O836    1.285   .     A
C809   O834    1.279   .     A
C812   I831    2.132   .     S
C813   H825    1.079   .     S
C814   C815    1.421   .     A
C814   C336    1.406   1_556 S
C814   C339    1.421   1_556 S
C815   C819    1.411   .     A
C817   C818    1.392   .     A
C817   C333    1.397   1_556 S
C817   C339    1.421   1_556 S
C818   C819    1.385   .     A
C818   H823    1.084   .     S
C819   H827    1.081   .     S
H821   C855    1.086   .     S
H824   C333    1.084   1_556 S
H828   C907    1.088   1_455 S
I829   C486    2.138   1_565 S
O832   Zn848   1.925   .     S
O832   Zn845   1.966   .     S
O832   Zn846   1.953   .     S
O832   Zn847   1.934   .     S
O833   Zn846   1.932   .     S
O834   Zn848   1.948   .     S
O835   Zn847   1.942   .     S
O836   Zn845   1.927   .     S
O837   Zn845   1.936   .     S
O838   Zn848   1.939   .     S
O839   Zn846   1.919   .     S
O840   Zn847   1.935   .     S
O841   Zn848   1.933   .     S
O842   Zn845   1.919   .     S
O843   Zn846   1.942   .     S
O844   Zn847   1.934   .     S
C849   O892    1.272   .     A
C849   O894    1.271   .     A
C849   C855    1.437   .     S
C850   I883    2.163   .     S
C850   C864    1.406   .     A
C850   C869    1.419   .     A
C851   H873    1.084   .     S
C851   C863    1.386   .     A
C851   C864    1.398   .     A
C852   O893    1.285   .     A
C852   C854    1.455   .     S
C852   O895    1.280   .     A
C853   C862    1.476   .     S
C853   C868    1.422   .     A
C853   C865    1.419   .     A
C854   C908    1.335   .     S
C854   H934    1.088   .     S
C856   C859    1.450   .     S
C856   C539    1.344   1_565 S
C856   H557    1.088   1_565 S
C857   C858    1.427   .     S
C858   O890    1.279   .     A
C858   O896    1.278   .     A
C859   O891    1.259   .     A
C859   O897    1.274   .     A
C860   C865    1.390   .     A
C860   C389    1.385   1_556 S
C860   H402    1.083   1_556 S
C861   O886    1.279   .     A
C861   C864    1.449   .     S
C861   O888    1.270   .     A
C862   O889    1.285   .     A
C862   O887    1.279   .     A
C865   I884    2.132   .     S
C866   H878    1.079   .     S
C867   C868    1.421   .     A
C867   C389    1.406   1_556 S
C867   C392    1.421   1_556 S
C868   C872    1.411   .     A
C870   C871    1.392   .     A
C870   C386    1.397   1_556 S
C870   C392    1.421   1_556 S
C871   C872    1.385   .     A
C871   H876    1.084   .     S
C872   H880    1.081   .     S
H874   C908    1.086   .     S
H877   C386    1.084   1_556 S
I882   C539    2.138   1_565 S
O885   Zn901   1.925   .     S
O885   Zn898   1.966   .     S
O885   Zn899   1.953   .     S
O885   Zn900   1.934   .     S
O886   Zn899   1.932   .     S
O887   Zn901   1.948   .     S
O888   Zn900   1.942   .     S
O889   Zn898   1.927   .     S
O890   Zn898   1.936   .     S
O891   Zn901   1.939   .     S
O892   Zn899   1.919   .     S
O893   Zn900   1.935   .     S
O894   Zn901   1.933   .     S
O895   Zn898   1.919   .     S
O896   Zn899   1.942   .     S
O897   Zn900   1.934   .     S
C902   O945    1.272   .     A
C902   O947    1.271   .     A
C902   C908    1.437   .     S
C903   I936    2.163   .     S
C903   C917    1.406   .     A
C903   C922    1.419   .     A
C904   H926    1.084   .     S
C904   C916    1.386   .     A
C904   C917    1.398   .     A
C905   O946    1.285   .     A
C905   C907    1.455   .     S
C905   O948    1.280   .     A
C906   C915    1.476   .     S
C906   C921    1.422   .     A
C906   C918    1.419   .     A
C907   C802    1.335   1_655 S
C907   H828    1.088   1_655 S
C909   C912    1.450   .     S
C909   C592    1.344   1_565 S
C909   H610    1.088   1_565 S
C910   C911    1.427   .     S
C911   O943    1.279   .     A
C911   O949    1.278   .     A
C912   O944    1.259   .     A
C912   O950    1.274   .     A
C913   C918    1.390   .     A
C913   C442    1.385   1_556 S
C913   H455    1.083   1_556 S
C914   O939    1.279   .     A
C914   C917    1.449   .     S
C914   O941    1.270   .     A
C915   O942    1.285   .     A
C915   O940    1.279   .     A
C918   I937    2.132   .     S
C919   H931    1.079   .     S
C920   C921    1.421   .     A
C920   C442    1.406   1_556 S
C920   C445    1.421   1_556 S
C921   C925    1.411   .     A
C923   C924    1.392   .     A
C923   C439    1.397   1_556 S
C923   C445    1.421   1_556 S
C924   C925    1.385   .     A
C924   H929    1.084   .     S
C925   H933    1.081   .     S
H927   C802    1.086   1_655 S
H930   C439    1.084   1_556 S
I935   C592    2.138   1_565 S
O938   Zn954   1.925   .     S
O938   Zn951   1.966   .     S
O938   Zn952   1.953   .     S
O938   Zn953   1.934   .     S
O939   Zn952   1.932   .     S
O940   Zn954   1.948   .     S
O941   Zn953   1.942   .     S
O942   Zn951   1.927   .     S
O943   Zn951   1.936   .     S
O944   Zn954   1.939   .     S
O945   Zn952   1.919   .     S
O946   Zn953   1.935   .     S
O947   Zn954   1.933   .     S
O948   Zn951   1.919   .     S
O949   Zn952   1.942   .     S
O950   Zn953   1.934   .     S
