data_str_m3_o1_o2_pcu_sym.88
_audit_creation_date              2020-01-03
_audit_creation_method            'Materials Studio'
_symmetry_space_group_name_H-M    'P1'
_symmetry_Int_Tables_number       1
_symmetry_cell_setting            triclinic
loop_
_symmetry_equiv_pos_as_xyz
  x,y,z
_cell_length_a                    32.0193
_cell_length_b                    29.8288
_cell_length_c                    30.0353
_cell_angle_alpha                 90.1108
_cell_angle_beta                  91.8246
_cell_angle_gamma                 90.8947
loop_
_atom_site_label
_atom_site_type_symbol
_atom_site_fract_x
_atom_site_fract_y
_atom_site_fract_z
_atom_site_U_iso_or_equiv
_atom_site_adp_type
_atom_site_occupancy
C1     C     0.08685   0.16639   0.24942   0.00000  Uiso   1.00
C2     C     0.31340   0.18779   0.28562   0.00000  Uiso   1.00
C3     C     0.30980   0.14641   0.21455   0.00000  Uiso   1.00
C4     C     0.02339   0.18739   0.28537   0.00000  Uiso   1.00
C5     C     0.17596   0.20782   0.04768   0.00000  Uiso   1.00
C6     C     0.18810   0.13314   0.45300   0.00000  Uiso   1.00
C7     C     0.14945   0.20273   0.45217   0.00000  Uiso   1.00
C8     C     0.16313   0.12727   0.04638   0.00000  Uiso   1.00
C9     C     0.17507   0.20748   0.09362   0.00000  Uiso   1.00
C10    C     0.18631   0.13224   0.40710   0.00000  Uiso   1.00
C11    C     0.14881   0.20249   0.40615   0.00000  Uiso   1.00
C12    C     0.24644   0.16697   0.25071   0.00000  Uiso   1.00
C13    C     0.16341   0.12676   0.09228   0.00000  Uiso   1.00
C14    C     0.16853   0.16694   0.11602   0.00000  Uiso   1.00
C15    C     0.16702   0.16705   0.38369   0.00000  Uiso   1.00
C16    C     0.16951   0.16777   0.02393   0.00000  Uiso   1.00
C17    C     0.16925   0.16809   0.47570   0.00000  Uiso   1.00
C18    C     0.29059   0.16744   0.25016   0.00000  Uiso   1.00
C19    C     0.04265   0.16612   0.24987   0.00000  Uiso   1.00
C20    C     0.22108   0.04847   0.30815   0.00000  Uiso   1.00
C21    C     0.11674   0.28455   0.18748   0.00000  Uiso   1.00
C22    C     0.11879   0.04611   0.18559   0.00000  Uiso   1.00
C23    C     0.16716   0.16668   0.16399   0.00000  Uiso   1.00
C24    C     0.21242   0.28712   0.31613   0.00000  Uiso   1.00
C25    C     0.05198   0.15945   0.14371   0.00000  Uiso   1.00
C26    C     0.28235   0.17597   0.35690   0.00000  Uiso   1.00
C27    C     0.27765   0.08052   0.17807   0.00000  Uiso   1.00
C28    C     0.05539   0.25348   0.32159   0.00000  Uiso   1.00
C29    C     0.16657   0.16674   0.33589   0.00000  Uiso   1.00
C30    C     0.19150   0.02443   0.27956   0.00000  Uiso   1.00
C31    C     0.14267   0.30884   0.21966   0.00000  Uiso   1.00
C32    C     0.14267   0.02334   0.21967   0.00000  Uiso   1.00
C33    C     0.19032   0.30995   0.28064   0.00000  Uiso   1.00
C34    C     0.01977   0.14619   0.21418   0.00000  Uiso   1.00
H35    H     0.18183   0.23923   0.03079   0.00000  Uiso   1.00
H36    H     0.02397   0.17704   0.13026   0.00000  Uiso   1.00
H37    H     0.06697   0.14187   0.11593   0.00000  Uiso   1.00
H38    H     0.07487   0.18401   0.15802   0.00000  Uiso   1.00
H39    H     0.30673   0.23610   0.33454   0.00000  Uiso   1.00
H40    H     0.31102   0.15986   0.37067   0.00000  Uiso   1.00
H41    H     0.26015   0.15011   0.34368   0.00000  Uiso   1.00
H42    H     0.26706   0.19393   0.38424   0.00000  Uiso   1.00
H43    H     0.26076   0.14719   0.16659   0.00000  Uiso   1.00
H44    H     0.28503   0.06616   0.14519   0.00000  Uiso   1.00
H45    H     0.24411   0.07366   0.18413   0.00000  Uiso   1.00
H46    H     0.20425   0.10660   0.47069   0.00000  Uiso   1.00
H47    H     0.29688   0.06339   0.20423   0.00000  Uiso   1.00
H48    H     0.07240   0.18691   0.33333   0.00000  Uiso   1.00
H49    H     0.04834   0.26790   0.35454   0.00000  Uiso   1.00
H50    H     0.03587   0.27053   0.29561   0.00000  Uiso   1.00
H51    H     0.08883   0.26039   0.31509   0.00000  Uiso   1.00
H52    H     0.13407   0.22955   0.46927   0.00000  Uiso   1.00
H53    H     0.15755   0.09608   0.02848   0.00000  Uiso   1.00
H54    H     0.17979   0.23883   0.11147   0.00000  Uiso   1.00
H55    H     0.20063   0.10485   0.39004   0.00000  Uiso   1.00
H56    H     0.13351   0.22941   0.38816   0.00000  Uiso   1.00
H57    H     0.15926   0.09501   0.10895   0.00000  Uiso   1.00
H58    H     0.02561   0.09945   0.16364   0.00000  Uiso   1.00
N59    N     0.16667   0.28573   0.25000   0.00000  Uiso   1.00
N60    N     0.04726   0.20553   0.32234   0.00000  Uiso   1.00
N61    N     0.16667   0.04760   0.25000   0.00000  Uiso   1.00
N62    N     0.24559   0.06680   0.33098   0.00000  Uiso   1.00
N63    N     0.09566   0.26595   0.16124   0.00000  Uiso   1.00
N64    N     0.09966   0.06310   0.15727   0.00000  Uiso   1.00
N65    N     0.22977   0.26981   0.34556   0.00000  Uiso   1.00
N66    N     0.04033   0.12741   0.17732   0.00000  Uiso   1.00
N67    N     0.29268   0.20722   0.32208   0.00000  Uiso   1.00
N68    N     0.28587   0.12846   0.17751   0.00000  Uiso   1.00
O69    O     0.10559   0.20487   0.24999   0.00000  Uiso   1.00
O70    O     0.22774   0.12846   0.25001   0.00000  Uiso   1.00
O71    O     0.22774   0.20487   0.25000   0.00000  Uiso   1.00
O72    O     0.10559   0.12846   0.25000   0.00000  Uiso   1.00
O73    O     0.16666   0.20489   0.18453   0.00000  Uiso   1.00
O74    O     0.16667   0.12845   0.31547   0.00000  Uiso   1.00
O75    O     0.16667   0.20489   0.31547   0.00000  Uiso   1.00
O76    O     0.16666   0.12845   0.18453   0.00000  Uiso   1.00
Zn77   Zn    0.16667   0.21771   0.25000   0.00000  Uiso   1.00
Zn78   Zn    0.16667   0.11563   0.25000   0.00000  Uiso   1.00
C79    C     0.42019   0.16639   0.24942   0.00000  Uiso   1.00
C80    C     0.64674   0.18779   0.28562   0.00000  Uiso   1.00
C81    C     0.64313   0.14641   0.21455   0.00000  Uiso   1.00
C82    C     0.35672   0.18739   0.28537   0.00000  Uiso   1.00
C83    C     0.50929   0.20782   0.04768   0.00000  Uiso   1.00
C84    C     0.52143   0.13314   0.45300   0.00000  Uiso   1.00
C85    C     0.48279   0.20273   0.45217   0.00000  Uiso   1.00
C86    C     0.49646   0.12727   0.04638   0.00000  Uiso   1.00
C87    C     0.50840   0.20748   0.09362   0.00000  Uiso   1.00
C88    C     0.51965   0.13224   0.40710   0.00000  Uiso   1.00
C89    C     0.48214   0.20249   0.40615   0.00000  Uiso   1.00
C90    C     0.57978   0.16697   0.25071   0.00000  Uiso   1.00
C91    C     0.49674   0.12676   0.09228   0.00000  Uiso   1.00
C92    C     0.50187   0.16694   0.11602   0.00000  Uiso   1.00
C93    C     0.50036   0.16705   0.38369   0.00000  Uiso   1.00
C94    C     0.50284   0.16777   0.02393   0.00000  Uiso   1.00
C95    C     0.50259   0.16809   0.47570   0.00000  Uiso   1.00
C96    C     0.62392   0.16744   0.25016   0.00000  Uiso   1.00
C97    C     0.37598   0.16612   0.24987   0.00000  Uiso   1.00
C98    C     0.55441   0.04847   0.30815   0.00000  Uiso   1.00
C99    C     0.45007   0.28455   0.18748   0.00000  Uiso   1.00
C100   C     0.45212   0.04611   0.18559   0.00000  Uiso   1.00
C101   C     0.50049   0.16668   0.16399   0.00000  Uiso   1.00
C102   C     0.54576   0.28712   0.31613   0.00000  Uiso   1.00
C103   C     0.38532   0.15945   0.14371   0.00000  Uiso   1.00
C104   C     0.61568   0.17597   0.35690   0.00000  Uiso   1.00
C105   C     0.61099   0.08052   0.17807   0.00000  Uiso   1.00
C106   C     0.38872   0.25348   0.32159   0.00000  Uiso   1.00
C107   C     0.49990   0.16674   0.33589   0.00000  Uiso   1.00
C108   C     0.52483   0.02443   0.27956   0.00000  Uiso   1.00
C109   C     0.47601   0.30884   0.21966   0.00000  Uiso   1.00
C110   C     0.47600   0.02334   0.21967   0.00000  Uiso   1.00
C111   C     0.52365   0.30995   0.28064   0.00000  Uiso   1.00
C112   C     0.35310   0.14619   0.21418   0.00000  Uiso   1.00
H113   H     0.51516   0.23923   0.03079   0.00000  Uiso   1.00
H114   H     0.35730   0.17704   0.13026   0.00000  Uiso   1.00
H115   H     0.40031   0.14187   0.11593   0.00000  Uiso   1.00
H116   H     0.40820   0.18401   0.15802   0.00000  Uiso   1.00
H117   H     0.64006   0.23610   0.33454   0.00000  Uiso   1.00
H118   H     0.64436   0.15986   0.37067   0.00000  Uiso   1.00
H119   H     0.59348   0.15011   0.34368   0.00000  Uiso   1.00
H120   H     0.60039   0.19393   0.38424   0.00000  Uiso   1.00
H121   H     0.59410   0.14719   0.16659   0.00000  Uiso   1.00
H122   H     0.61837   0.06616   0.14519   0.00000  Uiso   1.00
H123   H     0.57745   0.07366   0.18413   0.00000  Uiso   1.00
H124   H     0.53759   0.10660   0.47069   0.00000  Uiso   1.00
H125   H     0.63021   0.06339   0.20423   0.00000  Uiso   1.00
H126   H     0.40574   0.18691   0.33333   0.00000  Uiso   1.00
H127   H     0.38167   0.26790   0.35454   0.00000  Uiso   1.00
H128   H     0.36921   0.27053   0.29561   0.00000  Uiso   1.00
H129   H     0.42217   0.26039   0.31509   0.00000  Uiso   1.00
H130   H     0.46740   0.22955   0.46927   0.00000  Uiso   1.00
H131   H     0.49089   0.09608   0.02848   0.00000  Uiso   1.00
H132   H     0.51312   0.23883   0.11147   0.00000  Uiso   1.00
H133   H     0.53396   0.10485   0.39004   0.00000  Uiso   1.00
H134   H     0.46684   0.22941   0.38816   0.00000  Uiso   1.00
H135   H     0.49259   0.09501   0.10895   0.00000  Uiso   1.00
H136   H     0.35895   0.09945   0.16364   0.00000  Uiso   1.00
N137   N     0.50000   0.28573   0.25000   0.00000  Uiso   1.00
N138   N     0.38059   0.20553   0.32234   0.00000  Uiso   1.00
N139   N     0.50000   0.04760   0.25000   0.00000  Uiso   1.00
N140   N     0.57892   0.06680   0.33098   0.00000  Uiso   1.00
N141   N     0.42899   0.26595   0.16124   0.00000  Uiso   1.00
N142   N     0.43300   0.06310   0.15727   0.00000  Uiso   1.00
N143   N     0.56311   0.26981   0.34556   0.00000  Uiso   1.00
N144   N     0.37366   0.12741   0.17732   0.00000  Uiso   1.00
N145   N     0.62602   0.20722   0.32208   0.00000  Uiso   1.00
N146   N     0.61920   0.12846   0.17751   0.00000  Uiso   1.00
O147   O     0.43892   0.20487   0.24999   0.00000  Uiso   1.00
O148   O     0.56108   0.12846   0.25001   0.00000  Uiso   1.00
O149   O     0.56108   0.20487   0.25000   0.00000  Uiso   1.00
O150   O     0.43892   0.12846   0.25000   0.00000  Uiso   1.00
O151   O     0.50000   0.20489   0.18453   0.00000  Uiso   1.00
O152   O     0.50000   0.12845   0.31547   0.00000  Uiso   1.00
O153   O     0.50000   0.20489   0.31547   0.00000  Uiso   1.00
O154   O     0.50000   0.12845   0.18453   0.00000  Uiso   1.00
Zn155  Zn    0.50000   0.21771   0.25000   0.00000  Uiso   1.00
Zn156  Zn    0.50000   0.11563   0.25000   0.00000  Uiso   1.00
C157   C     0.75352   0.16639   0.24942   0.00000  Uiso   1.00
C158   C     0.98007   0.18779   0.28562   0.00000  Uiso   1.00
C159   C     0.97647   0.14641   0.21455   0.00000  Uiso   1.00
C160   C     0.69005   0.18739   0.28537   0.00000  Uiso   1.00
C161   C     0.84262   0.20782   0.04768   0.00000  Uiso   1.00
C162   C     0.85477   0.13314   0.45300   0.00000  Uiso   1.00
C163   C     0.81612   0.20273   0.45217   0.00000  Uiso   1.00
C164   C     0.82980   0.12727   0.04638   0.00000  Uiso   1.00
C165   C     0.84173   0.20748   0.09362   0.00000  Uiso   1.00
C166   C     0.85298   0.13224   0.40710   0.00000  Uiso   1.00
C167   C     0.81547   0.20249   0.40615   0.00000  Uiso   1.00
C168   C     0.91311   0.16697   0.25071   0.00000  Uiso   1.00
C169   C     0.83008   0.12676   0.09228   0.00000  Uiso   1.00
C170   C     0.83520   0.16694   0.11602   0.00000  Uiso   1.00
C171   C     0.83369   0.16705   0.38369   0.00000  Uiso   1.00
C172   C     0.83618   0.16777   0.02393   0.00000  Uiso   1.00
C173   C     0.83592   0.16809   0.47570   0.00000  Uiso   1.00
C174   C     0.95725   0.16744   0.25016   0.00000  Uiso   1.00
C175   C     0.70931   0.16612   0.24987   0.00000  Uiso   1.00
C176   C     0.88775   0.04847   0.30815   0.00000  Uiso   1.00
C177   C     0.78340   0.28455   0.18748   0.00000  Uiso   1.00
C178   C     0.78545   0.04611   0.18559   0.00000  Uiso   1.00
C179   C     0.83383   0.16668   0.16399   0.00000  Uiso   1.00
C180   C     0.87909   0.28712   0.31613   0.00000  Uiso   1.00
C181   C     0.71865   0.15945   0.14371   0.00000  Uiso   1.00
C182   C     0.94902   0.17597   0.35690   0.00000  Uiso   1.00
C183   C     0.94432   0.08052   0.17807   0.00000  Uiso   1.00
C184   C     0.72205   0.25348   0.32159   0.00000  Uiso   1.00
C185   C     0.83323   0.16674   0.33589   0.00000  Uiso   1.00
C186   C     0.85816   0.02443   0.27956   0.00000  Uiso   1.00
C187   C     0.80934   0.30884   0.21966   0.00000  Uiso   1.00
C188   C     0.80934   0.02334   0.21967   0.00000  Uiso   1.00
C189   C     0.85699   0.30995   0.28064   0.00000  Uiso   1.00
C190   C     0.68643   0.14619   0.21418   0.00000  Uiso   1.00
H191   H     0.84849   0.23923   0.03079   0.00000  Uiso   1.00
H192   H     0.69063   0.17704   0.13026   0.00000  Uiso   1.00
H193   H     0.73364   0.14187   0.11593   0.00000  Uiso   1.00
H194   H     0.74153   0.18401   0.15802   0.00000  Uiso   1.00
H195   H     0.97340   0.23610   0.33454   0.00000  Uiso   1.00
H196   H     0.97769   0.15986   0.37067   0.00000  Uiso   1.00
H197   H     0.92681   0.15011   0.34368   0.00000  Uiso   1.00
H198   H     0.93372   0.19393   0.38424   0.00000  Uiso   1.00
H199   H     0.92743   0.14719   0.16659   0.00000  Uiso   1.00
H200   H     0.95170   0.06616   0.14519   0.00000  Uiso   1.00
H201   H     0.91078   0.07366   0.18413   0.00000  Uiso   1.00
H202   H     0.87092   0.10660   0.47069   0.00000  Uiso   1.00
H203   H     0.96354   0.06339   0.20423   0.00000  Uiso   1.00
H204   H     0.73907   0.18691   0.33333   0.00000  Uiso   1.00
H205   H     0.71500   0.26790   0.35454   0.00000  Uiso   1.00
H206   H     0.70254   0.27053   0.29561   0.00000  Uiso   1.00
H207   H     0.75550   0.26039   0.31509   0.00000  Uiso   1.00
H208   H     0.80074   0.22955   0.46927   0.00000  Uiso   1.00
H209   H     0.82422   0.09608   0.02848   0.00000  Uiso   1.00
H210   H     0.84645   0.23883   0.11147   0.00000  Uiso   1.00
H211   H     0.86730   0.10485   0.39004   0.00000  Uiso   1.00
H212   H     0.80017   0.22941   0.38816   0.00000  Uiso   1.00
H213   H     0.82593   0.09501   0.10895   0.00000  Uiso   1.00
H214   H     0.69228   0.09945   0.16364   0.00000  Uiso   1.00
N215   N     0.83333   0.28573   0.25000   0.00000  Uiso   1.00
N216   N     0.71392   0.20553   0.32234   0.00000  Uiso   1.00
N217   N     0.83333   0.04760   0.25000   0.00000  Uiso   1.00
N218   N     0.91226   0.06680   0.33098   0.00000  Uiso   1.00
N219   N     0.76233   0.26595   0.16124   0.00000  Uiso   1.00
N220   N     0.76633   0.06310   0.15727   0.00000  Uiso   1.00
N221   N     0.89644   0.26981   0.34556   0.00000  Uiso   1.00
N222   N     0.70700   0.12741   0.17732   0.00000  Uiso   1.00
N223   N     0.95935   0.20722   0.32208   0.00000  Uiso   1.00
N224   N     0.95254   0.12846   0.17751   0.00000  Uiso   1.00
O225   O     0.77226   0.20487   0.24999   0.00000  Uiso   1.00
O226   O     0.89441   0.12846   0.25001   0.00000  Uiso   1.00
O227   O     0.89441   0.20487   0.25000   0.00000  Uiso   1.00
O228   O     0.77226   0.12846   0.25000   0.00000  Uiso   1.00
O229   O     0.83333   0.20489   0.18453   0.00000  Uiso   1.00
O230   O     0.83334   0.12845   0.31547   0.00000  Uiso   1.00
O231   O     0.83334   0.20489   0.31547   0.00000  Uiso   1.00
O232   O     0.83333   0.12845   0.18453   0.00000  Uiso   1.00
Zn233  Zn    0.83333   0.21771   0.25000   0.00000  Uiso   1.00
Zn234  Zn    0.83333   0.11563   0.25000   0.00000  Uiso   1.00
C235   C     0.08685   0.49972   0.24942   0.00000  Uiso   1.00
C236   C     0.31340   0.52112   0.28562   0.00000  Uiso   1.00
C237   C     0.30980   0.47974   0.21455   0.00000  Uiso   1.00
C238   C     0.02339   0.52073   0.28537   0.00000  Uiso   1.00
C239   C     0.17596   0.54115   0.04768   0.00000  Uiso   1.00
C240   C     0.18810   0.46647   0.45300   0.00000  Uiso   1.00
C241   C     0.14945   0.53607   0.45217   0.00000  Uiso   1.00
C242   C     0.16313   0.46060   0.04638   0.00000  Uiso   1.00
C243   C     0.17507   0.54082   0.09362   0.00000  Uiso   1.00
C244   C     0.18631   0.46558   0.40710   0.00000  Uiso   1.00
C245   C     0.14881   0.53582   0.40615   0.00000  Uiso   1.00
C246   C     0.24644   0.50031   0.25071   0.00000  Uiso   1.00
C247   C     0.16341   0.46009   0.09228   0.00000  Uiso   1.00
C248   C     0.16853   0.50027   0.11602   0.00000  Uiso   1.00
C249   C     0.16702   0.50038   0.38369   0.00000  Uiso   1.00
C250   C     0.16951   0.50111   0.02393   0.00000  Uiso   1.00
C251   C     0.16925   0.50143   0.47570   0.00000  Uiso   1.00
C252   C     0.29059   0.50078   0.25016   0.00000  Uiso   1.00
C253   C     0.04265   0.49945   0.24987   0.00000  Uiso   1.00
C254   C     0.22108   0.38180   0.30815   0.00000  Uiso   1.00
C255   C     0.11674   0.61788   0.18748   0.00000  Uiso   1.00
C256   C     0.11879   0.37945   0.18559   0.00000  Uiso   1.00
C257   C     0.16716   0.50002   0.16399   0.00000  Uiso   1.00
C258   C     0.21242   0.62046   0.31613   0.00000  Uiso   1.00
C259   C     0.05198   0.49278   0.14371   0.00000  Uiso   1.00
C260   C     0.28235   0.50930   0.35690   0.00000  Uiso   1.00
C261   C     0.27765   0.41386   0.17807   0.00000  Uiso   1.00
C262   C     0.05539   0.58682   0.32159   0.00000  Uiso   1.00
C263   C     0.16657   0.50007   0.33589   0.00000  Uiso   1.00
C264   C     0.19150   0.35776   0.27956   0.00000  Uiso   1.00
C265   C     0.14267   0.64218   0.21966   0.00000  Uiso   1.00
C266   C     0.14267   0.35667   0.21967   0.00000  Uiso   1.00
C267   C     0.19032   0.64328   0.28064   0.00000  Uiso   1.00
C268   C     0.01977   0.47953   0.21418   0.00000  Uiso   1.00
H269   H     0.18183   0.57257   0.03079   0.00000  Uiso   1.00
H270   H     0.02397   0.51037   0.13026   0.00000  Uiso   1.00
H271   H     0.06697   0.47520   0.11593   0.00000  Uiso   1.00
H272   H     0.07487   0.51735   0.15802   0.00000  Uiso   1.00
H273   H     0.30673   0.56944   0.33454   0.00000  Uiso   1.00
H274   H     0.31102   0.49319   0.37067   0.00000  Uiso   1.00
H275   H     0.26015   0.48344   0.34368   0.00000  Uiso   1.00
H276   H     0.26706   0.52726   0.38424   0.00000  Uiso   1.00
H277   H     0.26076   0.48052   0.16659   0.00000  Uiso   1.00
H278   H     0.28503   0.39950   0.14519   0.00000  Uiso   1.00
H279   H     0.24411   0.40700   0.18413   0.00000  Uiso   1.00
H280   H     0.20425   0.43994   0.47069   0.00000  Uiso   1.00
H281   H     0.29688   0.39672   0.20423   0.00000  Uiso   1.00
H282   H     0.07240   0.52024   0.33333   0.00000  Uiso   1.00
H283   H     0.04834   0.60123   0.35454   0.00000  Uiso   1.00
H284   H     0.03587   0.60386   0.29561   0.00000  Uiso   1.00
H285   H     0.08883   0.59372   0.31509   0.00000  Uiso   1.00
H286   H     0.13407   0.56288   0.46927   0.00000  Uiso   1.00
H287   H     0.15755   0.42941   0.02848   0.00000  Uiso   1.00
H288   H     0.17979   0.57217   0.11147   0.00000  Uiso   1.00
H289   H     0.20063   0.43818   0.39004   0.00000  Uiso   1.00
H290   H     0.13351   0.56275   0.38816   0.00000  Uiso   1.00
H291   H     0.15926   0.42834   0.10895   0.00000  Uiso   1.00
H292   H     0.02561   0.43278   0.16364   0.00000  Uiso   1.00
N293   N     0.16667   0.61907   0.25000   0.00000  Uiso   1.00
N294   N     0.04726   0.53887   0.32234   0.00000  Uiso   1.00
N295   N     0.16667   0.38093   0.25000   0.00000  Uiso   1.00
N296   N     0.24559   0.40014   0.33098   0.00000  Uiso   1.00
N297   N     0.09566   0.59928   0.16124   0.00000  Uiso   1.00
N298   N     0.09966   0.39643   0.15727   0.00000  Uiso   1.00
N299   N     0.22977   0.60314   0.34556   0.00000  Uiso   1.00
N300   N     0.04033   0.46075   0.17732   0.00000  Uiso   1.00
N301   N     0.29268   0.54055   0.32208   0.00000  Uiso   1.00
N302   N     0.28587   0.46180   0.17751   0.00000  Uiso   1.00
O303   O     0.10559   0.53821   0.24999   0.00000  Uiso   1.00
O304   O     0.22774   0.46179   0.25001   0.00000  Uiso   1.00
O305   O     0.22774   0.53821   0.25000   0.00000  Uiso   1.00
O306   O     0.10559   0.46179   0.25000   0.00000  Uiso   1.00
O307   O     0.16666   0.53822   0.18453   0.00000  Uiso   1.00
O308   O     0.16667   0.46178   0.31547   0.00000  Uiso   1.00
O309   O     0.16667   0.53822   0.31547   0.00000  Uiso   1.00
O310   O     0.16666   0.46178   0.18453   0.00000  Uiso   1.00
Zn311  Zn    0.16667   0.55104   0.25000   0.00000  Uiso   1.00
Zn312  Zn    0.16667   0.44896   0.25000   0.00000  Uiso   1.00
C313   C     0.42019   0.49972   0.24942   0.00000  Uiso   1.00
C314   C     0.64674   0.52112   0.28562   0.00000  Uiso   1.00
C315   C     0.64313   0.47974   0.21455   0.00000  Uiso   1.00
C316   C     0.35672   0.52073   0.28537   0.00000  Uiso   1.00
C317   C     0.50929   0.54115   0.04768   0.00000  Uiso   1.00
C318   C     0.52143   0.46647   0.45300   0.00000  Uiso   1.00
C319   C     0.48279   0.53607   0.45217   0.00000  Uiso   1.00
C320   C     0.49646   0.46060   0.04638   0.00000  Uiso   1.00
C321   C     0.50840   0.54082   0.09362   0.00000  Uiso   1.00
C322   C     0.51965   0.46558   0.40710   0.00000  Uiso   1.00
C323   C     0.48214   0.53582   0.40615   0.00000  Uiso   1.00
C324   C     0.57978   0.50031   0.25071   0.00000  Uiso   1.00
C325   C     0.49674   0.46009   0.09228   0.00000  Uiso   1.00
C326   C     0.50187   0.50027   0.11602   0.00000  Uiso   1.00
C327   C     0.50036   0.50038   0.38369   0.00000  Uiso   1.00
C328   C     0.50284   0.50111   0.02393   0.00000  Uiso   1.00
C329   C     0.50259   0.50143   0.47570   0.00000  Uiso   1.00
C330   C     0.62392   0.50078   0.25016   0.00000  Uiso   1.00
C331   C     0.37598   0.49945   0.24987   0.00000  Uiso   1.00
C332   C     0.55441   0.38180   0.30815   0.00000  Uiso   1.00
C333   C     0.45007   0.61788   0.18748   0.00000  Uiso   1.00
C334   C     0.45212   0.37945   0.18559   0.00000  Uiso   1.00
C335   C     0.50049   0.50002   0.16399   0.00000  Uiso   1.00
C336   C     0.54576   0.62046   0.31613   0.00000  Uiso   1.00
C337   C     0.38532   0.49278   0.14371   0.00000  Uiso   1.00
C338   C     0.61568   0.50930   0.35690   0.00000  Uiso   1.00
C339   C     0.61099   0.41386   0.17807   0.00000  Uiso   1.00
C340   C     0.38872   0.58682   0.32159   0.00000  Uiso   1.00
C341   C     0.49990   0.50007   0.33589   0.00000  Uiso   1.00
C342   C     0.52483   0.35776   0.27956   0.00000  Uiso   1.00
C343   C     0.47601   0.64218   0.21966   0.00000  Uiso   1.00
C344   C     0.47600   0.35667   0.21967   0.00000  Uiso   1.00
C345   C     0.52365   0.64328   0.28064   0.00000  Uiso   1.00
C346   C     0.35310   0.47953   0.21418   0.00000  Uiso   1.00
H347   H     0.51516   0.57257   0.03079   0.00000  Uiso   1.00
H348   H     0.35730   0.51037   0.13026   0.00000  Uiso   1.00
H349   H     0.40031   0.47520   0.11593   0.00000  Uiso   1.00
H350   H     0.40820   0.51735   0.15802   0.00000  Uiso   1.00
H351   H     0.64006   0.56944   0.33454   0.00000  Uiso   1.00
H352   H     0.64436   0.49319   0.37067   0.00000  Uiso   1.00
H353   H     0.59348   0.48344   0.34368   0.00000  Uiso   1.00
H354   H     0.60039   0.52726   0.38424   0.00000  Uiso   1.00
H355   H     0.59410   0.48052   0.16659   0.00000  Uiso   1.00
H356   H     0.61837   0.39950   0.14519   0.00000  Uiso   1.00
H357   H     0.57745   0.40700   0.18413   0.00000  Uiso   1.00
H358   H     0.53759   0.43994   0.47069   0.00000  Uiso   1.00
H359   H     0.63021   0.39672   0.20423   0.00000  Uiso   1.00
H360   H     0.40574   0.52024   0.33333   0.00000  Uiso   1.00
H361   H     0.38167   0.60123   0.35454   0.00000  Uiso   1.00
H362   H     0.36921   0.60386   0.29561   0.00000  Uiso   1.00
H363   H     0.42217   0.59372   0.31509   0.00000  Uiso   1.00
H364   H     0.46740   0.56288   0.46927   0.00000  Uiso   1.00
H365   H     0.49089   0.42941   0.02848   0.00000  Uiso   1.00
H366   H     0.51312   0.57217   0.11147   0.00000  Uiso   1.00
H367   H     0.53396   0.43818   0.39004   0.00000  Uiso   1.00
H368   H     0.46684   0.56275   0.38816   0.00000  Uiso   1.00
H369   H     0.49259   0.42834   0.10895   0.00000  Uiso   1.00
H370   H     0.35895   0.43278   0.16364   0.00000  Uiso   1.00
N371   N     0.50000   0.61907   0.25000   0.00000  Uiso   1.00
N372   N     0.38059   0.53887   0.32234   0.00000  Uiso   1.00
N373   N     0.50000   0.38093   0.25000   0.00000  Uiso   1.00
N374   N     0.57892   0.40014   0.33098   0.00000  Uiso   1.00
N375   N     0.42899   0.59928   0.16124   0.00000  Uiso   1.00
N376   N     0.43300   0.39643   0.15727   0.00000  Uiso   1.00
N377   N     0.56311   0.60314   0.34556   0.00000  Uiso   1.00
N378   N     0.37366   0.46075   0.17732   0.00000  Uiso   1.00
N379   N     0.62602   0.54055   0.32208   0.00000  Uiso   1.00
N380   N     0.61920   0.46180   0.17751   0.00000  Uiso   1.00
O381   O     0.43892   0.53821   0.24999   0.00000  Uiso   1.00
O382   O     0.56108   0.46179   0.25001   0.00000  Uiso   1.00
O383   O     0.56108   0.53821   0.25000   0.00000  Uiso   1.00
O384   O     0.43892   0.46179   0.25000   0.00000  Uiso   1.00
O385   O     0.50000   0.53822   0.18453   0.00000  Uiso   1.00
O386   O     0.50000   0.46178   0.31547   0.00000  Uiso   1.00
O387   O     0.50000   0.53822   0.31547   0.00000  Uiso   1.00
O388   O     0.50000   0.46178   0.18453   0.00000  Uiso   1.00
Zn389  Zn    0.50000   0.55104   0.25000   0.00000  Uiso   1.00
Zn390  Zn    0.50000   0.44896   0.25000   0.00000  Uiso   1.00
C391   C     0.75352   0.49972   0.24942   0.00000  Uiso   1.00
C392   C     0.98007   0.52112   0.28562   0.00000  Uiso   1.00
C393   C     0.97647   0.47974   0.21455   0.00000  Uiso   1.00
C394   C     0.69005   0.52073   0.28537   0.00000  Uiso   1.00
C395   C     0.84262   0.54115   0.04768   0.00000  Uiso   1.00
C396   C     0.85477   0.46647   0.45300   0.00000  Uiso   1.00
C397   C     0.81612   0.53607   0.45217   0.00000  Uiso   1.00
C398   C     0.82980   0.46060   0.04638   0.00000  Uiso   1.00
C399   C     0.84173   0.54082   0.09362   0.00000  Uiso   1.00
C400   C     0.85298   0.46558   0.40710   0.00000  Uiso   1.00
C401   C     0.81547   0.53582   0.40615   0.00000  Uiso   1.00
C402   C     0.91311   0.50031   0.25071   0.00000  Uiso   1.00
C403   C     0.83008   0.46009   0.09228   0.00000  Uiso   1.00
C404   C     0.83520   0.50027   0.11602   0.00000  Uiso   1.00
C405   C     0.83369   0.50038   0.38369   0.00000  Uiso   1.00
C406   C     0.83618   0.50111   0.02393   0.00000  Uiso   1.00
C407   C     0.83592   0.50143   0.47570   0.00000  Uiso   1.00
C408   C     0.95725   0.50078   0.25016   0.00000  Uiso   1.00
C409   C     0.70931   0.49945   0.24987   0.00000  Uiso   1.00
C410   C     0.88775   0.38180   0.30815   0.00000  Uiso   1.00
C411   C     0.78340   0.61788   0.18748   0.00000  Uiso   1.00
C412   C     0.78545   0.37945   0.18559   0.00000  Uiso   1.00
C413   C     0.83383   0.50002   0.16399   0.00000  Uiso   1.00
C414   C     0.87909   0.62046   0.31613   0.00000  Uiso   1.00
C415   C     0.71865   0.49278   0.14371   0.00000  Uiso   1.00
C416   C     0.94902   0.50930   0.35690   0.00000  Uiso   1.00
C417   C     0.94432   0.41386   0.17807   0.00000  Uiso   1.00
C418   C     0.72205   0.58682   0.32159   0.00000  Uiso   1.00
C419   C     0.83323   0.50007   0.33589   0.00000  Uiso   1.00
C420   C     0.85816   0.35776   0.27956   0.00000  Uiso   1.00
C421   C     0.80934   0.64218   0.21966   0.00000  Uiso   1.00
C422   C     0.80934   0.35667   0.21967   0.00000  Uiso   1.00
C423   C     0.85699   0.64328   0.28064   0.00000  Uiso   1.00
C424   C     0.68643   0.47953   0.21418   0.00000  Uiso   1.00
H425   H     0.84849   0.57257   0.03079   0.00000  Uiso   1.00
H426   H     0.69063   0.51037   0.13026   0.00000  Uiso   1.00
H427   H     0.73364   0.47520   0.11593   0.00000  Uiso   1.00
H428   H     0.74153   0.51735   0.15802   0.00000  Uiso   1.00
H429   H     0.97340   0.56944   0.33454   0.00000  Uiso   1.00
H430   H     0.97769   0.49319   0.37067   0.00000  Uiso   1.00
H431   H     0.92681   0.48344   0.34368   0.00000  Uiso   1.00
H432   H     0.93372   0.52726   0.38424   0.00000  Uiso   1.00
H433   H     0.92743   0.48052   0.16659   0.00000  Uiso   1.00
H434   H     0.95170   0.39950   0.14519   0.00000  Uiso   1.00
H435   H     0.91078   0.40700   0.18413   0.00000  Uiso   1.00
H436   H     0.87092   0.43994   0.47069   0.00000  Uiso   1.00
H437   H     0.96354   0.39672   0.20423   0.00000  Uiso   1.00
H438   H     0.73907   0.52024   0.33333   0.00000  Uiso   1.00
H439   H     0.71500   0.60123   0.35454   0.00000  Uiso   1.00
H440   H     0.70254   0.60386   0.29561   0.00000  Uiso   1.00
H441   H     0.75550   0.59372   0.31509   0.00000  Uiso   1.00
H442   H     0.80074   0.56288   0.46927   0.00000  Uiso   1.00
H443   H     0.82422   0.42941   0.02848   0.00000  Uiso   1.00
H444   H     0.84645   0.57217   0.11147   0.00000  Uiso   1.00
H445   H     0.86730   0.43818   0.39004   0.00000  Uiso   1.00
H446   H     0.80017   0.56275   0.38816   0.00000  Uiso   1.00
H447   H     0.82593   0.42834   0.10895   0.00000  Uiso   1.00
H448   H     0.69228   0.43278   0.16364   0.00000  Uiso   1.00
N449   N     0.83333   0.61907   0.25000   0.00000  Uiso   1.00
N450   N     0.71392   0.53887   0.32234   0.00000  Uiso   1.00
N451   N     0.83333   0.38093   0.25000   0.00000  Uiso   1.00
N452   N     0.91226   0.40014   0.33098   0.00000  Uiso   1.00
N453   N     0.76233   0.59928   0.16124   0.00000  Uiso   1.00
N454   N     0.76633   0.39643   0.15727   0.00000  Uiso   1.00
N455   N     0.89644   0.60314   0.34556   0.00000  Uiso   1.00
N456   N     0.70700   0.46075   0.17732   0.00000  Uiso   1.00
N457   N     0.95935   0.54055   0.32208   0.00000  Uiso   1.00
N458   N     0.95254   0.46180   0.17751   0.00000  Uiso   1.00
O459   O     0.77226   0.53821   0.24999   0.00000  Uiso   1.00
O460   O     0.89441   0.46179   0.25001   0.00000  Uiso   1.00
O461   O     0.89441   0.53821   0.25000   0.00000  Uiso   1.00
O462   O     0.77226   0.46179   0.25000   0.00000  Uiso   1.00
O463   O     0.83333   0.53822   0.18453   0.00000  Uiso   1.00
O464   O     0.83334   0.46178   0.31547   0.00000  Uiso   1.00
O465   O     0.83334   0.53822   0.31547   0.00000  Uiso   1.00
O466   O     0.83333   0.46178   0.18453   0.00000  Uiso   1.00
Zn467  Zn    0.83333   0.55104   0.25000   0.00000  Uiso   1.00
Zn468  Zn    0.83333   0.44896   0.25000   0.00000  Uiso   1.00
C469   C     0.08685   0.83306   0.24942   0.00000  Uiso   1.00
C470   C     0.31340   0.85446   0.28562   0.00000  Uiso   1.00
C471   C     0.30980   0.81308   0.21455   0.00000  Uiso   1.00
C472   C     0.02339   0.85406   0.28537   0.00000  Uiso   1.00
C473   C     0.17596   0.87449   0.04768   0.00000  Uiso   1.00
C474   C     0.18810   0.79980   0.45300   0.00000  Uiso   1.00
C475   C     0.14945   0.86940   0.45217   0.00000  Uiso   1.00
C476   C     0.16313   0.79394   0.04638   0.00000  Uiso   1.00
C477   C     0.17507   0.87415   0.09362   0.00000  Uiso   1.00
C478   C     0.18631   0.79891   0.40710   0.00000  Uiso   1.00
C479   C     0.14881   0.86916   0.40615   0.00000  Uiso   1.00
C480   C     0.24644   0.83364   0.25071   0.00000  Uiso   1.00
C481   C     0.16341   0.79342   0.09228   0.00000  Uiso   1.00
C482   C     0.16853   0.83361   0.11602   0.00000  Uiso   1.00
C483   C     0.16702   0.83371   0.38369   0.00000  Uiso   1.00
C484   C     0.16951   0.83444   0.02393   0.00000  Uiso   1.00
C485   C     0.16925   0.83476   0.47570   0.00000  Uiso   1.00
C486   C     0.29059   0.83411   0.25016   0.00000  Uiso   1.00
C487   C     0.04265   0.83279   0.24987   0.00000  Uiso   1.00
C488   C     0.22108   0.71514   0.30815   0.00000  Uiso   1.00
C489   C     0.11674   0.95121   0.18748   0.00000  Uiso   1.00
C490   C     0.11879   0.71278   0.18559   0.00000  Uiso   1.00
C491   C     0.16716   0.83335   0.16399   0.00000  Uiso   1.00
C492   C     0.21242   0.95379   0.31613   0.00000  Uiso   1.00
C493   C     0.05198   0.82611   0.14371   0.00000  Uiso   1.00
C494   C     0.28235   0.84264   0.35690   0.00000  Uiso   1.00
C495   C     0.27765   0.74719   0.17807   0.00000  Uiso   1.00
C496   C     0.05539   0.92015   0.32159   0.00000  Uiso   1.00
C497   C     0.16657   0.83341   0.33589   0.00000  Uiso   1.00
C498   C     0.19150   0.69110   0.27956   0.00000  Uiso   1.00
C499   C     0.14267   0.97551   0.21966   0.00000  Uiso   1.00
C500   C     0.14267   0.69001   0.21967   0.00000  Uiso   1.00
C501   C     0.19032   0.97662   0.28064   0.00000  Uiso   1.00
C502   C     0.01977   0.81286   0.21418   0.00000  Uiso   1.00
H503   H     0.18183   0.90590   0.03079   0.00000  Uiso   1.00
H504   H     0.02397   0.84371   0.13026   0.00000  Uiso   1.00
H505   H     0.06697   0.80853   0.11593   0.00000  Uiso   1.00
H506   H     0.07487   0.85068   0.15802   0.00000  Uiso   1.00
H507   H     0.30673   0.90277   0.33454   0.00000  Uiso   1.00
H508   H     0.31102   0.82653   0.37067   0.00000  Uiso   1.00
H509   H     0.26015   0.81677   0.34368   0.00000  Uiso   1.00
H510   H     0.26706   0.86059   0.38424   0.00000  Uiso   1.00
H511   H     0.26076   0.81385   0.16659   0.00000  Uiso   1.00
H512   H     0.28503   0.73283   0.14519   0.00000  Uiso   1.00
H513   H     0.24411   0.74033   0.18413   0.00000  Uiso   1.00
H514   H     0.20425   0.77327   0.47069   0.00000  Uiso   1.00
H515   H     0.29688   0.73006   0.20423   0.00000  Uiso   1.00
H516   H     0.07240   0.85358   0.33333   0.00000  Uiso   1.00
H517   H     0.04834   0.93456   0.35454   0.00000  Uiso   1.00
H518   H     0.03587   0.93719   0.29561   0.00000  Uiso   1.00
H519   H     0.08883   0.92705   0.31509   0.00000  Uiso   1.00
H520   H     0.13407   0.89621   0.46927   0.00000  Uiso   1.00
H521   H     0.15755   0.76275   0.02848   0.00000  Uiso   1.00
H522   H     0.17979   0.90550   0.11147   0.00000  Uiso   1.00
H523   H     0.20063   0.77151   0.39004   0.00000  Uiso   1.00
H524   H     0.13351   0.89608   0.38816   0.00000  Uiso   1.00
H525   H     0.15926   0.76168   0.10895   0.00000  Uiso   1.00
H526   H     0.02561   0.76612   0.16364   0.00000  Uiso   1.00
N527   N     0.16667   0.95240   0.25000   0.00000  Uiso   1.00
N528   N     0.04726   0.87220   0.32234   0.00000  Uiso   1.00
N529   N     0.16667   0.71427   0.25000   0.00000  Uiso   1.00
N530   N     0.24559   0.73347   0.33098   0.00000  Uiso   1.00
N531   N     0.09566   0.93262   0.16124   0.00000  Uiso   1.00
N532   N     0.09966   0.72977   0.15727   0.00000  Uiso   1.00
N533   N     0.22977   0.93648   0.34556   0.00000  Uiso   1.00
N534   N     0.04033   0.79408   0.17732   0.00000  Uiso   1.00
N535   N     0.29268   0.87388   0.32208   0.00000  Uiso   1.00
N536   N     0.28587   0.79513   0.17751   0.00000  Uiso   1.00
O537   O     0.10559   0.87154   0.24999   0.00000  Uiso   1.00
O538   O     0.22774   0.79513   0.25001   0.00000  Uiso   1.00
O539   O     0.22774   0.87154   0.25000   0.00000  Uiso   1.00
O540   O     0.10559   0.79513   0.25000   0.00000  Uiso   1.00
O541   O     0.16666   0.87155   0.18453   0.00000  Uiso   1.00
O542   O     0.16667   0.79511   0.31547   0.00000  Uiso   1.00
O543   O     0.16667   0.87155   0.31547   0.00000  Uiso   1.00
O544   O     0.16666   0.79511   0.18453   0.00000  Uiso   1.00
Zn545  Zn    0.16667   0.88437   0.25000   0.00000  Uiso   1.00
Zn546  Zn    0.16667   0.78229   0.25000   0.00000  Uiso   1.00
C547   C     0.42019   0.83306   0.24942   0.00000  Uiso   1.00
C548   C     0.64674   0.85446   0.28562   0.00000  Uiso   1.00
C549   C     0.64313   0.81308   0.21455   0.00000  Uiso   1.00
C550   C     0.35672   0.85406   0.28537   0.00000  Uiso   1.00
C551   C     0.50929   0.87449   0.04768   0.00000  Uiso   1.00
C552   C     0.52143   0.79980   0.45300   0.00000  Uiso   1.00
C553   C     0.48279   0.86940   0.45217   0.00000  Uiso   1.00
C554   C     0.49646   0.79394   0.04638   0.00000  Uiso   1.00
C555   C     0.50840   0.87415   0.09362   0.00000  Uiso   1.00
C556   C     0.51965   0.79891   0.40710   0.00000  Uiso   1.00
C557   C     0.48214   0.86916   0.40615   0.00000  Uiso   1.00
C558   C     0.57978   0.83364   0.25071   0.00000  Uiso   1.00
C559   C     0.49674   0.79342   0.09228   0.00000  Uiso   1.00
C560   C     0.50187   0.83361   0.11602   0.00000  Uiso   1.00
C561   C     0.50036   0.83371   0.38369   0.00000  Uiso   1.00
C562   C     0.50284   0.83444   0.02393   0.00000  Uiso   1.00
C563   C     0.50259   0.83476   0.47570   0.00000  Uiso   1.00
C564   C     0.62392   0.83411   0.25016   0.00000  Uiso   1.00
C565   C     0.37598   0.83279   0.24987   0.00000  Uiso   1.00
C566   C     0.55441   0.71514   0.30815   0.00000  Uiso   1.00
C567   C     0.45007   0.95121   0.18748   0.00000  Uiso   1.00
C568   C     0.45212   0.71278   0.18559   0.00000  Uiso   1.00
C569   C     0.50049   0.83335   0.16399   0.00000  Uiso   1.00
C570   C     0.54576   0.95379   0.31613   0.00000  Uiso   1.00
C571   C     0.38532   0.82611   0.14371   0.00000  Uiso   1.00
C572   C     0.61568   0.84264   0.35690   0.00000  Uiso   1.00
C573   C     0.61099   0.74719   0.17807   0.00000  Uiso   1.00
C574   C     0.38872   0.92015   0.32159   0.00000  Uiso   1.00
C575   C     0.49990   0.83341   0.33589   0.00000  Uiso   1.00
C576   C     0.52483   0.69110   0.27956   0.00000  Uiso   1.00
C577   C     0.47601   0.97551   0.21966   0.00000  Uiso   1.00
C578   C     0.47600   0.69001   0.21967   0.00000  Uiso   1.00
C579   C     0.52365   0.97662   0.28064   0.00000  Uiso   1.00
C580   C     0.35310   0.81286   0.21418   0.00000  Uiso   1.00
H581   H     0.51516   0.90590   0.03079   0.00000  Uiso   1.00
H582   H     0.35730   0.84371   0.13026   0.00000  Uiso   1.00
H583   H     0.40031   0.80853   0.11593   0.00000  Uiso   1.00
H584   H     0.40820   0.85068   0.15802   0.00000  Uiso   1.00
H585   H     0.64006   0.90277   0.33454   0.00000  Uiso   1.00
H586   H     0.64436   0.82653   0.37067   0.00000  Uiso   1.00
H587   H     0.59348   0.81677   0.34368   0.00000  Uiso   1.00
H588   H     0.60039   0.86059   0.38424   0.00000  Uiso   1.00
H589   H     0.59410   0.81385   0.16659   0.00000  Uiso   1.00
H590   H     0.61837   0.73283   0.14519   0.00000  Uiso   1.00
H591   H     0.57745   0.74033   0.18413   0.00000  Uiso   1.00
H592   H     0.53759   0.77327   0.47069   0.00000  Uiso   1.00
H593   H     0.63021   0.73006   0.20423   0.00000  Uiso   1.00
H594   H     0.40574   0.85358   0.33333   0.00000  Uiso   1.00
H595   H     0.38167   0.93456   0.35454   0.00000  Uiso   1.00
H596   H     0.36921   0.93719   0.29561   0.00000  Uiso   1.00
H597   H     0.42217   0.92705   0.31509   0.00000  Uiso   1.00
H598   H     0.46740   0.89621   0.46927   0.00000  Uiso   1.00
H599   H     0.49089   0.76275   0.02848   0.00000  Uiso   1.00
H600   H     0.51312   0.90550   0.11147   0.00000  Uiso   1.00
H601   H     0.53396   0.77151   0.39004   0.00000  Uiso   1.00
H602   H     0.46684   0.89608   0.38816   0.00000  Uiso   1.00
H603   H     0.49259   0.76168   0.10895   0.00000  Uiso   1.00
H604   H     0.35895   0.76612   0.16364   0.00000  Uiso   1.00
N605   N     0.50000   0.95240   0.25000   0.00000  Uiso   1.00
N606   N     0.38059   0.87220   0.32234   0.00000  Uiso   1.00
N607   N     0.50000   0.71427   0.25000   0.00000  Uiso   1.00
N608   N     0.57892   0.73347   0.33098   0.00000  Uiso   1.00
N609   N     0.42899   0.93262   0.16124   0.00000  Uiso   1.00
N610   N     0.43300   0.72977   0.15727   0.00000  Uiso   1.00
N611   N     0.56311   0.93648   0.34556   0.00000  Uiso   1.00
N612   N     0.37366   0.79408   0.17732   0.00000  Uiso   1.00
N613   N     0.62602   0.87388   0.32208   0.00000  Uiso   1.00
N614   N     0.61920   0.79513   0.17751   0.00000  Uiso   1.00
O615   O     0.43892   0.87154   0.24999   0.00000  Uiso   1.00
O616   O     0.56108   0.79513   0.25001   0.00000  Uiso   1.00
O617   O     0.56108   0.87154   0.25000   0.00000  Uiso   1.00
O618   O     0.43892   0.79513   0.25000   0.00000  Uiso   1.00
O619   O     0.50000   0.87155   0.18453   0.00000  Uiso   1.00
O620   O     0.50000   0.79511   0.31547   0.00000  Uiso   1.00
O621   O     0.50000   0.87155   0.31547   0.00000  Uiso   1.00
O622   O     0.50000   0.79511   0.18453   0.00000  Uiso   1.00
Zn623  Zn    0.50000   0.88437   0.25000   0.00000  Uiso   1.00
Zn624  Zn    0.50000   0.78229   0.25000   0.00000  Uiso   1.00
C625   C     0.75352   0.83306   0.24942   0.00000  Uiso   1.00
C626   C     0.98007   0.85446   0.28562   0.00000  Uiso   1.00
C627   C     0.97647   0.81308   0.21455   0.00000  Uiso   1.00
C628   C     0.69005   0.85406   0.28537   0.00000  Uiso   1.00
C629   C     0.84262   0.87449   0.04768   0.00000  Uiso   1.00
C630   C     0.85477   0.79980   0.45300   0.00000  Uiso   1.00
C631   C     0.81612   0.86940   0.45217   0.00000  Uiso   1.00
C632   C     0.82980   0.79394   0.04638   0.00000  Uiso   1.00
C633   C     0.84173   0.87415   0.09362   0.00000  Uiso   1.00
C634   C     0.85298   0.79891   0.40710   0.00000  Uiso   1.00
C635   C     0.81547   0.86916   0.40615   0.00000  Uiso   1.00
C636   C     0.91311   0.83364   0.25071   0.00000  Uiso   1.00
C637   C     0.83008   0.79342   0.09228   0.00000  Uiso   1.00
C638   C     0.83520   0.83361   0.11602   0.00000  Uiso   1.00
C639   C     0.83369   0.83371   0.38369   0.00000  Uiso   1.00
C640   C     0.83618   0.83444   0.02393   0.00000  Uiso   1.00
C641   C     0.83592   0.83476   0.47570   0.00000  Uiso   1.00
C642   C     0.95725   0.83411   0.25016   0.00000  Uiso   1.00
C643   C     0.70931   0.83279   0.24987   0.00000  Uiso   1.00
C644   C     0.88775   0.71514   0.30815   0.00000  Uiso   1.00
C645   C     0.78340   0.95121   0.18748   0.00000  Uiso   1.00
C646   C     0.78545   0.71278   0.18559   0.00000  Uiso   1.00
C647   C     0.83383   0.83335   0.16399   0.00000  Uiso   1.00
C648   C     0.87909   0.95379   0.31613   0.00000  Uiso   1.00
C649   C     0.71865   0.82611   0.14371   0.00000  Uiso   1.00
C650   C     0.94902   0.84264   0.35690   0.00000  Uiso   1.00
C651   C     0.94432   0.74719   0.17807   0.00000  Uiso   1.00
C652   C     0.72205   0.92015   0.32159   0.00000  Uiso   1.00
C653   C     0.83323   0.83341   0.33589   0.00000  Uiso   1.00
C654   C     0.85816   0.69110   0.27956   0.00000  Uiso   1.00
C655   C     0.80934   0.97551   0.21966   0.00000  Uiso   1.00
C656   C     0.80934   0.69001   0.21967   0.00000  Uiso   1.00
C657   C     0.85699   0.97662   0.28064   0.00000  Uiso   1.00
C658   C     0.68643   0.81286   0.21418   0.00000  Uiso   1.00
H659   H     0.84849   0.90590   0.03079   0.00000  Uiso   1.00
H660   H     0.69063   0.84371   0.13026   0.00000  Uiso   1.00
H661   H     0.73364   0.80853   0.11593   0.00000  Uiso   1.00
H662   H     0.74153   0.85068   0.15802   0.00000  Uiso   1.00
H663   H     0.97340   0.90277   0.33454   0.00000  Uiso   1.00
H664   H     0.97769   0.82653   0.37067   0.00000  Uiso   1.00
H665   H     0.92681   0.81677   0.34368   0.00000  Uiso   1.00
H666   H     0.93372   0.86059   0.38424   0.00000  Uiso   1.00
H667   H     0.92743   0.81385   0.16659   0.00000  Uiso   1.00
H668   H     0.95170   0.73283   0.14519   0.00000  Uiso   1.00
H669   H     0.91078   0.74033   0.18413   0.00000  Uiso   1.00
H670   H     0.87092   0.77327   0.47069   0.00000  Uiso   1.00
H671   H     0.96354   0.73006   0.20423   0.00000  Uiso   1.00
H672   H     0.73907   0.85358   0.33333   0.00000  Uiso   1.00
H673   H     0.71500   0.93456   0.35454   0.00000  Uiso   1.00
H674   H     0.70254   0.93719   0.29561   0.00000  Uiso   1.00
H675   H     0.75550   0.92705   0.31509   0.00000  Uiso   1.00
H676   H     0.80074   0.89621   0.46927   0.00000  Uiso   1.00
H677   H     0.82422   0.76275   0.02848   0.00000  Uiso   1.00
H678   H     0.84645   0.90550   0.11147   0.00000  Uiso   1.00
H679   H     0.86730   0.77151   0.39004   0.00000  Uiso   1.00
H680   H     0.80017   0.89608   0.38816   0.00000  Uiso   1.00
H681   H     0.82593   0.76168   0.10895   0.00000  Uiso   1.00
H682   H     0.69228   0.76612   0.16364   0.00000  Uiso   1.00
N683   N     0.83333   0.95240   0.25000   0.00000  Uiso   1.00
N684   N     0.71392   0.87220   0.32234   0.00000  Uiso   1.00
N685   N     0.83333   0.71427   0.25000   0.00000  Uiso   1.00
N686   N     0.91226   0.73347   0.33098   0.00000  Uiso   1.00
N687   N     0.76233   0.93262   0.16124   0.00000  Uiso   1.00
N688   N     0.76633   0.72977   0.15727   0.00000  Uiso   1.00
N689   N     0.89644   0.93648   0.34556   0.00000  Uiso   1.00
N690   N     0.70700   0.79408   0.17732   0.00000  Uiso   1.00
N691   N     0.95935   0.87388   0.32208   0.00000  Uiso   1.00
N692   N     0.95254   0.79513   0.17751   0.00000  Uiso   1.00
O693   O     0.77226   0.87154   0.24999   0.00000  Uiso   1.00
O694   O     0.89441   0.79513   0.25001   0.00000  Uiso   1.00
O695   O     0.89441   0.87154   0.25000   0.00000  Uiso   1.00
O696   O     0.77226   0.79513   0.25000   0.00000  Uiso   1.00
O697   O     0.83333   0.87155   0.18453   0.00000  Uiso   1.00
O698   O     0.83334   0.79511   0.31547   0.00000  Uiso   1.00
O699   O     0.83334   0.87155   0.31547   0.00000  Uiso   1.00
O700   O     0.83333   0.79511   0.18453   0.00000  Uiso   1.00
Zn701  Zn    0.83333   0.88437   0.25000   0.00000  Uiso   1.00
Zn702  Zn    0.83333   0.78229   0.25000   0.00000  Uiso   1.00
C703   C     0.08685   0.16639   0.74942   0.00000  Uiso   1.00
C704   C     0.31340   0.18779   0.78562   0.00000  Uiso   1.00
C705   C     0.30980   0.14641   0.71455   0.00000  Uiso   1.00
C706   C     0.02339   0.18739   0.78537   0.00000  Uiso   1.00
C707   C     0.17596   0.20782   0.54768   0.00000  Uiso   1.00
C708   C     0.18810   0.13314   0.95300   0.00000  Uiso   1.00
C709   C     0.14945   0.20273   0.95217   0.00000  Uiso   1.00
C710   C     0.16313   0.12727   0.54638   0.00000  Uiso   1.00
C711   C     0.17507   0.20748   0.59362   0.00000  Uiso   1.00
C712   C     0.18631   0.13224   0.90710   0.00000  Uiso   1.00
C713   C     0.14881   0.20249   0.90615   0.00000  Uiso   1.00
C714   C     0.24644   0.16697   0.75071   0.00000  Uiso   1.00
C715   C     0.16341   0.12676   0.59228   0.00000  Uiso   1.00
C716   C     0.16853   0.16694   0.61602   0.00000  Uiso   1.00
C717   C     0.16702   0.16705   0.88369   0.00000  Uiso   1.00
C718   C     0.16951   0.16777   0.52393   0.00000  Uiso   1.00
C719   C     0.16925   0.16809   0.97570   0.00000  Uiso   1.00
C720   C     0.29059   0.16744   0.75016   0.00000  Uiso   1.00
C721   C     0.04265   0.16612   0.74987   0.00000  Uiso   1.00
C722   C     0.22108   0.04847   0.80815   0.00000  Uiso   1.00
C723   C     0.11674   0.28455   0.68748   0.00000  Uiso   1.00
C724   C     0.11879   0.04611   0.68559   0.00000  Uiso   1.00
C725   C     0.16716   0.16668   0.66399   0.00000  Uiso   1.00
C726   C     0.21242   0.28712   0.81613   0.00000  Uiso   1.00
C727   C     0.05198   0.15945   0.64371   0.00000  Uiso   1.00
C728   C     0.28235   0.17597   0.85690   0.00000  Uiso   1.00
C729   C     0.27765   0.08052   0.67807   0.00000  Uiso   1.00
C730   C     0.05539   0.25348   0.82159   0.00000  Uiso   1.00
C731   C     0.16657   0.16674   0.83589   0.00000  Uiso   1.00
C732   C     0.19150   0.02443   0.77956   0.00000  Uiso   1.00
C733   C     0.14267   0.30884   0.71966   0.00000  Uiso   1.00
C734   C     0.14267   0.02334   0.71967   0.00000  Uiso   1.00
C735   C     0.19032   0.30995   0.78064   0.00000  Uiso   1.00
C736   C     0.01977   0.14619   0.71418   0.00000  Uiso   1.00
H737   H     0.18183   0.23923   0.53079   0.00000  Uiso   1.00
H738   H     0.02397   0.17704   0.63026   0.00000  Uiso   1.00
H739   H     0.06697   0.14187   0.61593   0.00000  Uiso   1.00
H740   H     0.07487   0.18401   0.65802   0.00000  Uiso   1.00
H741   H     0.30673   0.23610   0.83454   0.00000  Uiso   1.00
H742   H     0.31102   0.15986   0.87067   0.00000  Uiso   1.00
H743   H     0.26015   0.15011   0.84368   0.00000  Uiso   1.00
H744   H     0.26706   0.19393   0.88424   0.00000  Uiso   1.00
H745   H     0.26076   0.14719   0.66659   0.00000  Uiso   1.00
H746   H     0.28503   0.06616   0.64519   0.00000  Uiso   1.00
H747   H     0.24411   0.07366   0.68413   0.00000  Uiso   1.00
H748   H     0.20425   0.10660   0.97069   0.00000  Uiso   1.00
H749   H     0.29688   0.06339   0.70423   0.00000  Uiso   1.00
H750   H     0.07240   0.18691   0.83333   0.00000  Uiso   1.00
H751   H     0.04834   0.26790   0.85454   0.00000  Uiso   1.00
H752   H     0.03587   0.27053   0.79561   0.00000  Uiso   1.00
H753   H     0.08883   0.26039   0.81509   0.00000  Uiso   1.00
H754   H     0.13407   0.22955   0.96927   0.00000  Uiso   1.00
H755   H     0.15755   0.09608   0.52848   0.00000  Uiso   1.00
H756   H     0.17979   0.23883   0.61147   0.00000  Uiso   1.00
H757   H     0.20063   0.10485   0.89004   0.00000  Uiso   1.00
H758   H     0.13351   0.22941   0.88816   0.00000  Uiso   1.00
H759   H     0.15926   0.09501   0.60895   0.00000  Uiso   1.00
H760   H     0.02561   0.09945   0.66364   0.00000  Uiso   1.00
N761   N     0.16667   0.28573   0.75000   0.00000  Uiso   1.00
N762   N     0.04726   0.20553   0.82234   0.00000  Uiso   1.00
N763   N     0.16667   0.04760   0.75000   0.00000  Uiso   1.00
N764   N     0.24559   0.06680   0.83098   0.00000  Uiso   1.00
N765   N     0.09566   0.26595   0.66124   0.00000  Uiso   1.00
N766   N     0.09966   0.06310   0.65727   0.00000  Uiso   1.00
N767   N     0.22977   0.26981   0.84556   0.00000  Uiso   1.00
N768   N     0.04033   0.12741   0.67732   0.00000  Uiso   1.00
N769   N     0.29268   0.20722   0.82208   0.00000  Uiso   1.00
N770   N     0.28587   0.12846   0.67751   0.00000  Uiso   1.00
O771   O     0.10559   0.20487   0.74999   0.00000  Uiso   1.00
O772   O     0.22774   0.12846   0.75001   0.00000  Uiso   1.00
O773   O     0.22774   0.20487   0.75000   0.00000  Uiso   1.00
O774   O     0.10559   0.12846   0.75000   0.00000  Uiso   1.00
O775   O     0.16666   0.20489   0.68453   0.00000  Uiso   1.00
O776   O     0.16667   0.12845   0.81547   0.00000  Uiso   1.00
O777   O     0.16667   0.20489   0.81547   0.00000  Uiso   1.00
O778   O     0.16666   0.12845   0.68453   0.00000  Uiso   1.00
Zn779  Zn    0.16667   0.21771   0.75000   0.00000  Uiso   1.00
Zn780  Zn    0.16667   0.11563   0.75000   0.00000  Uiso   1.00
C781   C     0.42019   0.16639   0.74942   0.00000  Uiso   1.00
C782   C     0.64674   0.18779   0.78562   0.00000  Uiso   1.00
C783   C     0.64313   0.14641   0.71455   0.00000  Uiso   1.00
C784   C     0.35672   0.18739   0.78537   0.00000  Uiso   1.00
C785   C     0.50929   0.20782   0.54768   0.00000  Uiso   1.00
C786   C     0.52143   0.13314   0.95300   0.00000  Uiso   1.00
C787   C     0.48279   0.20273   0.95217   0.00000  Uiso   1.00
C788   C     0.49646   0.12727   0.54638   0.00000  Uiso   1.00
C789   C     0.50840   0.20748   0.59362   0.00000  Uiso   1.00
C790   C     0.51965   0.13224   0.90710   0.00000  Uiso   1.00
C791   C     0.48214   0.20249   0.90615   0.00000  Uiso   1.00
C792   C     0.57978   0.16697   0.75071   0.00000  Uiso   1.00
C793   C     0.49674   0.12676   0.59228   0.00000  Uiso   1.00
C794   C     0.50187   0.16694   0.61602   0.00000  Uiso   1.00
C795   C     0.50036   0.16705   0.88369   0.00000  Uiso   1.00
C796   C     0.50284   0.16777   0.52393   0.00000  Uiso   1.00
C797   C     0.50259   0.16809   0.97570   0.00000  Uiso   1.00
C798   C     0.62392   0.16744   0.75016   0.00000  Uiso   1.00
C799   C     0.37598   0.16612   0.74987   0.00000  Uiso   1.00
C800   C     0.55441   0.04847   0.80815   0.00000  Uiso   1.00
C801   C     0.45007   0.28455   0.68748   0.00000  Uiso   1.00
C802   C     0.45212   0.04611   0.68559   0.00000  Uiso   1.00
C803   C     0.50049   0.16668   0.66399   0.00000  Uiso   1.00
C804   C     0.54576   0.28712   0.81613   0.00000  Uiso   1.00
C805   C     0.38532   0.15945   0.64371   0.00000  Uiso   1.00
C806   C     0.61568   0.17597   0.85690   0.00000  Uiso   1.00
C807   C     0.61099   0.08052   0.67807   0.00000  Uiso   1.00
C808   C     0.38872   0.25348   0.82159   0.00000  Uiso   1.00
C809   C     0.49990   0.16674   0.83589   0.00000  Uiso   1.00
C810   C     0.52483   0.02443   0.77956   0.00000  Uiso   1.00
C811   C     0.47601   0.30884   0.71966   0.00000  Uiso   1.00
C812   C     0.47600   0.02334   0.71967   0.00000  Uiso   1.00
C813   C     0.52365   0.30995   0.78064   0.00000  Uiso   1.00
C814   C     0.35310   0.14619   0.71418   0.00000  Uiso   1.00
H815   H     0.51516   0.23923   0.53079   0.00000  Uiso   1.00
H816   H     0.35730   0.17704   0.63026   0.00000  Uiso   1.00
H817   H     0.40031   0.14187   0.61593   0.00000  Uiso   1.00
H818   H     0.40820   0.18401   0.65802   0.00000  Uiso   1.00
H819   H     0.64006   0.23610   0.83454   0.00000  Uiso   1.00
H820   H     0.64436   0.15986   0.87067   0.00000  Uiso   1.00
H821   H     0.59348   0.15011   0.84368   0.00000  Uiso   1.00
H822   H     0.60039   0.19393   0.88424   0.00000  Uiso   1.00
H823   H     0.59410   0.14719   0.66659   0.00000  Uiso   1.00
H824   H     0.61837   0.06616   0.64519   0.00000  Uiso   1.00
H825   H     0.57745   0.07366   0.68413   0.00000  Uiso   1.00
H826   H     0.53759   0.10660   0.97069   0.00000  Uiso   1.00
H827   H     0.63021   0.06339   0.70423   0.00000  Uiso   1.00
H828   H     0.40574   0.18691   0.83333   0.00000  Uiso   1.00
H829   H     0.38167   0.26790   0.85454   0.00000  Uiso   1.00
H830   H     0.36921   0.27053   0.79561   0.00000  Uiso   1.00
H831   H     0.42217   0.26039   0.81509   0.00000  Uiso   1.00
H832   H     0.46740   0.22955   0.96927   0.00000  Uiso   1.00
H833   H     0.49089   0.09608   0.52848   0.00000  Uiso   1.00
H834   H     0.51312   0.23883   0.61147   0.00000  Uiso   1.00
H835   H     0.53396   0.10485   0.89004   0.00000  Uiso   1.00
H836   H     0.46684   0.22941   0.88816   0.00000  Uiso   1.00
H837   H     0.49259   0.09501   0.60895   0.00000  Uiso   1.00
H838   H     0.35895   0.09945   0.66364   0.00000  Uiso   1.00
N839   N     0.50000   0.28573   0.75000   0.00000  Uiso   1.00
N840   N     0.38059   0.20553   0.82234   0.00000  Uiso   1.00
N841   N     0.50000   0.04760   0.75000   0.00000  Uiso   1.00
N842   N     0.57892   0.06680   0.83098   0.00000  Uiso   1.00
N843   N     0.42899   0.26595   0.66124   0.00000  Uiso   1.00
N844   N     0.43300   0.06310   0.65727   0.00000  Uiso   1.00
N845   N     0.56311   0.26981   0.84556   0.00000  Uiso   1.00
N846   N     0.37366   0.12741   0.67732   0.00000  Uiso   1.00
N847   N     0.62602   0.20722   0.82208   0.00000  Uiso   1.00
N848   N     0.61920   0.12846   0.67751   0.00000  Uiso   1.00
O849   O     0.43892   0.20487   0.74999   0.00000  Uiso   1.00
O850   O     0.56108   0.12846   0.75001   0.00000  Uiso   1.00
O851   O     0.56108   0.20487   0.75000   0.00000  Uiso   1.00
O852   O     0.43892   0.12846   0.75000   0.00000  Uiso   1.00
O853   O     0.50000   0.20489   0.68453   0.00000  Uiso   1.00
O854   O     0.50000   0.12845   0.81547   0.00000  Uiso   1.00
O855   O     0.50000   0.20489   0.81547   0.00000  Uiso   1.00
O856   O     0.50000   0.12845   0.68453   0.00000  Uiso   1.00
Zn857  Zn    0.50000   0.21771   0.75000   0.00000  Uiso   1.00
Zn858  Zn    0.50000   0.11563   0.75000   0.00000  Uiso   1.00
C859   C     0.75352   0.16639   0.74942   0.00000  Uiso   1.00
C860   C     0.98007   0.18779   0.78562   0.00000  Uiso   1.00
C861   C     0.97647   0.14641   0.71455   0.00000  Uiso   1.00
C862   C     0.69005   0.18739   0.78537   0.00000  Uiso   1.00
C863   C     0.84262   0.20782   0.54768   0.00000  Uiso   1.00
C864   C     0.85477   0.13314   0.95300   0.00000  Uiso   1.00
C865   C     0.81612   0.20273   0.95217   0.00000  Uiso   1.00
C866   C     0.82980   0.12727   0.54638   0.00000  Uiso   1.00
C867   C     0.84173   0.20748   0.59362   0.00000  Uiso   1.00
C868   C     0.85298   0.13224   0.90710   0.00000  Uiso   1.00
C869   C     0.81547   0.20249   0.90615   0.00000  Uiso   1.00
C870   C     0.91311   0.16697   0.75071   0.00000  Uiso   1.00
C871   C     0.83008   0.12676   0.59228   0.00000  Uiso   1.00
C872   C     0.83520   0.16694   0.61602   0.00000  Uiso   1.00
C873   C     0.83369   0.16705   0.88369   0.00000  Uiso   1.00
C874   C     0.83618   0.16777   0.52393   0.00000  Uiso   1.00
C875   C     0.83592   0.16809   0.97570   0.00000  Uiso   1.00
C876   C     0.95725   0.16744   0.75016   0.00000  Uiso   1.00
C877   C     0.70931   0.16612   0.74987   0.00000  Uiso   1.00
C878   C     0.88775   0.04847   0.80815   0.00000  Uiso   1.00
C879   C     0.78340   0.28455   0.68748   0.00000  Uiso   1.00
C880   C     0.78545   0.04611   0.68559   0.00000  Uiso   1.00
C881   C     0.83383   0.16668   0.66399   0.00000  Uiso   1.00
C882   C     0.87909   0.28712   0.81613   0.00000  Uiso   1.00
C883   C     0.71865   0.15945   0.64371   0.00000  Uiso   1.00
C884   C     0.94902   0.17597   0.85690   0.00000  Uiso   1.00
C885   C     0.94432   0.08052   0.67807   0.00000  Uiso   1.00
C886   C     0.72205   0.25348   0.82159   0.00000  Uiso   1.00
C887   C     0.83323   0.16674   0.83589   0.00000  Uiso   1.00
C888   C     0.85816   0.02443   0.77956   0.00000  Uiso   1.00
C889   C     0.80934   0.30884   0.71966   0.00000  Uiso   1.00
C890   C     0.80934   0.02334   0.71967   0.00000  Uiso   1.00
C891   C     0.85699   0.30995   0.78064   0.00000  Uiso   1.00
C892   C     0.68643   0.14619   0.71418   0.00000  Uiso   1.00
H893   H     0.84849   0.23923   0.53079   0.00000  Uiso   1.00
H894   H     0.69063   0.17704   0.63026   0.00000  Uiso   1.00
H895   H     0.73364   0.14187   0.61593   0.00000  Uiso   1.00
H896   H     0.74153   0.18401   0.65802   0.00000  Uiso   1.00
H897   H     0.97340   0.23610   0.83454   0.00000  Uiso   1.00
H898   H     0.97769   0.15986   0.87067   0.00000  Uiso   1.00
H899   H     0.92681   0.15011   0.84368   0.00000  Uiso   1.00
H900   H     0.93372   0.19393   0.88424   0.00000  Uiso   1.00
H901   H     0.92743   0.14719   0.66659   0.00000  Uiso   1.00
H902   H     0.95170   0.06616   0.64519   0.00000  Uiso   1.00
H903   H     0.91078   0.07366   0.68413   0.00000  Uiso   1.00
H904   H     0.87092   0.10660   0.97069   0.00000  Uiso   1.00
H905   H     0.96354   0.06339   0.70423   0.00000  Uiso   1.00
H906   H     0.73907   0.18691   0.83333   0.00000  Uiso   1.00
H907   H     0.71500   0.26790   0.85454   0.00000  Uiso   1.00
H908   H     0.70254   0.27053   0.79561   0.00000  Uiso   1.00
H909   H     0.75550   0.26039   0.81509   0.00000  Uiso   1.00
H910   H     0.80074   0.22955   0.96927   0.00000  Uiso   1.00
H911   H     0.82422   0.09608   0.52848   0.00000  Uiso   1.00
H912   H     0.84645   0.23883   0.61147   0.00000  Uiso   1.00
H913   H     0.86730   0.10485   0.89004   0.00000  Uiso   1.00
H914   H     0.80017   0.22941   0.88816   0.00000  Uiso   1.00
H915   H     0.82593   0.09501   0.60895   0.00000  Uiso   1.00
H916   H     0.69228   0.09945   0.66364   0.00000  Uiso   1.00
N917   N     0.83333   0.28573   0.75000   0.00000  Uiso   1.00
N918   N     0.71392   0.20553   0.82234   0.00000  Uiso   1.00
N919   N     0.83333   0.04760   0.75000   0.00000  Uiso   1.00
N920   N     0.91226   0.06680   0.83098   0.00000  Uiso   1.00
N921   N     0.76233   0.26595   0.66124   0.00000  Uiso   1.00
N922   N     0.76633   0.06310   0.65727   0.00000  Uiso   1.00
N923   N     0.89644   0.26981   0.84556   0.00000  Uiso   1.00
N924   N     0.70700   0.12741   0.67732   0.00000  Uiso   1.00
N925   N     0.95935   0.20722   0.82208   0.00000  Uiso   1.00
N926   N     0.95254   0.12846   0.67751   0.00000  Uiso   1.00
O927   O     0.77226   0.20487   0.74999   0.00000  Uiso   1.00
O928   O     0.89441   0.12846   0.75001   0.00000  Uiso   1.00
O929   O     0.89441   0.20487   0.75000   0.00000  Uiso   1.00
O930   O     0.77226   0.12846   0.75000   0.00000  Uiso   1.00
O931   O     0.83333   0.20489   0.68453   0.00000  Uiso   1.00
O932   O     0.83334   0.12845   0.81547   0.00000  Uiso   1.00
O933   O     0.83334   0.20489   0.81547   0.00000  Uiso   1.00
O934   O     0.83333   0.12845   0.68453   0.00000  Uiso   1.00
Zn935  Zn    0.83333   0.21771   0.75000   0.00000  Uiso   1.00
Zn936  Zn    0.83333   0.11563   0.75000   0.00000  Uiso   1.00
C937   C     0.08685   0.49972   0.74942   0.00000  Uiso   1.00
C938   C     0.31340   0.52112   0.78562   0.00000  Uiso   1.00
C939   C     0.30980   0.47974   0.71455   0.00000  Uiso   1.00
C940   C     0.02339   0.52073   0.78537   0.00000  Uiso   1.00
C941   C     0.17596   0.54115   0.54768   0.00000  Uiso   1.00
C942   C     0.18810   0.46647   0.95300   0.00000  Uiso   1.00
C943   C     0.14945   0.53607   0.95217   0.00000  Uiso   1.00
C944   C     0.16313   0.46060   0.54638   0.00000  Uiso   1.00
C945   C     0.17507   0.54082   0.59362   0.00000  Uiso   1.00
C946   C     0.18631   0.46558   0.90710   0.00000  Uiso   1.00
C947   C     0.14881   0.53582   0.90615   0.00000  Uiso   1.00
C948   C     0.24644   0.50031   0.75071   0.00000  Uiso   1.00
C949   C     0.16341   0.46009   0.59228   0.00000  Uiso   1.00
C950   C     0.16853   0.50027   0.61602   0.00000  Uiso   1.00
C951   C     0.16702   0.50038   0.88369   0.00000  Uiso   1.00
C952   C     0.16951   0.50111   0.52393   0.00000  Uiso   1.00
C953   C     0.16925   0.50143   0.97570   0.00000  Uiso   1.00
C954   C     0.29059   0.50078   0.75016   0.00000  Uiso   1.00
C955   C     0.04265   0.49945   0.74987   0.00000  Uiso   1.00
C956   C     0.22108   0.38180   0.80815   0.00000  Uiso   1.00
C957   C     0.11674   0.61788   0.68748   0.00000  Uiso   1.00
C958   C     0.11879   0.37945   0.68559   0.00000  Uiso   1.00
C959   C     0.16716   0.50002   0.66399   0.00000  Uiso   1.00
C960   C     0.21242   0.62046   0.81613   0.00000  Uiso   1.00
C961   C     0.05198   0.49278   0.64371   0.00000  Uiso   1.00
C962   C     0.28235   0.50930   0.85690   0.00000  Uiso   1.00
C963   C     0.27765   0.41386   0.67807   0.00000  Uiso   1.00
C964   C     0.05539   0.58682   0.82159   0.00000  Uiso   1.00
C965   C     0.16657   0.50007   0.83589   0.00000  Uiso   1.00
C966   C     0.19150   0.35776   0.77956   0.00000  Uiso   1.00
C967   C     0.14267   0.64218   0.71966   0.00000  Uiso   1.00
C968   C     0.14267   0.35667   0.71967   0.00000  Uiso   1.00
C969   C     0.19032   0.64328   0.78064   0.00000  Uiso   1.00
C970   C     0.01977   0.47953   0.71418   0.00000  Uiso   1.00
H971   H     0.18183   0.57257   0.53079   0.00000  Uiso   1.00
H972   H     0.02397   0.51037   0.63026   0.00000  Uiso   1.00
H973   H     0.06697   0.47520   0.61593   0.00000  Uiso   1.00
H974   H     0.07487   0.51735   0.65802   0.00000  Uiso   1.00
H975   H     0.30673   0.56944   0.83454   0.00000  Uiso   1.00
H976   H     0.31102   0.49319   0.87067   0.00000  Uiso   1.00
H977   H     0.26015   0.48344   0.84368   0.00000  Uiso   1.00
H978   H     0.26706   0.52726   0.88424   0.00000  Uiso   1.00
H979   H     0.26076   0.48052   0.66659   0.00000  Uiso   1.00
H980   H     0.28503   0.39950   0.64519   0.00000  Uiso   1.00
H981   H     0.24411   0.40700   0.68413   0.00000  Uiso   1.00
H982   H     0.20425   0.43994   0.97069   0.00000  Uiso   1.00
H983   H     0.29688   0.39672   0.70423   0.00000  Uiso   1.00
H984   H     0.07240   0.52024   0.83333   0.00000  Uiso   1.00
H985   H     0.04834   0.60123   0.85454   0.00000  Uiso   1.00
H986   H     0.03587   0.60386   0.79561   0.00000  Uiso   1.00
H987   H     0.08883   0.59372   0.81509   0.00000  Uiso   1.00
H988   H     0.13407   0.56288   0.96927   0.00000  Uiso   1.00
H989   H     0.15755   0.42941   0.52848   0.00000  Uiso   1.00
H990   H     0.17979   0.57217   0.61147   0.00000  Uiso   1.00
H991   H     0.20063   0.43818   0.89004   0.00000  Uiso   1.00
H992   H     0.13351   0.56275   0.88816   0.00000  Uiso   1.00
H993   H     0.15926   0.42834   0.60895   0.00000  Uiso   1.00
H994   H     0.02561   0.43278   0.66364   0.00000  Uiso   1.00
N995   N     0.16667   0.61907   0.75000   0.00000  Uiso   1.00
N996   N     0.04726   0.53887   0.82234   0.00000  Uiso   1.00
N997   N     0.16667   0.38093   0.75000   0.00000  Uiso   1.00
N998   N     0.24559   0.40014   0.83098   0.00000  Uiso   1.00
N999   N     0.09566   0.59928   0.66124   0.00000  Uiso   1.00
N1000  N     0.09966   0.39643   0.65727   0.00000  Uiso   1.00
N1001  N     0.22977   0.60314   0.84556   0.00000  Uiso   1.00
N1002  N     0.04033   0.46075   0.67732   0.00000  Uiso   1.00
N1003  N     0.29268   0.54055   0.82208   0.00000  Uiso   1.00
N1004  N     0.28587   0.46180   0.67751   0.00000  Uiso   1.00
O1005  O     0.10559   0.53821   0.74999   0.00000  Uiso   1.00
O1006  O     0.22774   0.46179   0.75001   0.00000  Uiso   1.00
O1007  O     0.22774   0.53821   0.75000   0.00000  Uiso   1.00
O1008  O     0.10559   0.46179   0.75000   0.00000  Uiso   1.00
O1009  O     0.16666   0.53822   0.68453   0.00000  Uiso   1.00
O1010  O     0.16667   0.46178   0.81547   0.00000  Uiso   1.00
O1011  O     0.16667   0.53822   0.81547   0.00000  Uiso   1.00
O1012  O     0.16666   0.46178   0.68453   0.00000  Uiso   1.00
Zn1013 Zn    0.16667   0.55104   0.75000   0.00000  Uiso   1.00
Zn1014 Zn    0.16667   0.44896   0.75000   0.00000  Uiso   1.00
C1015  C     0.42019   0.49972   0.74942   0.00000  Uiso   1.00
C1016  C     0.64674   0.52112   0.78562   0.00000  Uiso   1.00
C1017  C     0.64313   0.47974   0.71455   0.00000  Uiso   1.00
C1018  C     0.35672   0.52073   0.78537   0.00000  Uiso   1.00
C1019  C     0.50929   0.54115   0.54768   0.00000  Uiso   1.00
C1020  C     0.52143   0.46647   0.95300   0.00000  Uiso   1.00
C1021  C     0.48279   0.53607   0.95217   0.00000  Uiso   1.00
C1022  C     0.49646   0.46060   0.54638   0.00000  Uiso   1.00
C1023  C     0.50840   0.54082   0.59362   0.00000  Uiso   1.00
C1024  C     0.51965   0.46558   0.90710   0.00000  Uiso   1.00
C1025  C     0.48214   0.53582   0.90615   0.00000  Uiso   1.00
C1026  C     0.57978   0.50031   0.75071   0.00000  Uiso   1.00
C1027  C     0.49674   0.46009   0.59228   0.00000  Uiso   1.00
C1028  C     0.50187   0.50027   0.61602   0.00000  Uiso   1.00
C1029  C     0.50036   0.50038   0.88369   0.00000  Uiso   1.00
C1030  C     0.50284   0.50111   0.52393   0.00000  Uiso   1.00
C1031  C     0.50259   0.50143   0.97570   0.00000  Uiso   1.00
C1032  C     0.62392   0.50078   0.75016   0.00000  Uiso   1.00
C1033  C     0.37598   0.49945   0.74987   0.00000  Uiso   1.00
C1034  C     0.55441   0.38180   0.80815   0.00000  Uiso   1.00
C1035  C     0.45007   0.61788   0.68748   0.00000  Uiso   1.00
C1036  C     0.45212   0.37945   0.68559   0.00000  Uiso   1.00
C1037  C     0.50049   0.50002   0.66399   0.00000  Uiso   1.00
C1038  C     0.54576   0.62046   0.81613   0.00000  Uiso   1.00
C1039  C     0.38532   0.49278   0.64371   0.00000  Uiso   1.00
C1040  C     0.61568   0.50930   0.85690   0.00000  Uiso   1.00
C1041  C     0.61099   0.41386   0.67807   0.00000  Uiso   1.00
C1042  C     0.38872   0.58682   0.82159   0.00000  Uiso   1.00
C1043  C     0.49990   0.50007   0.83589   0.00000  Uiso   1.00
C1044  C     0.52483   0.35776   0.77956   0.00000  Uiso   1.00
C1045  C     0.47601   0.64218   0.71966   0.00000  Uiso   1.00
C1046  C     0.47600   0.35667   0.71967   0.00000  Uiso   1.00
C1047  C     0.52365   0.64328   0.78064   0.00000  Uiso   1.00
C1048  C     0.35310   0.47953   0.71418   0.00000  Uiso   1.00
H1049  H     0.51516   0.57257   0.53079   0.00000  Uiso   1.00
H1050  H     0.35730   0.51037   0.63026   0.00000  Uiso   1.00
H1051  H     0.40031   0.47520   0.61593   0.00000  Uiso   1.00
H1052  H     0.40820   0.51735   0.65802   0.00000  Uiso   1.00
H1053  H     0.64006   0.56944   0.83454   0.00000  Uiso   1.00
H1054  H     0.64436   0.49319   0.87067   0.00000  Uiso   1.00
H1055  H     0.59348   0.48344   0.84368   0.00000  Uiso   1.00
H1056  H     0.60039   0.52726   0.88424   0.00000  Uiso   1.00
H1057  H     0.59410   0.48052   0.66659   0.00000  Uiso   1.00
H1058  H     0.61837   0.39950   0.64519   0.00000  Uiso   1.00
H1059  H     0.57745   0.40700   0.68413   0.00000  Uiso   1.00
H1060  H     0.53759   0.43994   0.97069   0.00000  Uiso   1.00
H1061  H     0.63021   0.39672   0.70423   0.00000  Uiso   1.00
H1062  H     0.40574   0.52024   0.83333   0.00000  Uiso   1.00
H1063  H     0.38167   0.60123   0.85454   0.00000  Uiso   1.00
H1064  H     0.36921   0.60386   0.79561   0.00000  Uiso   1.00
H1065  H     0.42217   0.59372   0.81509   0.00000  Uiso   1.00
H1066  H     0.46740   0.56288   0.96927   0.00000  Uiso   1.00
H1067  H     0.49089   0.42941   0.52848   0.00000  Uiso   1.00
H1068  H     0.51312   0.57217   0.61147   0.00000  Uiso   1.00
H1069  H     0.53396   0.43818   0.89004   0.00000  Uiso   1.00
H1070  H     0.46684   0.56275   0.88816   0.00000  Uiso   1.00
H1071  H     0.49259   0.42834   0.60895   0.00000  Uiso   1.00
H1072  H     0.35895   0.43278   0.66364   0.00000  Uiso   1.00
N1073  N     0.50000   0.61907   0.75000   0.00000  Uiso   1.00
N1074  N     0.38059   0.53887   0.82234   0.00000  Uiso   1.00
N1075  N     0.50000   0.38093   0.75000   0.00000  Uiso   1.00
N1076  N     0.57892   0.40014   0.83098   0.00000  Uiso   1.00
N1077  N     0.42899   0.59928   0.66124   0.00000  Uiso   1.00
N1078  N     0.43300   0.39643   0.65727   0.00000  Uiso   1.00
N1079  N     0.56311   0.60314   0.84556   0.00000  Uiso   1.00
N1080  N     0.37366   0.46075   0.67732   0.00000  Uiso   1.00
N1081  N     0.62602   0.54055   0.82208   0.00000  Uiso   1.00
N1082  N     0.61920   0.46180   0.67751   0.00000  Uiso   1.00
O1083  O     0.43892   0.53821   0.74999   0.00000  Uiso   1.00
O1084  O     0.56108   0.46179   0.75001   0.00000  Uiso   1.00
O1085  O     0.56108   0.53821   0.75000   0.00000  Uiso   1.00
O1086  O     0.43892   0.46179   0.75000   0.00000  Uiso   1.00
O1087  O     0.50000   0.53822   0.68453   0.00000  Uiso   1.00
O1088  O     0.50000   0.46178   0.81547   0.00000  Uiso   1.00
O1089  O     0.50000   0.53822   0.81547   0.00000  Uiso   1.00
O1090  O     0.50000   0.46178   0.68453   0.00000  Uiso   1.00
Zn1091 Zn    0.50000   0.55104   0.75000   0.00000  Uiso   1.00
Zn1092 Zn    0.50000   0.44896   0.75000   0.00000  Uiso   1.00
C1093  C     0.75352   0.49972   0.74942   0.00000  Uiso   1.00
C1094  C     0.98007   0.52112   0.78562   0.00000  Uiso   1.00
C1095  C     0.97647   0.47974   0.71455   0.00000  Uiso   1.00
C1096  C     0.69005   0.52073   0.78537   0.00000  Uiso   1.00
C1097  C     0.84262   0.54115   0.54768   0.00000  Uiso   1.00
C1098  C     0.85477   0.46647   0.95300   0.00000  Uiso   1.00
C1099  C     0.81612   0.53607   0.95217   0.00000  Uiso   1.00
C1100  C     0.82980   0.46060   0.54638   0.00000  Uiso   1.00
C1101  C     0.84173   0.54082   0.59362   0.00000  Uiso   1.00
C1102  C     0.85298   0.46558   0.90710   0.00000  Uiso   1.00
C1103  C     0.81547   0.53582   0.90615   0.00000  Uiso   1.00
C1104  C     0.91311   0.50031   0.75071   0.00000  Uiso   1.00
C1105  C     0.83008   0.46009   0.59228   0.00000  Uiso   1.00
C1106  C     0.83520   0.50027   0.61602   0.00000  Uiso   1.00
C1107  C     0.83369   0.50038   0.88369   0.00000  Uiso   1.00
C1108  C     0.83618   0.50111   0.52393   0.00000  Uiso   1.00
C1109  C     0.83592   0.50143   0.97570   0.00000  Uiso   1.00
C1110  C     0.95725   0.50078   0.75016   0.00000  Uiso   1.00
C1111  C     0.70931   0.49945   0.74987   0.00000  Uiso   1.00
C1112  C     0.88775   0.38180   0.80815   0.00000  Uiso   1.00
C1113  C     0.78340   0.61788   0.68748   0.00000  Uiso   1.00
C1114  C     0.78545   0.37945   0.68559   0.00000  Uiso   1.00
C1115  C     0.83383   0.50002   0.66399   0.00000  Uiso   1.00
C1116  C     0.87909   0.62046   0.81613   0.00000  Uiso   1.00
C1117  C     0.71865   0.49278   0.64371   0.00000  Uiso   1.00
C1118  C     0.94902   0.50930   0.85690   0.00000  Uiso   1.00
C1119  C     0.94432   0.41386   0.67807   0.00000  Uiso   1.00
C1120  C     0.72205   0.58682   0.82159   0.00000  Uiso   1.00
C1121  C     0.83323   0.50007   0.83589   0.00000  Uiso   1.00
C1122  C     0.85816   0.35776   0.77956   0.00000  Uiso   1.00
C1123  C     0.80934   0.64218   0.71966   0.00000  Uiso   1.00
C1124  C     0.80934   0.35667   0.71967   0.00000  Uiso   1.00
C1125  C     0.85699   0.64328   0.78064   0.00000  Uiso   1.00
C1126  C     0.68643   0.47953   0.71418   0.00000  Uiso   1.00
H1127  H     0.84849   0.57257   0.53079   0.00000  Uiso   1.00
H1128  H     0.69063   0.51037   0.63026   0.00000  Uiso   1.00
H1129  H     0.73364   0.47520   0.61593   0.00000  Uiso   1.00
H1130  H     0.74153   0.51735   0.65802   0.00000  Uiso   1.00
H1131  H     0.97340   0.56944   0.83454   0.00000  Uiso   1.00
H1132  H     0.97769   0.49319   0.87067   0.00000  Uiso   1.00
H1133  H     0.92681   0.48344   0.84368   0.00000  Uiso   1.00
H1134  H     0.93372   0.52726   0.88424   0.00000  Uiso   1.00
H1135  H     0.92743   0.48052   0.66659   0.00000  Uiso   1.00
H1136  H     0.95170   0.39950   0.64519   0.00000  Uiso   1.00
H1137  H     0.91078   0.40700   0.68413   0.00000  Uiso   1.00
H1138  H     0.87092   0.43994   0.97069   0.00000  Uiso   1.00
H1139  H     0.96354   0.39672   0.70423   0.00000  Uiso   1.00
H1140  H     0.73907   0.52024   0.83333   0.00000  Uiso   1.00
H1141  H     0.71500   0.60123   0.85454   0.00000  Uiso   1.00
H1142  H     0.70254   0.60386   0.79561   0.00000  Uiso   1.00
H1143  H     0.75550   0.59372   0.81509   0.00000  Uiso   1.00
H1144  H     0.80074   0.56288   0.96927   0.00000  Uiso   1.00
H1145  H     0.82422   0.42941   0.52848   0.00000  Uiso   1.00
H1146  H     0.84645   0.57217   0.61147   0.00000  Uiso   1.00
H1147  H     0.86730   0.43818   0.89004   0.00000  Uiso   1.00
H1148  H     0.80017   0.56275   0.88816   0.00000  Uiso   1.00
H1149  H     0.82593   0.42834   0.60895   0.00000  Uiso   1.00
H1150  H     0.69228   0.43278   0.66364   0.00000  Uiso   1.00
N1151  N     0.83333   0.61907   0.75000   0.00000  Uiso   1.00
N1152  N     0.71392   0.53887   0.82234   0.00000  Uiso   1.00
N1153  N     0.83333   0.38093   0.75000   0.00000  Uiso   1.00
N1154  N     0.91226   0.40014   0.83098   0.00000  Uiso   1.00
N1155  N     0.76233   0.59928   0.66124   0.00000  Uiso   1.00
N1156  N     0.76633   0.39643   0.65727   0.00000  Uiso   1.00
N1157  N     0.89644   0.60314   0.84556   0.00000  Uiso   1.00
N1158  N     0.70700   0.46075   0.67732   0.00000  Uiso   1.00
N1159  N     0.95935   0.54055   0.82208   0.00000  Uiso   1.00
N1160  N     0.95254   0.46180   0.67751   0.00000  Uiso   1.00
O1161  O     0.77226   0.53821   0.74999   0.00000  Uiso   1.00
O1162  O     0.89441   0.46179   0.75001   0.00000  Uiso   1.00
O1163  O     0.89441   0.53821   0.75000   0.00000  Uiso   1.00
O1164  O     0.77226   0.46179   0.75000   0.00000  Uiso   1.00
O1165  O     0.83333   0.53822   0.68453   0.00000  Uiso   1.00
O1166  O     0.83334   0.46178   0.81547   0.00000  Uiso   1.00
O1167  O     0.83334   0.53822   0.81547   0.00000  Uiso   1.00
O1168  O     0.83333   0.46178   0.68453   0.00000  Uiso   1.00
Zn1169 Zn    0.83333   0.55104   0.75000   0.00000  Uiso   1.00
Zn1170 Zn    0.83333   0.44896   0.75000   0.00000  Uiso   1.00
C1171  C     0.08685   0.83306   0.74942   0.00000  Uiso   1.00
C1172  C     0.31340   0.85446   0.78562   0.00000  Uiso   1.00
C1173  C     0.30980   0.81308   0.71455   0.00000  Uiso   1.00
C1174  C     0.02339   0.85406   0.78537   0.00000  Uiso   1.00
C1175  C     0.17596   0.87449   0.54768   0.00000  Uiso   1.00
C1176  C     0.18810   0.79980   0.95300   0.00000  Uiso   1.00
C1177  C     0.14945   0.86940   0.95217   0.00000  Uiso   1.00
C1178  C     0.16313   0.79394   0.54638   0.00000  Uiso   1.00
C1179  C     0.17507   0.87415   0.59362   0.00000  Uiso   1.00
C1180  C     0.18631   0.79891   0.90710   0.00000  Uiso   1.00
C1181  C     0.14881   0.86916   0.90615   0.00000  Uiso   1.00
C1182  C     0.24644   0.83364   0.75071   0.00000  Uiso   1.00
C1183  C     0.16341   0.79342   0.59228   0.00000  Uiso   1.00
C1184  C     0.16853   0.83361   0.61602   0.00000  Uiso   1.00
C1185  C     0.16702   0.83371   0.88369   0.00000  Uiso   1.00
C1186  C     0.16951   0.83444   0.52393   0.00000  Uiso   1.00
C1187  C     0.16925   0.83476   0.97570   0.00000  Uiso   1.00
C1188  C     0.29059   0.83411   0.75016   0.00000  Uiso   1.00
C1189  C     0.04265   0.83279   0.74987   0.00000  Uiso   1.00
C1190  C     0.22108   0.71514   0.80815   0.00000  Uiso   1.00
C1191  C     0.11674   0.95121   0.68748   0.00000  Uiso   1.00
C1192  C     0.11879   0.71278   0.68559   0.00000  Uiso   1.00
C1193  C     0.16716   0.83335   0.66399   0.00000  Uiso   1.00
C1194  C     0.21242   0.95379   0.81613   0.00000  Uiso   1.00
C1195  C     0.05198   0.82611   0.64371   0.00000  Uiso   1.00
C1196  C     0.28235   0.84264   0.85690   0.00000  Uiso   1.00
C1197  C     0.27765   0.74719   0.67807   0.00000  Uiso   1.00
C1198  C     0.05539   0.92015   0.82159   0.00000  Uiso   1.00
C1199  C     0.16657   0.83341   0.83589   0.00000  Uiso   1.00
C1200  C     0.19150   0.69110   0.77956   0.00000  Uiso   1.00
C1201  C     0.14267   0.97551   0.71966   0.00000  Uiso   1.00
C1202  C     0.14267   0.69001   0.71967   0.00000  Uiso   1.00
C1203  C     0.19032   0.97662   0.78064   0.00000  Uiso   1.00
C1204  C     0.01977   0.81286   0.71418   0.00000  Uiso   1.00
H1205  H     0.18183   0.90590   0.53079   0.00000  Uiso   1.00
H1206  H     0.02397   0.84371   0.63026   0.00000  Uiso   1.00
H1207  H     0.06697   0.80853   0.61593   0.00000  Uiso   1.00
H1208  H     0.07487   0.85068   0.65802   0.00000  Uiso   1.00
H1209  H     0.30673   0.90277   0.83454   0.00000  Uiso   1.00
H1210  H     0.31102   0.82653   0.87067   0.00000  Uiso   1.00
H1211  H     0.26015   0.81677   0.84368   0.00000  Uiso   1.00
H1212  H     0.26706   0.86059   0.88424   0.00000  Uiso   1.00
H1213  H     0.26076   0.81385   0.66659   0.00000  Uiso   1.00
H1214  H     0.28503   0.73283   0.64519   0.00000  Uiso   1.00
H1215  H     0.24411   0.74033   0.68413   0.00000  Uiso   1.00
H1216  H     0.20425   0.77327   0.97069   0.00000  Uiso   1.00
H1217  H     0.29688   0.73006   0.70423   0.00000  Uiso   1.00
H1218  H     0.07240   0.85358   0.83333   0.00000  Uiso   1.00
H1219  H     0.04834   0.93456   0.85454   0.00000  Uiso   1.00
H1220  H     0.03587   0.93719   0.79561   0.00000  Uiso   1.00
H1221  H     0.08883   0.92705   0.81509   0.00000  Uiso   1.00
H1222  H     0.13407   0.89621   0.96927   0.00000  Uiso   1.00
H1223  H     0.15755   0.76275   0.52848   0.00000  Uiso   1.00
H1224  H     0.17979   0.90550   0.61147   0.00000  Uiso   1.00
H1225  H     0.20063   0.77151   0.89004   0.00000  Uiso   1.00
H1226  H     0.13351   0.89608   0.88816   0.00000  Uiso   1.00
H1227  H     0.15926   0.76168   0.60895   0.00000  Uiso   1.00
H1228  H     0.02561   0.76612   0.66364   0.00000  Uiso   1.00
N1229  N     0.16667   0.95240   0.75000   0.00000  Uiso   1.00
N1230  N     0.04726   0.87220   0.82234   0.00000  Uiso   1.00
N1231  N     0.16667   0.71427   0.75000   0.00000  Uiso   1.00
N1232  N     0.24559   0.73347   0.83098   0.00000  Uiso   1.00
N1233  N     0.09566   0.93262   0.66124   0.00000  Uiso   1.00
N1234  N     0.09966   0.72977   0.65727   0.00000  Uiso   1.00
N1235  N     0.22977   0.93648   0.84556   0.00000  Uiso   1.00
N1236  N     0.04033   0.79408   0.67732   0.00000  Uiso   1.00
N1237  N     0.29268   0.87388   0.82208   0.00000  Uiso   1.00
N1238  N     0.28587   0.79513   0.67751   0.00000  Uiso   1.00
O1239  O     0.10559   0.87154   0.74999   0.00000  Uiso   1.00
O1240  O     0.22774   0.79513   0.75001   0.00000  Uiso   1.00
O1241  O     0.22774   0.87154   0.75000   0.00000  Uiso   1.00
O1242  O     0.10559   0.79513   0.75000   0.00000  Uiso   1.00
O1243  O     0.16666   0.87155   0.68453   0.00000  Uiso   1.00
O1244  O     0.16667   0.79511   0.81547   0.00000  Uiso   1.00
O1245  O     0.16667   0.87155   0.81547   0.00000  Uiso   1.00
O1246  O     0.16666   0.79511   0.68453   0.00000  Uiso   1.00
Zn1247 Zn    0.16667   0.88437   0.75000   0.00000  Uiso   1.00
Zn1248 Zn    0.16667   0.78229   0.75000   0.00000  Uiso   1.00
C1249  C     0.42019   0.83306   0.74942   0.00000  Uiso   1.00
C1250  C     0.64674   0.85446   0.78562   0.00000  Uiso   1.00
C1251  C     0.64313   0.81308   0.71455   0.00000  Uiso   1.00
C1252  C     0.35672   0.85406   0.78537   0.00000  Uiso   1.00
C1253  C     0.50929   0.87449   0.54768   0.00000  Uiso   1.00
C1254  C     0.52143   0.79980   0.95300   0.00000  Uiso   1.00
C1255  C     0.48279   0.86940   0.95217   0.00000  Uiso   1.00
C1256  C     0.49646   0.79394   0.54638   0.00000  Uiso   1.00
C1257  C     0.50840   0.87415   0.59362   0.00000  Uiso   1.00
C1258  C     0.51965   0.79891   0.90710   0.00000  Uiso   1.00
C1259  C     0.48214   0.86916   0.90615   0.00000  Uiso   1.00
C1260  C     0.57978   0.83364   0.75071   0.00000  Uiso   1.00
C1261  C     0.49674   0.79342   0.59228   0.00000  Uiso   1.00
C1262  C     0.50187   0.83361   0.61602   0.00000  Uiso   1.00
C1263  C     0.50036   0.83371   0.88369   0.00000  Uiso   1.00
C1264  C     0.50284   0.83444   0.52393   0.00000  Uiso   1.00
C1265  C     0.50259   0.83476   0.97570   0.00000  Uiso   1.00
C1266  C     0.62392   0.83411   0.75016   0.00000  Uiso   1.00
C1267  C     0.37598   0.83279   0.74987   0.00000  Uiso   1.00
C1268  C     0.55441   0.71514   0.80815   0.00000  Uiso   1.00
C1269  C     0.45007   0.95121   0.68748   0.00000  Uiso   1.00
C1270  C     0.45212   0.71278   0.68559   0.00000  Uiso   1.00
C1271  C     0.50049   0.83335   0.66399   0.00000  Uiso   1.00
C1272  C     0.54576   0.95379   0.81613   0.00000  Uiso   1.00
C1273  C     0.38532   0.82611   0.64371   0.00000  Uiso   1.00
C1274  C     0.61568   0.84264   0.85690   0.00000  Uiso   1.00
C1275  C     0.61099   0.74719   0.67807   0.00000  Uiso   1.00
C1276  C     0.38872   0.92015   0.82159   0.00000  Uiso   1.00
C1277  C     0.49990   0.83341   0.83589   0.00000  Uiso   1.00
C1278  C     0.52483   0.69110   0.77956   0.00000  Uiso   1.00
C1279  C     0.47601   0.97551   0.71966   0.00000  Uiso   1.00
C1280  C     0.47600   0.69001   0.71967   0.00000  Uiso   1.00
C1281  C     0.52365   0.97662   0.78064   0.00000  Uiso   1.00
C1282  C     0.35310   0.81286   0.71418   0.00000  Uiso   1.00
H1283  H     0.51516   0.90590   0.53079   0.00000  Uiso   1.00
H1284  H     0.35730   0.84371   0.63026   0.00000  Uiso   1.00
H1285  H     0.40031   0.80853   0.61593   0.00000  Uiso   1.00
H1286  H     0.40820   0.85068   0.65802   0.00000  Uiso   1.00
H1287  H     0.64006   0.90277   0.83454   0.00000  Uiso   1.00
H1288  H     0.64436   0.82653   0.87067   0.00000  Uiso   1.00
H1289  H     0.59348   0.81677   0.84368   0.00000  Uiso   1.00
H1290  H     0.60039   0.86059   0.88424   0.00000  Uiso   1.00
H1291  H     0.59410   0.81385   0.66659   0.00000  Uiso   1.00
H1292  H     0.61837   0.73283   0.64519   0.00000  Uiso   1.00
H1293  H     0.57745   0.74033   0.68413   0.00000  Uiso   1.00
H1294  H     0.53759   0.77327   0.97069   0.00000  Uiso   1.00
H1295  H     0.63021   0.73006   0.70423   0.00000  Uiso   1.00
H1296  H     0.40574   0.85358   0.83333   0.00000  Uiso   1.00
H1297  H     0.38167   0.93456   0.85454   0.00000  Uiso   1.00
H1298  H     0.36921   0.93719   0.79561   0.00000  Uiso   1.00
H1299  H     0.42217   0.92705   0.81509   0.00000  Uiso   1.00
H1300  H     0.46740   0.89621   0.96927   0.00000  Uiso   1.00
H1301  H     0.49089   0.76275   0.52848   0.00000  Uiso   1.00
H1302  H     0.51312   0.90550   0.61147   0.00000  Uiso   1.00
H1303  H     0.53396   0.77151   0.89004   0.00000  Uiso   1.00
H1304  H     0.46684   0.89608   0.88816   0.00000  Uiso   1.00
H1305  H     0.49259   0.76168   0.60895   0.00000  Uiso   1.00
H1306  H     0.35895   0.76612   0.66364   0.00000  Uiso   1.00
N1307  N     0.50000   0.95240   0.75000   0.00000  Uiso   1.00
N1308  N     0.38059   0.87220   0.82234   0.00000  Uiso   1.00
N1309  N     0.50000   0.71427   0.75000   0.00000  Uiso   1.00
N1310  N     0.57892   0.73347   0.83098   0.00000  Uiso   1.00
N1311  N     0.42899   0.93262   0.66124   0.00000  Uiso   1.00
N1312  N     0.43300   0.72977   0.65727   0.00000  Uiso   1.00
N1313  N     0.56311   0.93648   0.84556   0.00000  Uiso   1.00
N1314  N     0.37366   0.79408   0.67732   0.00000  Uiso   1.00
N1315  N     0.62602   0.87388   0.82208   0.00000  Uiso   1.00
N1316  N     0.61920   0.79513   0.67751   0.00000  Uiso   1.00
O1317  O     0.43892   0.87154   0.74999   0.00000  Uiso   1.00
O1318  O     0.56108   0.79513   0.75001   0.00000  Uiso   1.00
O1319  O     0.56108   0.87154   0.75000   0.00000  Uiso   1.00
O1320  O     0.43892   0.79513   0.75000   0.00000  Uiso   1.00
O1321  O     0.50000   0.87155   0.68453   0.00000  Uiso   1.00
O1322  O     0.50000   0.79511   0.81547   0.00000  Uiso   1.00
O1323  O     0.50000   0.87155   0.81547   0.00000  Uiso   1.00
O1324  O     0.50000   0.79511   0.68453   0.00000  Uiso   1.00
Zn1325 Zn    0.50000   0.88437   0.75000   0.00000  Uiso   1.00
Zn1326 Zn    0.50000   0.78229   0.75000   0.00000  Uiso   1.00
C1327  C     0.75352   0.83306   0.74942   0.00000  Uiso   1.00
C1328  C     0.98007   0.85446   0.78562   0.00000  Uiso   1.00
C1329  C     0.97647   0.81308   0.71455   0.00000  Uiso   1.00
C1330  C     0.69005   0.85406   0.78537   0.00000  Uiso   1.00
C1331  C     0.84262   0.87449   0.54768   0.00000  Uiso   1.00
C1332  C     0.85477   0.79980   0.95300   0.00000  Uiso   1.00
C1333  C     0.81612   0.86940   0.95217   0.00000  Uiso   1.00
C1334  C     0.82980   0.79394   0.54638   0.00000  Uiso   1.00
C1335  C     0.84173   0.87415   0.59362   0.00000  Uiso   1.00
C1336  C     0.85298   0.79891   0.90710   0.00000  Uiso   1.00
C1337  C     0.81547   0.86916   0.90615   0.00000  Uiso   1.00
C1338  C     0.91311   0.83364   0.75071   0.00000  Uiso   1.00
C1339  C     0.83008   0.79342   0.59228   0.00000  Uiso   1.00
C1340  C     0.83520   0.83361   0.61602   0.00000  Uiso   1.00
C1341  C     0.83369   0.83371   0.88369   0.00000  Uiso   1.00
C1342  C     0.83618   0.83444   0.52393   0.00000  Uiso   1.00
C1343  C     0.83592   0.83476   0.97570   0.00000  Uiso   1.00
C1344  C     0.95725   0.83411   0.75016   0.00000  Uiso   1.00
C1345  C     0.70931   0.83279   0.74987   0.00000  Uiso   1.00
C1346  C     0.88775   0.71514   0.80815   0.00000  Uiso   1.00
C1347  C     0.78340   0.95121   0.68748   0.00000  Uiso   1.00
C1348  C     0.78545   0.71278   0.68559   0.00000  Uiso   1.00
C1349  C     0.83383   0.83335   0.66399   0.00000  Uiso   1.00
C1350  C     0.87909   0.95379   0.81613   0.00000  Uiso   1.00
C1351  C     0.71865   0.82611   0.64371   0.00000  Uiso   1.00
C1352  C     0.94902   0.84264   0.85690   0.00000  Uiso   1.00
C1353  C     0.94432   0.74719   0.67807   0.00000  Uiso   1.00
C1354  C     0.72205   0.92015   0.82159   0.00000  Uiso   1.00
C1355  C     0.83323   0.83341   0.83589   0.00000  Uiso   1.00
C1356  C     0.85816   0.69110   0.77956   0.00000  Uiso   1.00
C1357  C     0.80934   0.97551   0.71966   0.00000  Uiso   1.00
C1358  C     0.80934   0.69001   0.71967   0.00000  Uiso   1.00
C1359  C     0.85699   0.97662   0.78064   0.00000  Uiso   1.00
C1360  C     0.68643   0.81286   0.71418   0.00000  Uiso   1.00
H1361  H     0.84849   0.90590   0.53079   0.00000  Uiso   1.00
H1362  H     0.69063   0.84371   0.63026   0.00000  Uiso   1.00
H1363  H     0.73364   0.80853   0.61593   0.00000  Uiso   1.00
H1364  H     0.74153   0.85068   0.65802   0.00000  Uiso   1.00
H1365  H     0.97340   0.90277   0.83454   0.00000  Uiso   1.00
H1366  H     0.97769   0.82653   0.87067   0.00000  Uiso   1.00
H1367  H     0.92681   0.81677   0.84368   0.00000  Uiso   1.00
H1368  H     0.93372   0.86059   0.88424   0.00000  Uiso   1.00
H1369  H     0.92743   0.81385   0.66659   0.00000  Uiso   1.00
H1370  H     0.95170   0.73283   0.64519   0.00000  Uiso   1.00
H1371  H     0.91078   0.74033   0.68413   0.00000  Uiso   1.00
H1372  H     0.87092   0.77327   0.97069   0.00000  Uiso   1.00
H1373  H     0.96354   0.73006   0.70423   0.00000  Uiso   1.00
H1374  H     0.73907   0.85358   0.83333   0.00000  Uiso   1.00
H1375  H     0.71500   0.93456   0.85454   0.00000  Uiso   1.00
H1376  H     0.70254   0.93719   0.79561   0.00000  Uiso   1.00
H1377  H     0.75550   0.92705   0.81509   0.00000  Uiso   1.00
H1378  H     0.80074   0.89621   0.96927   0.00000  Uiso   1.00
H1379  H     0.82422   0.76275   0.52848   0.00000  Uiso   1.00
H1380  H     0.84645   0.90550   0.61147   0.00000  Uiso   1.00
H1381  H     0.86730   0.77151   0.89004   0.00000  Uiso   1.00
H1382  H     0.80017   0.89608   0.88816   0.00000  Uiso   1.00
H1383  H     0.82593   0.76168   0.60895   0.00000  Uiso   1.00
H1384  H     0.69228   0.76612   0.66364   0.00000  Uiso   1.00
N1385  N     0.83333   0.95240   0.75000   0.00000  Uiso   1.00
N1386  N     0.71392   0.87220   0.82234   0.00000  Uiso   1.00
N1387  N     0.83333   0.71427   0.75000   0.00000  Uiso   1.00
N1388  N     0.91226   0.73347   0.83098   0.00000  Uiso   1.00
N1389  N     0.76233   0.93262   0.66124   0.00000  Uiso   1.00
N1390  N     0.76633   0.72977   0.65727   0.00000  Uiso   1.00
N1391  N     0.89644   0.93648   0.84556   0.00000  Uiso   1.00
N1392  N     0.70700   0.79408   0.67732   0.00000  Uiso   1.00
N1393  N     0.95935   0.87388   0.82208   0.00000  Uiso   1.00
N1394  N     0.95254   0.79513   0.67751   0.00000  Uiso   1.00
O1395  O     0.77226   0.87154   0.74999   0.00000  Uiso   1.00
O1396  O     0.89441   0.79513   0.75001   0.00000  Uiso   1.00
O1397  O     0.89441   0.87154   0.75000   0.00000  Uiso   1.00
O1398  O     0.77226   0.79513   0.75000   0.00000  Uiso   1.00
O1399  O     0.83333   0.87155   0.68453   0.00000  Uiso   1.00
O1400  O     0.83334   0.79511   0.81547   0.00000  Uiso   1.00
O1401  O     0.83334   0.87155   0.81547   0.00000  Uiso   1.00
O1402  O     0.83333   0.79511   0.68453   0.00000  Uiso   1.00
Zn1403 Zn    0.83333   0.88437   0.75000   0.00000  Uiso   1.00
Zn1404 Zn    0.83333   0.78229   0.75000   0.00000  Uiso   1.00
loop_
_geom_bond_atom_site_label_1
_geom_bond_atom_site_label_2
_geom_bond_distance
_geom_bond_site_symmetry_2
_ccdc_geom_bond_type
C1     C19     1.416   .     S
C1     O72     1.289   .     A
C1     O69     1.287   .     A
C2     C18     1.404   .     A
C2     N67     1.425   .     S
C2     C82     1.388   .     S
C3     N68     1.429   .     S
C3     C18     1.403   .     A
C3     C112    1.387   .     S
C4     C19     1.404   .     A
C4     N60     1.429   .     S
C4     C158    1.388   1_455 S
C5     C16     1.399   .     A
C5     C9      1.381   .     A
C5     H35     1.083   .     S
C6     C17     1.400   .     A
C6     H46     1.083   .     S
C6     C10     1.378   .     A
C7     C11     1.382   .     A
C7     H52     1.083   .     S
C7     C17     1.401   .     A
C8     C13     1.379   .     A
C8     H53     1.083   .     S
C8     C16     1.400   .     A
C9     C14     1.401   .     A
C9     H54     1.083   .     S
C10    C15     1.396   .     A
C10    H55     1.080   .     S
C11    C15     1.398   .     A
C11    H56     1.084   .     S
C12    O71     1.287   .     A
C12    O70     1.287   .     A
C12    C18     1.414   .     S
C13    C14     1.398   .     A
C13    H57     1.080   .     S
C14    C23     1.443   .     S
C15    C29     1.435   .     S
C16    C719    1.448   1_554 S
C17    C718    1.448   .     S
C19    C34     1.405   .     A
C20    C30     1.440   .     S
C20    N62     1.156   .     T
C21    C31     1.441   .     S
C21    N63     1.156   .     T
C22    C32     1.436   .     S
C22    N64     1.155   .     T
C23    O76     1.298   .     A
C23    O73     1.295   .     A
C24    N65     1.156   .     T
C24    C33     1.439   .     S
C25    H37     1.110   .     S
C25    H38     1.105   .     S
C25    N66     1.445   .     S
C25    H36     1.112   .     S
C26    N67     1.445   .     S
C26    H42     1.110   .     S
C26    H40     1.111   .     S
C26    H41     1.105   .     S
C27    N68     1.450   .     S
C27    H44     1.109   .     S
C27    H45     1.111   .     S
C27    H47     1.113   .     S
C28    H51     1.111   .     S
C28    H50     1.113   .     S
C28    N60     1.450   .     S
C28    H49     1.109   .     S
C29    O74     1.296   .     A
C29    O75     1.294   .     A
C30    N61     1.368   .     A
C30    C501    1.427   1_545 S
C31    N59     1.368   .     A
C31    C266    1.427   .     S
C32    N61     1.371   .     A
C32    C499    1.427   1_545 S
C33    N59     1.371   .     A
C33    C264    1.427   .     S
C34    N66     1.424   .     S
C34    C159    1.387   1_455 S
H39    N67     1.030   .     S
H43    N68     1.031   .     S
H48    N60     1.031   .     S
H58    N66     1.030   .     S
N59    Zn77    2.029   .     S
N61    Zn78    2.029   .     S
O69    Zn77    1.987   .     S
O70    Zn78    1.987   .     S
O71    Zn77    1.999   .     S
O72    Zn78    1.999   .     S
O73    Zn77    2.003   .     S
O74    Zn78    2.003   .     S
O75    Zn77    2.004   .     S
O76    Zn78    2.004   .     S
C79    C97     1.416   .     S
C79    O150    1.289   .     A
C79    O147    1.287   .     A
C80    C96     1.404   .     A
C80    N145    1.425   .     S
C80    C160    1.388   .     S
C81    N146    1.429   .     S
C81    C96     1.403   .     A
C81    C190    1.387   .     S
C82    C97     1.404   .     A
C82    N138    1.429   .     S
C83    C94     1.399   .     A
C83    C87     1.381   .     A
C83    H113    1.083   .     S
C84    C95     1.400   .     A
C84    H124    1.083   .     S
C84    C88     1.378   .     A
C85    C89     1.382   .     A
C85    H130    1.083   .     S
C85    C95     1.401   .     A
C86    C91     1.379   .     A
C86    H131    1.083   .     S
C86    C94     1.400   .     A
C87    C92     1.401   .     A
C87    H132    1.083   .     S
C88    C93     1.396   .     A
C88    H133    1.080   .     S
C89    C93     1.398   .     A
C89    H134    1.084   .     S
C90    O149    1.287   .     A
C90    O148    1.287   .     A
C90    C96     1.414   .     S
C91    C92     1.398   .     A
C91    H135    1.080   .     S
C92    C101    1.443   .     S
C93    C107    1.435   .     S
C94    C797    1.448   1_554 S
C95    C796    1.448   .     S
C97    C112    1.405   .     A
C98    C108    1.440   .     S
C98    N140    1.156   .     T
C99    C109    1.441   .     S
C99    N141    1.156   .     T
C100   C110    1.436   .     S
C100   N142    1.155   .     T
C101   O154    1.298   .     A
C101   O151    1.295   .     A
C102   N143    1.156   .     T
C102   C111    1.439   .     S
C103   H115    1.110   .     S
C103   H116    1.105   .     S
C103   N144    1.445   .     S
C103   H114    1.112   .     S
C104   N145    1.445   .     S
C104   H120    1.110   .     S
C104   H118    1.111   .     S
C104   H119    1.105   .     S
C105   N146    1.450   .     S
C105   H122    1.109   .     S
C105   H123    1.111   .     S
C105   H125    1.113   .     S
C106   H129    1.111   .     S
C106   H128    1.113   .     S
C106   N138    1.450   .     S
C106   H127    1.109   .     S
C107   O152    1.296   .     A
C107   O153    1.294   .     A
C108   N139    1.368   .     A
C108   C579    1.427   1_545 S
C109   N137    1.368   .     A
C109   C344    1.427   .     S
C110   N139    1.371   .     A
C110   C577    1.427   1_545 S
C111   N137    1.371   .     A
C111   C342    1.427   .     S
C112   N144    1.424   .     S
H117   N145    1.030   .     S
H121   N146    1.031   .     S
H126   N138    1.031   .     S
H136   N144    1.030   .     S
N137   Zn155   2.029   .     S
N139   Zn156   2.029   .     S
O147   Zn155   1.987   .     S
O148   Zn156   1.987   .     S
O149   Zn155   1.999   .     S
O150   Zn156   1.999   .     S
O151   Zn155   2.003   .     S
O152   Zn156   2.003   .     S
O153   Zn155   2.004   .     S
O154   Zn156   2.004   .     S
C157   C175    1.416   .     S
C157   O228    1.289   .     A
C157   O225    1.287   .     A
C158   C174    1.404   .     A
C158   N223    1.425   .     S
C158   C4      1.388   1_655 S
C159   N224    1.429   .     S
C159   C174    1.403   .     A
C159   C34     1.387   1_655 S
C160   C175    1.404   .     A
C160   N216    1.429   .     S
C161   C172    1.399   .     A
C161   C165    1.381   .     A
C161   H191    1.083   .     S
C162   C173    1.400   .     A
C162   H202    1.083   .     S
C162   C166    1.378   .     A
C163   C167    1.382   .     A
C163   H208    1.083   .     S
C163   C173    1.401   .     A
C164   C169    1.379   .     A
C164   H209    1.083   .     S
C164   C172    1.400   .     A
C165   C170    1.401   .     A
C165   H210    1.083   .     S
C166   C171    1.396   .     A
C166   H211    1.080   .     S
C167   C171    1.398   .     A
C167   H212    1.084   .     S
C168   O227    1.287   .     A
C168   O226    1.287   .     A
C168   C174    1.414   .     S
C169   C170    1.398   .     A
C169   H213    1.080   .     S
C170   C179    1.443   .     S
C171   C185    1.435   .     S
C172   C875    1.448   1_554 S
C173   C874    1.448   .     S
C175   C190    1.405   .     A
C176   C186    1.440   .     S
C176   N218    1.156   .     T
C177   C187    1.441   .     S
C177   N219    1.156   .     T
C178   C188    1.436   .     S
C178   N220    1.155   .     T
C179   O232    1.298   .     A
C179   O229    1.295   .     A
C180   N221    1.156   .     T
C180   C189    1.439   .     S
C181   H193    1.110   .     S
C181   H194    1.105   .     S
C181   N222    1.445   .     S
C181   H192    1.112   .     S
C182   N223    1.445   .     S
C182   H198    1.110   .     S
C182   H196    1.111   .     S
C182   H197    1.105   .     S
C183   N224    1.450   .     S
C183   H200    1.109   .     S
C183   H201    1.111   .     S
C183   H203    1.113   .     S
C184   H207    1.111   .     S
C184   H206    1.113   .     S
C184   N216    1.450   .     S
C184   H205    1.109   .     S
C185   O230    1.296   .     A
C185   O231    1.294   .     A
C186   N217    1.368   .     A
C186   C657    1.427   1_545 S
C187   N215    1.368   .     A
C187   C422    1.427   .     S
C188   N217    1.371   .     A
C188   C655    1.427   1_545 S
C189   N215    1.371   .     A
C189   C420    1.427   .     S
C190   N222    1.424   .     S
H195   N223    1.030   .     S
H199   N224    1.031   .     S
H204   N216    1.031   .     S
H214   N222    1.030   .     S
N215   Zn233   2.029   .     S
N217   Zn234   2.029   .     S
O225   Zn233   1.987   .     S
O226   Zn234   1.987   .     S
O227   Zn233   1.999   .     S
O228   Zn234   1.999   .     S
O229   Zn233   2.003   .     S
O230   Zn234   2.003   .     S
O231   Zn233   2.004   .     S
O232   Zn234   2.004   .     S
C235   C253    1.416   .     S
C235   O306    1.289   .     A
C235   O303    1.287   .     A
C236   C252    1.404   .     A
C236   N301    1.425   .     S
C236   C316    1.388   .     S
C237   N302    1.429   .     S
C237   C252    1.403   .     A
C237   C346    1.387   .     S
C238   C253    1.404   .     A
C238   N294    1.429   .     S
C238   C392    1.388   1_455 S
C239   C250    1.399   .     A
C239   C243    1.381   .     A
C239   H269    1.083   .     S
C240   C251    1.400   .     A
C240   H280    1.083   .     S
C240   C244    1.378   .     A
C241   C245    1.382   .     A
C241   H286    1.083   .     S
C241   C251    1.401   .     A
C242   C247    1.379   .     A
C242   H287    1.083   .     S
C242   C250    1.400   .     A
C243   C248    1.401   .     A
C243   H288    1.083   .     S
C244   C249    1.396   .     A
C244   H289    1.080   .     S
C245   C249    1.398   .     A
C245   H290    1.084   .     S
C246   O305    1.287   .     A
C246   O304    1.287   .     A
C246   C252    1.414   .     S
C247   C248    1.398   .     A
C247   H291    1.080   .     S
C248   C257    1.443   .     S
C249   C263    1.435   .     S
C250   C953    1.448   1_554 S
C251   C952    1.448   .     S
C253   C268    1.405   .     A
C254   C264    1.440   .     S
C254   N296    1.156   .     T
C255   C265    1.441   .     S
C255   N297    1.156   .     T
C256   C266    1.436   .     S
C256   N298    1.155   .     T
C257   O310    1.298   .     A
C257   O307    1.295   .     A
C258   N299    1.156   .     T
C258   C267    1.439   .     S
C259   H271    1.110   .     S
C259   H272    1.105   .     S
C259   N300    1.445   .     S
C259   H270    1.112   .     S
C260   N301    1.445   .     S
C260   H276    1.110   .     S
C260   H274    1.111   .     S
C260   H275    1.105   .     S
C261   N302    1.450   .     S
C261   H278    1.109   .     S
C261   H279    1.111   .     S
C261   H281    1.113   .     S
C262   H285    1.111   .     S
C262   H284    1.113   .     S
C262   N294    1.450   .     S
C262   H283    1.109   .     S
C263   O308    1.296   .     A
C263   O309    1.294   .     A
C264   N295    1.368   .     A
C265   N293    1.368   .     A
C265   C500    1.427   .     S
C266   N295    1.371   .     A
C267   N293    1.371   .     A
C267   C498    1.427   .     S
C268   N300    1.424   .     S
C268   C393    1.387   1_455 S
H273   N301    1.030   .     S
H277   N302    1.031   .     S
H282   N294    1.031   .     S
H292   N300    1.030   .     S
N293   Zn311   2.029   .     S
N295   Zn312   2.029   .     S
O303   Zn311   1.987   .     S
O304   Zn312   1.987   .     S
O305   Zn311   1.999   .     S
O306   Zn312   1.999   .     S
O307   Zn311   2.003   .     S
O308   Zn312   2.003   .     S
O309   Zn311   2.004   .     S
O310   Zn312   2.004   .     S
C313   C331    1.416   .     S
C313   O384    1.289   .     A
C313   O381    1.287   .     A
C314   C330    1.404   .     A
C314   N379    1.425   .     S
C314   C394    1.388   .     S
C315   N380    1.429   .     S
C315   C330    1.403   .     A
C315   C424    1.387   .     S
C316   C331    1.404   .     A
C316   N372    1.429   .     S
C317   C328    1.399   .     A
C317   C321    1.381   .     A
C317   H347    1.083   .     S
C318   C329    1.400   .     A
C318   H358    1.083   .     S
C318   C322    1.378   .     A
C319   C323    1.382   .     A
C319   H364    1.083   .     S
C319   C329    1.401   .     A
C320   C325    1.379   .     A
C320   H365    1.083   .     S
C320   C328    1.400   .     A
C321   C326    1.401   .     A
C321   H366    1.083   .     S
C322   C327    1.396   .     A
C322   H367    1.080   .     S
C323   C327    1.398   .     A
C323   H368    1.084   .     S
C324   O383    1.287   .     A
C324   O382    1.287   .     A
C324   C330    1.414   .     S
C325   C326    1.398   .     A
C325   H369    1.080   .     S
C326   C335    1.443   .     S
C327   C341    1.435   .     S
C328   C1031   1.448   1_554 S
C329   C1030   1.448   .     S
C331   C346    1.405   .     A
C332   C342    1.440   .     S
C332   N374    1.156   .     T
C333   C343    1.441   .     S
C333   N375    1.156   .     T
C334   C344    1.436   .     S
C334   N376    1.155   .     T
C335   O388    1.298   .     A
C335   O385    1.295   .     A
C336   N377    1.156   .     T
C336   C345    1.439   .     S
C337   H349    1.110   .     S
C337   H350    1.105   .     S
C337   N378    1.445   .     S
C337   H348    1.112   .     S
C338   N379    1.445   .     S
C338   H354    1.110   .     S
C338   H352    1.111   .     S
C338   H353    1.105   .     S
C339   N380    1.450   .     S
C339   H356    1.109   .     S
C339   H357    1.111   .     S
C339   H359    1.113   .     S
C340   H363    1.111   .     S
C340   H362    1.113   .     S
C340   N372    1.450   .     S
C340   H361    1.109   .     S
C341   O386    1.296   .     A
C341   O387    1.294   .     A
C342   N373    1.368   .     A
C343   N371    1.368   .     A
C343   C578    1.427   .     S
C344   N373    1.371   .     A
C345   N371    1.371   .     A
C345   C576    1.427   .     S
C346   N378    1.424   .     S
H351   N379    1.030   .     S
H355   N380    1.031   .     S
H360   N372    1.031   .     S
H370   N378    1.030   .     S
N371   Zn389   2.029   .     S
N373   Zn390   2.029   .     S
O381   Zn389   1.987   .     S
O382   Zn390   1.987   .     S
O383   Zn389   1.999   .     S
O384   Zn390   1.999   .     S
O385   Zn389   2.003   .     S
O386   Zn390   2.003   .     S
O387   Zn389   2.004   .     S
O388   Zn390   2.004   .     S
C391   C409    1.416   .     S
C391   O462    1.289   .     A
C391   O459    1.287   .     A
C392   C408    1.404   .     A
C392   N457    1.425   .     S
C392   C238    1.388   1_655 S
C393   N458    1.429   .     S
C393   C408    1.403   .     A
C393   C268    1.387   1_655 S
C394   C409    1.404   .     A
C394   N450    1.429   .     S
C395   C406    1.399   .     A
C395   C399    1.381   .     A
C395   H425    1.083   .     S
C396   C407    1.400   .     A
C396   H436    1.083   .     S
C396   C400    1.378   .     A
C397   C401    1.382   .     A
C397   H442    1.083   .     S
C397   C407    1.401   .     A
C398   C403    1.379   .     A
C398   H443    1.083   .     S
C398   C406    1.400   .     A
C399   C404    1.401   .     A
C399   H444    1.083   .     S
C400   C405    1.396   .     A
C400   H445    1.080   .     S
C401   C405    1.398   .     A
C401   H446    1.084   .     S
C402   O461    1.287   .     A
C402   O460    1.287   .     A
C402   C408    1.414   .     S
C403   C404    1.398   .     A
C403   H447    1.080   .     S
C404   C413    1.443   .     S
C405   C419    1.435   .     S
C406   C1109   1.448   1_554 S
C407   C1108   1.448   .     S
C409   C424    1.405   .     A
C410   C420    1.440   .     S
C410   N452    1.156   .     T
C411   C421    1.441   .     S
C411   N453    1.156   .     T
C412   C422    1.436   .     S
C412   N454    1.155   .     T
C413   O466    1.298   .     A
C413   O463    1.295   .     A
C414   N455    1.156   .     T
C414   C423    1.439   .     S
C415   H427    1.110   .     S
C415   H428    1.105   .     S
C415   N456    1.445   .     S
C415   H426    1.112   .     S
C416   N457    1.445   .     S
C416   H432    1.110   .     S
C416   H430    1.111   .     S
C416   H431    1.105   .     S
C417   N458    1.450   .     S
C417   H434    1.109   .     S
C417   H435    1.111   .     S
C417   H437    1.113   .     S
C418   H441    1.111   .     S
C418   H440    1.113   .     S
C418   N450    1.450   .     S
C418   H439    1.109   .     S
C419   O464    1.296   .     A
C419   O465    1.294   .     A
C420   N451    1.368   .     A
C421   N449    1.368   .     A
C421   C656    1.427   .     S
C422   N451    1.371   .     A
C423   N449    1.371   .     A
C423   C654    1.427   .     S
C424   N456    1.424   .     S
H429   N457    1.030   .     S
H433   N458    1.031   .     S
H438   N450    1.031   .     S
H448   N456    1.030   .     S
N449   Zn467   2.029   .     S
N451   Zn468   2.029   .     S
O459   Zn467   1.987   .     S
O460   Zn468   1.987   .     S
O461   Zn467   1.999   .     S
O462   Zn468   1.999   .     S
O463   Zn467   2.003   .     S
O464   Zn468   2.003   .     S
O465   Zn467   2.004   .     S
O466   Zn468   2.004   .     S
C469   C487    1.416   .     S
C469   O540    1.289   .     A
C469   O537    1.287   .     A
C470   C486    1.404   .     A
C470   N535    1.425   .     S
C470   C550    1.388   .     S
C471   N536    1.429   .     S
C471   C486    1.403   .     A
C471   C580    1.387   .     S
C472   C487    1.404   .     A
C472   N528    1.429   .     S
C472   C626    1.388   1_455 S
C473   C484    1.399   .     A
C473   C477    1.381   .     A
C473   H503    1.083   .     S
C474   C485    1.400   .     A
C474   H514    1.083   .     S
C474   C478    1.378   .     A
C475   C479    1.382   .     A
C475   H520    1.083   .     S
C475   C485    1.401   .     A
C476   C481    1.379   .     A
C476   H521    1.083   .     S
C476   C484    1.400   .     A
C477   C482    1.401   .     A
C477   H522    1.083   .     S
C478   C483    1.396   .     A
C478   H523    1.080   .     S
C479   C483    1.398   .     A
C479   H524    1.084   .     S
C480   O539    1.287   .     A
C480   O538    1.287   .     A
C480   C486    1.414   .     S
C481   C482    1.398   .     A
C481   H525    1.080   .     S
C482   C491    1.443   .     S
C483   C497    1.435   .     S
C484   C1187   1.448   1_554 S
C485   C1186   1.448   .     S
C487   C502    1.405   .     A
C488   C498    1.440   .     S
C488   N530    1.156   .     T
C489   C499    1.441   .     S
C489   N531    1.156   .     T
C490   C500    1.436   .     S
C490   N532    1.155   .     T
C491   O544    1.298   .     A
C491   O541    1.295   .     A
C492   N533    1.156   .     T
C492   C501    1.439   .     S
C493   H505    1.110   .     S
C493   H506    1.105   .     S
C493   N534    1.445   .     S
C493   H504    1.112   .     S
C494   N535    1.445   .     S
C494   H510    1.110   .     S
C494   H508    1.111   .     S
C494   H509    1.105   .     S
C495   N536    1.450   .     S
C495   H512    1.109   .     S
C495   H513    1.111   .     S
C495   H515    1.113   .     S
C496   H519    1.111   .     S
C496   H518    1.113   .     S
C496   N528    1.450   .     S
C496   H517    1.109   .     S
C497   O542    1.296   .     A
C497   O543    1.294   .     A
C498   N529    1.368   .     A
C499   N527    1.368   .     A
C499   C32     1.427   1_565 S
C500   N529    1.371   .     A
C501   N527    1.371   .     A
C501   C30     1.427   1_565 S
C502   N534    1.424   .     S
C502   C627    1.387   1_455 S
H507   N535    1.030   .     S
H511   N536    1.031   .     S
H516   N528    1.031   .     S
H526   N534    1.030   .     S
N527   Zn545   2.029   .     S
N529   Zn546   2.029   .     S
O537   Zn545   1.987   .     S
O538   Zn546   1.987   .     S
O539   Zn545   1.999   .     S
O540   Zn546   1.999   .     S
O541   Zn545   2.003   .     S
O542   Zn546   2.003   .     S
O543   Zn545   2.004   .     S
O544   Zn546   2.004   .     S
C547   C565    1.416   .     S
C547   O618    1.289   .     A
C547   O615    1.287   .     A
C548   C564    1.404   .     A
C548   N613    1.425   .     S
C548   C628    1.388   .     S
C549   N614    1.429   .     S
C549   C564    1.403   .     A
C549   C658    1.387   .     S
C550   C565    1.404   .     A
C550   N606    1.429   .     S
C551   C562    1.399   .     A
C551   C555    1.381   .     A
C551   H581    1.083   .     S
C552   C563    1.400   .     A
C552   H592    1.083   .     S
C552   C556    1.378   .     A
C553   C557    1.382   .     A
C553   H598    1.083   .     S
C553   C563    1.401   .     A
C554   C559    1.379   .     A
C554   H599    1.083   .     S
C554   C562    1.400   .     A
C555   C560    1.401   .     A
C555   H600    1.083   .     S
C556   C561    1.396   .     A
C556   H601    1.080   .     S
C557   C561    1.398   .     A
C557   H602    1.084   .     S
C558   O617    1.287   .     A
C558   O616    1.287   .     A
C558   C564    1.414   .     S
C559   C560    1.398   .     A
C559   H603    1.080   .     S
C560   C569    1.443   .     S
C561   C575    1.435   .     S
C562   C1265   1.448   1_554 S
C563   C1264   1.448   .     S
C565   C580    1.405   .     A
C566   C576    1.440   .     S
C566   N608    1.156   .     T
C567   C577    1.441   .     S
C567   N609    1.156   .     T
C568   C578    1.436   .     S
C568   N610    1.155   .     T
C569   O622    1.298   .     A
C569   O619    1.295   .     A
C570   N611    1.156   .     T
C570   C579    1.439   .     S
C571   H583    1.110   .     S
C571   H584    1.105   .     S
C571   N612    1.445   .     S
C571   H582    1.112   .     S
C572   N613    1.445   .     S
C572   H588    1.110   .     S
C572   H586    1.111   .     S
C572   H587    1.105   .     S
C573   N614    1.450   .     S
C573   H590    1.109   .     S
C573   H591    1.111   .     S
C573   H593    1.113   .     S
C574   H597    1.111   .     S
C574   H596    1.113   .     S
C574   N606    1.450   .     S
C574   H595    1.109   .     S
C575   O620    1.296   .     A
C575   O621    1.294   .     A
C576   N607    1.368   .     A
C577   N605    1.368   .     A
C577   C110    1.427   1_565 S
C578   N607    1.371   .     A
C579   N605    1.371   .     A
C579   C108    1.427   1_565 S
C580   N612    1.424   .     S
H585   N613    1.030   .     S
H589   N614    1.031   .     S
H594   N606    1.031   .     S
H604   N612    1.030   .     S
N605   Zn623   2.029   .     S
N607   Zn624   2.029   .     S
O615   Zn623   1.987   .     S
O616   Zn624   1.987   .     S
O617   Zn623   1.999   .     S
O618   Zn624   1.999   .     S
O619   Zn623   2.003   .     S
O620   Zn624   2.003   .     S
O621   Zn623   2.004   .     S
O622   Zn624   2.004   .     S
C625   C643    1.416   .     S
C625   O696    1.289   .     A
C625   O693    1.287   .     A
C626   C642    1.404   .     A
C626   N691    1.425   .     S
C626   C472    1.388   1_655 S
C627   N692    1.429   .     S
C627   C642    1.403   .     A
C627   C502    1.387   1_655 S
C628   C643    1.404   .     A
C628   N684    1.429   .     S
C629   C640    1.399   .     A
C629   C633    1.381   .     A
C629   H659    1.083   .     S
C630   C641    1.400   .     A
C630   H670    1.083   .     S
C630   C634    1.378   .     A
C631   C635    1.382   .     A
C631   H676    1.083   .     S
C631   C641    1.401   .     A
C632   C637    1.379   .     A
C632   H677    1.083   .     S
C632   C640    1.400   .     A
C633   C638    1.401   .     A
C633   H678    1.083   .     S
C634   C639    1.396   .     A
C634   H679    1.080   .     S
C635   C639    1.398   .     A
C635   H680    1.084   .     S
C636   O695    1.287   .     A
C636   O694    1.287   .     A
C636   C642    1.414   .     S
C637   C638    1.398   .     A
C637   H681    1.080   .     S
C638   C647    1.443   .     S
C639   C653    1.435   .     S
C640   C1343   1.448   1_554 S
C641   C1342   1.448   .     S
C643   C658    1.405   .     A
C644   C654    1.440   .     S
C644   N686    1.156   .     T
C645   C655    1.441   .     S
C645   N687    1.156   .     T
C646   C656    1.436   .     S
C646   N688    1.155   .     T
C647   O700    1.298   .     A
C647   O697    1.295   .     A
C648   N689    1.156   .     T
C648   C657    1.439   .     S
C649   H661    1.110   .     S
C649   H662    1.105   .     S
C649   N690    1.445   .     S
C649   H660    1.112   .     S
C650   N691    1.445   .     S
C650   H666    1.110   .     S
C650   H664    1.111   .     S
C650   H665    1.105   .     S
C651   N692    1.450   .     S
C651   H668    1.109   .     S
C651   H669    1.111   .     S
C651   H671    1.113   .     S
C652   H675    1.111   .     S
C652   H674    1.113   .     S
C652   N684    1.450   .     S
C652   H673    1.109   .     S
C653   O698    1.296   .     A
C653   O699    1.294   .     A
C654   N685    1.368   .     A
C655   N683    1.368   .     A
C655   C188    1.427   1_565 S
C656   N685    1.371   .     A
C657   N683    1.371   .     A
C657   C186    1.427   1_565 S
C658   N690    1.424   .     S
H663   N691    1.030   .     S
H667   N692    1.031   .     S
H672   N684    1.031   .     S
H682   N690    1.030   .     S
N683   Zn701   2.029   .     S
N685   Zn702   2.029   .     S
O693   Zn701   1.987   .     S
O694   Zn702   1.987   .     S
O695   Zn701   1.999   .     S
O696   Zn702   1.999   .     S
O697   Zn701   2.003   .     S
O698   Zn702   2.003   .     S
O699   Zn701   2.004   .     S
O700   Zn702   2.004   .     S
C703   C721    1.416   .     S
C703   O774    1.289   .     A
C703   O771    1.287   .     A
C704   C720    1.404   .     A
C704   N769    1.425   .     S
C704   C784    1.388   .     S
C705   N770    1.429   .     S
C705   C720    1.403   .     A
C705   C814    1.387   .     S
C706   C721    1.404   .     A
C706   N762    1.429   .     S
C706   C860    1.388   1_455 S
C707   C718    1.399   .     A
C707   C711    1.381   .     A
C707   H737    1.083   .     S
C708   C719    1.400   .     A
C708   H748    1.083   .     S
C708   C712    1.378   .     A
C709   C713    1.382   .     A
C709   H754    1.083   .     S
C709   C719    1.401   .     A
C710   C715    1.379   .     A
C710   H755    1.083   .     S
C710   C718    1.400   .     A
C711   C716    1.401   .     A
C711   H756    1.083   .     S
C712   C717    1.396   .     A
C712   H757    1.080   .     S
C713   C717    1.398   .     A
C713   H758    1.084   .     S
C714   O773    1.287   .     A
C714   O772    1.287   .     A
C714   C720    1.414   .     S
C715   C716    1.398   .     A
C715   H759    1.080   .     S
C716   C725    1.443   .     S
C717   C731    1.435   .     S
C719   C16     1.448   1_556 S
C721   C736    1.405   .     A
C722   C732    1.440   .     S
C722   N764    1.156   .     T
C723   C733    1.441   .     S
C723   N765    1.156   .     T
C724   C734    1.436   .     S
C724   N766    1.155   .     T
C725   O778    1.298   .     A
C725   O775    1.295   .     A
C726   N767    1.156   .     T
C726   C735    1.439   .     S
C727   H739    1.110   .     S
C727   H740    1.105   .     S
C727   N768    1.445   .     S
C727   H738    1.112   .     S
C728   N769    1.445   .     S
C728   H744    1.110   .     S
C728   H742    1.111   .     S
C728   H743    1.105   .     S
C729   N770    1.450   .     S
C729   H746    1.109   .     S
C729   H747    1.111   .     S
C729   H749    1.113   .     S
C730   H753    1.111   .     S
C730   H752    1.113   .     S
C730   N762    1.450   .     S
C730   H751    1.109   .     S
C731   O776    1.296   .     A
C731   O777    1.294   .     A
C732   N763    1.368   .     A
C732   C1203   1.427   1_545 S
C733   N761    1.368   .     A
C733   C968    1.427   .     S
C734   N763    1.371   .     A
C734   C1201   1.427   1_545 S
C735   N761    1.371   .     A
C735   C966    1.427   .     S
C736   N768    1.424   .     S
C736   C861    1.387   1_455 S
H741   N769    1.030   .     S
H745   N770    1.031   .     S
H750   N762    1.031   .     S
H760   N768    1.030   .     S
N761   Zn779   2.029   .     S
N763   Zn780   2.029   .     S
O771   Zn779   1.987   .     S
O772   Zn780   1.987   .     S
O773   Zn779   1.999   .     S
O774   Zn780   1.999   .     S
O775   Zn779   2.003   .     S
O776   Zn780   2.003   .     S
O777   Zn779   2.004   .     S
O778   Zn780   2.004   .     S
C781   C799    1.416   .     S
C781   O852    1.289   .     A
C781   O849    1.287   .     A
C782   C798    1.404   .     A
C782   N847    1.425   .     S
C782   C862    1.388   .     S
C783   N848    1.429   .     S
C783   C798    1.403   .     A
C783   C892    1.387   .     S
C784   C799    1.404   .     A
C784   N840    1.429   .     S
C785   C796    1.399   .     A
C785   C789    1.381   .     A
C785   H815    1.083   .     S
C786   C797    1.400   .     A
C786   H826    1.083   .     S
C786   C790    1.378   .     A
C787   C791    1.382   .     A
C787   H832    1.083   .     S
C787   C797    1.401   .     A
C788   C793    1.379   .     A
C788   H833    1.083   .     S
C788   C796    1.400   .     A
C789   C794    1.401   .     A
C789   H834    1.083   .     S
C790   C795    1.396   .     A
C790   H835    1.080   .     S
C791   C795    1.398   .     A
C791   H836    1.084   .     S
C792   O851    1.287   .     A
C792   O850    1.287   .     A
C792   C798    1.414   .     S
C793   C794    1.398   .     A
C793   H837    1.080   .     S
C794   C803    1.443   .     S
C795   C809    1.435   .     S
C797   C94     1.448   1_556 S
C799   C814    1.405   .     A
C800   C810    1.440   .     S
C800   N842    1.156   .     T
C801   C811    1.441   .     S
C801   N843    1.156   .     T
C802   C812    1.436   .     S
C802   N844    1.155   .     T
C803   O856    1.298   .     A
C803   O853    1.295   .     A
C804   N845    1.156   .     T
C804   C813    1.439   .     S
C805   H817    1.110   .     S
C805   H818    1.105   .     S
C805   N846    1.445   .     S
C805   H816    1.112   .     S
C806   N847    1.445   .     S
C806   H822    1.110   .     S
C806   H820    1.111   .     S
C806   H821    1.105   .     S
C807   N848    1.450   .     S
C807   H824    1.109   .     S
C807   H825    1.111   .     S
C807   H827    1.113   .     S
C808   H831    1.111   .     S
C808   H830    1.113   .     S
C808   N840    1.450   .     S
C808   H829    1.109   .     S
C809   O854    1.296   .     A
C809   O855    1.294   .     A
C810   N841    1.368   .     A
C810   C1281   1.427   1_545 S
C811   N839    1.368   .     A
C811   C1046   1.427   .     S
C812   N841    1.371   .     A
C812   C1279   1.427   1_545 S
C813   N839    1.371   .     A
C813   C1044   1.427   .     S
C814   N846    1.424   .     S
H819   N847    1.030   .     S
H823   N848    1.031   .     S
H828   N840    1.031   .     S
H838   N846    1.030   .     S
N839   Zn857   2.029   .     S
N841   Zn858   2.029   .     S
O849   Zn857   1.987   .     S
O850   Zn858   1.987   .     S
O851   Zn857   1.999   .     S
O852   Zn858   1.999   .     S
O853   Zn857   2.003   .     S
O854   Zn858   2.003   .     S
O855   Zn857   2.004   .     S
O856   Zn858   2.004   .     S
C859   C877    1.416   .     S
C859   O930    1.289   .     A
C859   O927    1.287   .     A
C860   C876    1.404   .     A
C860   N925    1.425   .     S
C860   C706    1.388   1_655 S
C861   N926    1.429   .     S
C861   C876    1.403   .     A
C861   C736    1.387   1_655 S
C862   C877    1.404   .     A
C862   N918    1.429   .     S
C863   C874    1.399   .     A
C863   C867    1.381   .     A
C863   H893    1.083   .     S
C864   C875    1.400   .     A
C864   H904    1.083   .     S
C864   C868    1.378   .     A
C865   C869    1.382   .     A
C865   H910    1.083   .     S
C865   C875    1.401   .     A
C866   C871    1.379   .     A
C866   H911    1.083   .     S
C866   C874    1.400   .     A
C867   C872    1.401   .     A
C867   H912    1.083   .     S
C868   C873    1.396   .     A
C868   H913    1.080   .     S
C869   C873    1.398   .     A
C869   H914    1.084   .     S
C870   O929    1.287   .     A
C870   O928    1.287   .     A
C870   C876    1.414   .     S
C871   C872    1.398   .     A
C871   H915    1.080   .     S
C872   C881    1.443   .     S
C873   C887    1.435   .     S
C875   C172    1.448   1_556 S
C877   C892    1.405   .     A
C878   C888    1.440   .     S
C878   N920    1.156   .     T
C879   C889    1.441   .     S
C879   N921    1.156   .     T
C880   C890    1.436   .     S
C880   N922    1.155   .     T
C881   O934    1.298   .     A
C881   O931    1.295   .     A
C882   N923    1.156   .     T
C882   C891    1.439   .     S
C883   H895    1.110   .     S
C883   H896    1.105   .     S
C883   N924    1.445   .     S
C883   H894    1.112   .     S
C884   N925    1.445   .     S
C884   H900    1.110   .     S
C884   H898    1.111   .     S
C884   H899    1.105   .     S
C885   N926    1.450   .     S
C885   H902    1.109   .     S
C885   H903    1.111   .     S
C885   H905    1.113   .     S
C886   H909    1.111   .     S
C886   H908    1.113   .     S
C886   N918    1.450   .     S
C886   H907    1.109   .     S
C887   O932    1.296   .     A
C887   O933    1.294   .     A
C888   N919    1.368   .     A
C888   C1359   1.427   1_545 S
C889   N917    1.368   .     A
C889   C1124   1.427   .     S
C890   N919    1.371   .     A
C890   C1357   1.427   1_545 S
C891   N917    1.371   .     A
C891   C1122   1.427   .     S
C892   N924    1.424   .     S
H897   N925    1.030   .     S
H901   N926    1.031   .     S
H906   N918    1.031   .     S
H916   N924    1.030   .     S
N917   Zn935   2.029   .     S
N919   Zn936   2.029   .     S
O927   Zn935   1.987   .     S
O928   Zn936   1.987   .     S
O929   Zn935   1.999   .     S
O930   Zn936   1.999   .     S
O931   Zn935   2.003   .     S
O932   Zn936   2.003   .     S
O933   Zn935   2.004   .     S
O934   Zn936   2.004   .     S
C937   C955    1.416   .     S
C937   O1008   1.289   .     A
C937   O1005   1.287   .     A
C938   C954    1.404   .     A
C938   N1003   1.425   .     S
C938   C1018   1.388   .     S
C939   N1004   1.429   .     S
C939   C954    1.403   .     A
C939   C1048   1.387   .     S
C940   C955    1.404   .     A
C940   N996    1.429   .     S
C940   C1094   1.388   1_455 S
C941   C952    1.399   .     A
C941   C945    1.381   .     A
C941   H971    1.083   .     S
C942   C953    1.400   .     A
C942   H982    1.083   .     S
C942   C946    1.378   .     A
C943   C947    1.382   .     A
C943   H988    1.083   .     S
C943   C953    1.401   .     A
C944   C949    1.379   .     A
C944   H989    1.083   .     S
C944   C952    1.400   .     A
C945   C950    1.401   .     A
C945   H990    1.083   .     S
C946   C951    1.396   .     A
C946   H991    1.080   .     S
C947   C951    1.398   .     A
C947   H992    1.084   .     S
C948   O1007   1.287   .     A
C948   O1006   1.287   .     A
C948   C954    1.414   .     S
C949   C950    1.398   .     A
C949   H993    1.080   .     S
C950   C959    1.443   .     S
C951   C965    1.435   .     S
C953   C250    1.448   1_556 S
C955   C970    1.405   .     A
C956   C966    1.440   .     S
C956   N998    1.156   .     T
C957   C967    1.441   .     S
C957   N999    1.156   .     T
C958   C968    1.436   .     S
C958   N1000   1.155   .     T
C959   O1012   1.298   .     A
C959   O1009   1.295   .     A
C960   N1001   1.156   .     T
C960   C969    1.439   .     S
C961   H973    1.110   .     S
C961   H974    1.105   .     S
C961   N1002   1.445   .     S
C961   H972    1.112   .     S
C962   N1003   1.445   .     S
C962   H978    1.110   .     S
C962   H976    1.111   .     S
C962   H977    1.105   .     S
C963   N1004   1.450   .     S
C963   H980    1.109   .     S
C963   H981    1.111   .     S
C963   H983    1.113   .     S
C964   H987    1.111   .     S
C964   H986    1.113   .     S
C964   N996    1.450   .     S
C964   H985    1.109   .     S
C965   O1010   1.296   .     A
C965   O1011   1.294   .     A
C966   N997    1.368   .     A
C967   N995    1.368   .     A
C967   C1202   1.427   .     S
C968   N997    1.371   .     A
C969   N995    1.371   .     A
C969   C1200   1.427   .     S
C970   N1002   1.424   .     S
C970   C1095   1.387   1_455 S
H975   N1003   1.030   .     S
H979   N1004   1.031   .     S
H984   N996    1.031   .     S
H994   N1002   1.030   .     S
N995   Zn1013  2.029   .     S
N997   Zn1014  2.029   .     S
O1005  Zn1013  1.987   .     S
O1006  Zn1014  1.987   .     S
O1007  Zn1013  1.999   .     S
O1008  Zn1014  1.999   .     S
O1009  Zn1013  2.003   .     S
O1010  Zn1014  2.003   .     S
O1011  Zn1013  2.004   .     S
O1012  Zn1014  2.004   .     S
C1015  C1033   1.416   .     S
C1015  O1086   1.289   .     A
C1015  O1083   1.287   .     A
C1016  C1032   1.404   .     A
C1016  N1081   1.425   .     S
C1016  C1096   1.388   .     S
C1017  N1082   1.429   .     S
C1017  C1032   1.403   .     A
C1017  C1126   1.387   .     S
C1018  C1033   1.404   .     A
C1018  N1074   1.429   .     S
C1019  C1030   1.399   .     A
C1019  C1023   1.381   .     A
C1019  H1049   1.083   .     S
C1020  C1031   1.400   .     A
C1020  H1060   1.083   .     S
C1020  C1024   1.378   .     A
C1021  C1025   1.382   .     A
C1021  H1066   1.083   .     S
C1021  C1031   1.401   .     A
C1022  C1027   1.379   .     A
C1022  H1067   1.083   .     S
C1022  C1030   1.400   .     A
C1023  C1028   1.401   .     A
C1023  H1068   1.083   .     S
C1024  C1029   1.396   .     A
C1024  H1069   1.080   .     S
C1025  C1029   1.398   .     A
C1025  H1070   1.084   .     S
C1026  O1085   1.287   .     A
C1026  O1084   1.287   .     A
C1026  C1032   1.414   .     S
C1027  C1028   1.398   .     A
C1027  H1071   1.080   .     S
C1028  C1037   1.443   .     S
C1029  C1043   1.435   .     S
C1031  C328    1.448   1_556 S
C1033  C1048   1.405   .     A
C1034  C1044   1.440   .     S
C1034  N1076   1.156   .     T
C1035  C1045   1.441   .     S
C1035  N1077   1.156   .     T
C1036  C1046   1.436   .     S
C1036  N1078   1.155   .     T
C1037  O1090   1.298   .     A
C1037  O1087   1.295   .     A
C1038  N1079   1.156   .     T
C1038  C1047   1.439   .     S
C1039  H1051   1.110   .     S
C1039  H1052   1.105   .     S
C1039  N1080   1.445   .     S
C1039  H1050   1.112   .     S
C1040  N1081   1.445   .     S
C1040  H1056   1.110   .     S
C1040  H1054   1.111   .     S
C1040  H1055   1.105   .     S
C1041  N1082   1.450   .     S
C1041  H1058   1.109   .     S
C1041  H1059   1.111   .     S
C1041  H1061   1.113   .     S
C1042  H1065   1.111   .     S
C1042  H1064   1.113   .     S
C1042  N1074   1.450   .     S
C1042  H1063   1.109   .     S
C1043  O1088   1.296   .     A
C1043  O1089   1.294   .     A
C1044  N1075   1.368   .     A
C1045  N1073   1.368   .     A
C1045  C1280   1.427   .     S
C1046  N1075   1.371   .     A
C1047  N1073   1.371   .     A
C1047  C1278   1.427   .     S
C1048  N1080   1.424   .     S
H1053  N1081   1.030   .     S
H1057  N1082   1.031   .     S
H1062  N1074   1.031   .     S
H1072  N1080   1.030   .     S
N1073  Zn1091  2.029   .     S
N1075  Zn1092  2.029   .     S
O1083  Zn1091  1.987   .     S
O1084  Zn1092  1.987   .     S
O1085  Zn1091  1.999   .     S
O1086  Zn1092  1.999   .     S
O1087  Zn1091  2.003   .     S
O1088  Zn1092  2.003   .     S
O1089  Zn1091  2.004   .     S
O1090  Zn1092  2.004   .     S
C1093  C1111   1.416   .     S
C1093  O1164   1.289   .     A
C1093  O1161   1.287   .     A
C1094  C1110   1.404   .     A
C1094  N1159   1.425   .     S
C1094  C940    1.388   1_655 S
C1095  N1160   1.429   .     S
C1095  C1110   1.403   .     A
C1095  C970    1.387   1_655 S
C1096  C1111   1.404   .     A
C1096  N1152   1.429   .     S
C1097  C1108   1.399   .     A
C1097  C1101   1.381   .     A
C1097  H1127   1.083   .     S
C1098  C1109   1.400   .     A
C1098  H1138   1.083   .     S
C1098  C1102   1.378   .     A
C1099  C1103   1.382   .     A
C1099  H1144   1.083   .     S
C1099  C1109   1.401   .     A
C1100  C1105   1.379   .     A
C1100  H1145   1.083   .     S
C1100  C1108   1.400   .     A
C1101  C1106   1.401   .     A
C1101  H1146   1.083   .     S
C1102  C1107   1.396   .     A
C1102  H1147   1.080   .     S
C1103  C1107   1.398   .     A
C1103  H1148   1.084   .     S
C1104  O1163   1.287   .     A
C1104  O1162   1.287   .     A
C1104  C1110   1.414   .     S
C1105  C1106   1.398   .     A
C1105  H1149   1.080   .     S
C1106  C1115   1.443   .     S
C1107  C1121   1.435   .     S
C1109  C406    1.448   1_556 S
C1111  C1126   1.405   .     A
C1112  C1122   1.440   .     S
C1112  N1154   1.156   .     T
C1113  C1123   1.441   .     S
C1113  N1155   1.156   .     T
C1114  C1124   1.436   .     S
C1114  N1156   1.155   .     T
C1115  O1168   1.298   .     A
C1115  O1165   1.295   .     A
C1116  N1157   1.156   .     T
C1116  C1125   1.439   .     S
C1117  H1129   1.110   .     S
C1117  H1130   1.105   .     S
C1117  N1158   1.445   .     S
C1117  H1128   1.112   .     S
C1118  N1159   1.445   .     S
C1118  H1134   1.110   .     S
C1118  H1132   1.111   .     S
C1118  H1133   1.105   .     S
C1119  N1160   1.450   .     S
C1119  H1136   1.109   .     S
C1119  H1137   1.111   .     S
C1119  H1139   1.113   .     S
C1120  H1143   1.111   .     S
C1120  H1142   1.113   .     S
C1120  N1152   1.450   .     S
C1120  H1141   1.109   .     S
C1121  O1166   1.296   .     A
C1121  O1167   1.294   .     A
C1122  N1153   1.368   .     A
C1123  N1151   1.368   .     A
C1123  C1358   1.427   .     S
C1124  N1153   1.371   .     A
C1125  N1151   1.371   .     A
C1125  C1356   1.427   .     S
C1126  N1158   1.424   .     S
H1131  N1159   1.030   .     S
H1135  N1160   1.031   .     S
H1140  N1152   1.031   .     S
H1150  N1158   1.030   .     S
N1151  Zn1169  2.029   .     S
N1153  Zn1170  2.029   .     S
O1161  Zn1169  1.987   .     S
O1162  Zn1170  1.987   .     S
O1163  Zn1169  1.999   .     S
O1164  Zn1170  1.999   .     S
O1165  Zn1169  2.003   .     S
O1166  Zn1170  2.003   .     S
O1167  Zn1169  2.004   .     S
O1168  Zn1170  2.004   .     S
C1171  C1189   1.416   .     S
C1171  O1242   1.289   .     A
C1171  O1239   1.287   .     A
C1172  C1188   1.404   .     A
C1172  N1237   1.425   .     S
C1172  C1252   1.388   .     S
C1173  N1238   1.429   .     S
C1173  C1188   1.403   .     A
C1173  C1282   1.387   .     S
C1174  C1189   1.404   .     A
C1174  N1230   1.429   .     S
C1174  C1328   1.388   1_455 S
C1175  C1186   1.399   .     A
C1175  C1179   1.381   .     A
C1175  H1205   1.083   .     S
C1176  C1187   1.400   .     A
C1176  H1216   1.083   .     S
C1176  C1180   1.378   .     A
C1177  C1181   1.382   .     A
C1177  H1222   1.083   .     S
C1177  C1187   1.401   .     A
C1178  C1183   1.379   .     A
C1178  H1223   1.083   .     S
C1178  C1186   1.400   .     A
C1179  C1184   1.401   .     A
C1179  H1224   1.083   .     S
C1180  C1185   1.396   .     A
C1180  H1225   1.080   .     S
C1181  C1185   1.398   .     A
C1181  H1226   1.084   .     S
C1182  O1241   1.287   .     A
C1182  O1240   1.287   .     A
C1182  C1188   1.414   .     S
C1183  C1184   1.398   .     A
C1183  H1227   1.080   .     S
C1184  C1193   1.443   .     S
C1185  C1199   1.435   .     S
C1187  C484    1.448   1_556 S
C1189  C1204   1.405   .     A
C1190  C1200   1.440   .     S
C1190  N1232   1.156   .     T
C1191  C1201   1.441   .     S
C1191  N1233   1.156   .     T
C1192  C1202   1.436   .     S
C1192  N1234   1.155   .     T
C1193  O1246   1.298   .     A
C1193  O1243   1.295   .     A
C1194  N1235   1.156   .     T
C1194  C1203   1.439   .     S
C1195  H1207   1.110   .     S
C1195  H1208   1.105   .     S
C1195  N1236   1.445   .     S
C1195  H1206   1.112   .     S
C1196  N1237   1.445   .     S
C1196  H1212   1.110   .     S
C1196  H1210   1.111   .     S
C1196  H1211   1.105   .     S
C1197  N1238   1.450   .     S
C1197  H1214   1.109   .     S
C1197  H1215   1.111   .     S
C1197  H1217   1.113   .     S
C1198  H1221   1.111   .     S
C1198  H1220   1.113   .     S
C1198  N1230   1.450   .     S
C1198  H1219   1.109   .     S
C1199  O1244   1.296   .     A
C1199  O1245   1.294   .     A
C1200  N1231   1.368   .     A
C1201  N1229   1.368   .     A
C1201  C734    1.427   1_565 S
C1202  N1231   1.371   .     A
C1203  N1229   1.371   .     A
C1203  C732    1.427   1_565 S
C1204  N1236   1.424   .     S
C1204  C1329   1.387   1_455 S
H1209  N1237   1.030   .     S
H1213  N1238   1.031   .     S
H1218  N1230   1.031   .     S
H1228  N1236   1.030   .     S
N1229  Zn1247  2.029   .     S
N1231  Zn1248  2.029   .     S
O1239  Zn1247  1.987   .     S
O1240  Zn1248  1.987   .     S
O1241  Zn1247  1.999   .     S
O1242  Zn1248  1.999   .     S
O1243  Zn1247  2.003   .     S
O1244  Zn1248  2.003   .     S
O1245  Zn1247  2.004   .     S
O1246  Zn1248  2.004   .     S
C1249  C1267   1.416   .     S
C1249  O1320   1.289   .     A
C1249  O1317   1.287   .     A
C1250  C1266   1.404   .     A
C1250  N1315   1.425   .     S
C1250  C1330   1.388   .     S
C1251  N1316   1.429   .     S
C1251  C1266   1.403   .     A
C1251  C1360   1.387   .     S
C1252  C1267   1.404   .     A
C1252  N1308   1.429   .     S
C1253  C1264   1.399   .     A
C1253  C1257   1.381   .     A
C1253  H1283   1.083   .     S
C1254  C1265   1.400   .     A
C1254  H1294   1.083   .     S
C1254  C1258   1.378   .     A
C1255  C1259   1.382   .     A
C1255  H1300   1.083   .     S
C1255  C1265   1.401   .     A
C1256  C1261   1.379   .     A
C1256  H1301   1.083   .     S
C1256  C1264   1.400   .     A
C1257  C1262   1.401   .     A
C1257  H1302   1.083   .     S
C1258  C1263   1.396   .     A
C1258  H1303   1.080   .     S
C1259  C1263   1.398   .     A
C1259  H1304   1.084   .     S
C1260  O1319   1.287   .     A
C1260  O1318   1.287   .     A
C1260  C1266   1.414   .     S
C1261  C1262   1.398   .     A
C1261  H1305   1.080   .     S
C1262  C1271   1.443   .     S
C1263  C1277   1.435   .     S
C1265  C562    1.448   1_556 S
C1267  C1282   1.405   .     A
C1268  C1278   1.440   .     S
C1268  N1310   1.156   .     T
C1269  C1279   1.441   .     S
C1269  N1311   1.156   .     T
C1270  C1280   1.436   .     S
C1270  N1312   1.155   .     T
C1271  O1324   1.298   .     A
C1271  O1321   1.295   .     A
C1272  N1313   1.156   .     T
C1272  C1281   1.439   .     S
C1273  H1285   1.110   .     S
C1273  H1286   1.105   .     S
C1273  N1314   1.445   .     S
C1273  H1284   1.112   .     S
C1274  N1315   1.445   .     S
C1274  H1290   1.110   .     S
C1274  H1288   1.111   .     S
C1274  H1289   1.105   .     S
C1275  N1316   1.450   .     S
C1275  H1292   1.109   .     S
C1275  H1293   1.111   .     S
C1275  H1295   1.113   .     S
C1276  H1299   1.111   .     S
C1276  H1298   1.113   .     S
C1276  N1308   1.450   .     S
C1276  H1297   1.109   .     S
C1277  O1322   1.296   .     A
C1277  O1323   1.294   .     A
C1278  N1309   1.368   .     A
C1279  N1307   1.368   .     A
C1279  C812    1.427   1_565 S
C1280  N1309   1.371   .     A
C1281  N1307   1.371   .     A
C1281  C810    1.427   1_565 S
C1282  N1314   1.424   .     S
H1287  N1315   1.030   .     S
H1291  N1316   1.031   .     S
H1296  N1308   1.031   .     S
H1306  N1314   1.030   .     S
N1307  Zn1325  2.029   .     S
N1309  Zn1326  2.029   .     S
O1317  Zn1325  1.987   .     S
O1318  Zn1326  1.987   .     S
O1319  Zn1325  1.999   .     S
O1320  Zn1326  1.999   .     S
O1321  Zn1325  2.003   .     S
O1322  Zn1326  2.003   .     S
O1323  Zn1325  2.004   .     S
O1324  Zn1326  2.004   .     S
C1327  C1345   1.416   .     S
C1327  O1398   1.289   .     A
C1327  O1395   1.287   .     A
C1328  C1344   1.404   .     A
C1328  N1393   1.425   .     S
C1328  C1174   1.388   1_655 S
C1329  N1394   1.429   .     S
C1329  C1344   1.403   .     A
C1329  C1204   1.387   1_655 S
C1330  C1345   1.404   .     A
C1330  N1386   1.429   .     S
C1331  C1342   1.399   .     A
C1331  C1335   1.381   .     A
C1331  H1361   1.083   .     S
C1332  C1343   1.400   .     A
C1332  H1372   1.083   .     S
C1332  C1336   1.378   .     A
C1333  C1337   1.382   .     A
C1333  H1378   1.083   .     S
C1333  C1343   1.401   .     A
C1334  C1339   1.379   .     A
C1334  H1379   1.083   .     S
C1334  C1342   1.400   .     A
C1335  C1340   1.401   .     A
C1335  H1380   1.083   .     S
C1336  C1341   1.396   .     A
C1336  H1381   1.080   .     S
C1337  C1341   1.398   .     A
C1337  H1382   1.084   .     S
C1338  O1397   1.287   .     A
C1338  O1396   1.287   .     A
C1338  C1344   1.414   .     S
C1339  C1340   1.398   .     A
C1339  H1383   1.080   .     S
C1340  C1349   1.443   .     S
C1341  C1355   1.435   .     S
C1343  C640    1.448   1_556 S
C1345  C1360   1.405   .     A
C1346  C1356   1.440   .     S
C1346  N1388   1.156   .     T
C1347  C1357   1.441   .     S
C1347  N1389   1.156   .     T
C1348  C1358   1.436   .     S
C1348  N1390   1.155   .     T
C1349  O1402   1.298   .     A
C1349  O1399   1.295   .     A
C1350  N1391   1.156   .     T
C1350  C1359   1.439   .     S
C1351  H1363   1.110   .     S
C1351  H1364   1.105   .     S
C1351  N1392   1.445   .     S
C1351  H1362   1.112   .     S
C1352  N1393   1.445   .     S
C1352  H1368   1.110   .     S
C1352  H1366   1.111   .     S
C1352  H1367   1.105   .     S
C1353  N1394   1.450   .     S
C1353  H1370   1.109   .     S
C1353  H1371   1.111   .     S
C1353  H1373   1.113   .     S
C1354  H1377   1.111   .     S
C1354  H1376   1.113   .     S
C1354  N1386   1.450   .     S
C1354  H1375   1.109   .     S
C1355  O1400   1.296   .     A
C1355  O1401   1.294   .     A
C1356  N1387   1.368   .     A
C1357  N1385   1.368   .     A
C1357  C890    1.427   1_565 S
C1358  N1387   1.371   .     A
C1359  N1385   1.371   .     A
C1359  C888    1.427   1_565 S
C1360  N1392   1.424   .     S
H1365  N1393   1.030   .     S
H1369  N1394   1.031   .     S
H1374  N1386   1.031   .     S
H1384  N1392   1.030   .     S
N1385  Zn1403  2.029   .     S
N1387  Zn1404  2.029   .     S
O1395  Zn1403  1.987   .     S
O1396  Zn1404  1.987   .     S
O1397  Zn1403  1.999   .     S
O1398  Zn1404  1.999   .     S
O1399  Zn1403  2.003   .     S
O1400  Zn1404  2.003   .     S
O1401  Zn1403  2.004   .     S
O1402  Zn1404  2.004   .     S
