data_str_m2_o1_o16_pcu_sym.124
_audit_creation_date              2020-01-03
_audit_creation_method            'Materials Studio'
_symmetry_space_group_name_H-M    'P1'
_symmetry_Int_Tables_number       1
_symmetry_cell_setting            triclinic
loop_
_symmetry_equiv_pos_as_xyz
  x,y,z
_cell_length_a                    28.5397
_cell_length_b                    32.5014
_cell_length_c                    26.9313
_cell_angle_alpha                 90.1159
_cell_angle_beta                  73.0486
_cell_angle_gamma                 90.0093
loop_
_atom_site_label
_atom_site_type_symbol
_atom_site_fract_x
_atom_site_fract_y
_atom_site_fract_z
_atom_site_U_iso_or_equiv
_atom_site_adp_type
_atom_site_occupancy
C1     C     0.16667   0.24598   0.25005   0.00000  Uiso   1.00
C2     C     0.14859   0.14627   0.48758   0.00000  Uiso   1.00
C3     C     0.16374   0.14608   0.43249   0.00000  Uiso   1.00
C4     C     0.18449   0.15298   0.01412   0.00000  Uiso   1.00
C5     C     0.23431   0.15746   0.48511   0.00000  Uiso   1.00
C6     C     0.24901   0.14897   0.43232   0.00000  Uiso   1.00
C7     C     0.21430   0.14117   0.40693   0.00000  Uiso   1.00
C8     C     0.17247   0.15704   0.06820   0.00000  Uiso   1.00
C9     C     0.25661   0.17502   0.06265   0.00000  Uiso   1.00
C10    C     0.12781   0.15056   0.40532   0.00000  Uiso   1.00
C11    C     0.20920   0.31206   0.25022   0.00000  Uiso   1.00
C12    C     0.14118   0.16158   0.34947   0.00000  Uiso   1.00
C13    C     0.20920   0.02130   0.25018   0.00000  Uiso   1.00
C14    C     0.16667   0.04274   0.24998   0.00000  Uiso   1.00
C15    C     0.12414   0.02127   0.24982   0.00000  Uiso   1.00
C16    C     0.12413   0.31204   0.24987   0.00000  Uiso   1.00
C17    C     0.16666   0.29060   0.25005   0.00000  Uiso   1.00
C18    C     0.29923   0.19091   0.28388   0.00000  Uiso   1.00
C19    C     0.01550   0.19084   0.28394   0.00000  Uiso   1.00
C20    C     0.03410   0.14242   0.21611   0.00000  Uiso   1.00
C21    C     0.31780   0.14241   0.21615   0.00000  Uiso   1.00
C22    C     0.16667   0.08735   0.24995   0.00000  Uiso   1.00
C23    C     0.19283   0.16758   0.14995   0.00000  Uiso   1.00
C24    C     0.26923   0.16982   0.00913   0.00000  Uiso   1.00
C25    C     0.20809   0.16680   0.09290   0.00000  Uiso   1.00
C26    C     0.07827   0.14509   0.43260   0.00000  Uiso   1.00
C27    C     0.06426   0.13778   0.48574   0.00000  Uiso   1.00
C28    C     0.09835   0.14013   0.01345   0.00000  Uiso   1.00
Cu29   Cu    0.11978   0.16666   0.25000   0.00000  Uiso   1.00
Cu30   Cu    0.21355   0.16667   0.25000   0.00000  Uiso   1.00
H31    H     0.24245   0.03732   0.25031   0.00000  Uiso   1.00
H32    H     0.09089   0.03728   0.24965   0.00000  Uiso   1.00
H33    H     0.09087   0.29603   0.24975   0.00000  Uiso   1.00
H34    H     0.27308   0.21034   0.31102   0.00000  Uiso   1.00
H35    H     0.02676   0.21022   0.31110   0.00000  Uiso   1.00
H36    H     0.06024   0.12297   0.18899   0.00000  Uiso   1.00
H37    H     0.30651   0.12297   0.18907   0.00000  Uiso   1.00
H38    H     0.28751   0.14821   0.41054   0.00000  Uiso   1.00
H39    H     0.30630   0.17630   0.48585   0.00000  Uiso   1.00
H40    H     0.13538   0.15279   0.09207   0.00000  Uiso   1.00
H41    H     0.05028   0.14598   0.41276   0.00000  Uiso   1.00
H42    H     0.08423   0.13613   0.05483   0.00000  Uiso   1.00
H43    H     0.02642   0.13133   0.00612   0.00000  Uiso   1.00
H44    H     0.22835   0.13037   0.36754   0.00000  Uiso   1.00
H45    H     0.24244   0.29606   0.25038   0.00000  Uiso   1.00
N46    N     0.04931   0.16666   0.24998   0.00000  Uiso   1.00
N47    N     0.28402   0.16669   0.24999   0.00000  Uiso   1.00
O48    O     0.12708   0.22678   0.25000   0.00000  Uiso   1.00
O49    O     0.20627   0.22679   0.25000   0.00000  Uiso   1.00
O50    O     0.10775   0.16665   0.32549   0.00000  Uiso   1.00
O51    O     0.18694   0.16666   0.32549   0.00000  Uiso   1.00
O52    O     0.12706   0.10654   0.24999   0.00000  Uiso   1.00
O53    O     0.20625   0.10655   0.24999   0.00000  Uiso   1.00
O54    O     0.14640   0.16667   0.17451   0.00000  Uiso   1.00
O55    O     0.22559   0.16668   0.17451   0.00000  Uiso   1.00
Br56   Br    0.30716   0.19522   0.09051   0.00000  Uiso   1.00
C57    C     0.50000   0.24598   0.25005   0.00000  Uiso   1.00
C58    C     0.48192   0.14627   0.48758   0.00000  Uiso   1.00
C59    C     0.49707   0.14608   0.43249   0.00000  Uiso   1.00
C60    C     0.51782   0.15298   0.01412   0.00000  Uiso   1.00
C61    C     0.56765   0.15746   0.48511   0.00000  Uiso   1.00
C62    C     0.58234   0.14897   0.43232   0.00000  Uiso   1.00
C63    C     0.54763   0.14117   0.40693   0.00000  Uiso   1.00
C64    C     0.50580   0.15704   0.06820   0.00000  Uiso   1.00
C65    C     0.58995   0.17502   0.06265   0.00000  Uiso   1.00
C66    C     0.46115   0.15056   0.40532   0.00000  Uiso   1.00
C67    C     0.54253   0.31206   0.25022   0.00000  Uiso   1.00
C68    C     0.47451   0.16158   0.34947   0.00000  Uiso   1.00
C69    C     0.54253   0.02130   0.25018   0.00000  Uiso   1.00
C70    C     0.50000   0.04274   0.24998   0.00000  Uiso   1.00
C71    C     0.45747   0.02127   0.24982   0.00000  Uiso   1.00
C72    C     0.45746   0.31204   0.24987   0.00000  Uiso   1.00
C73    C     0.50000   0.29060   0.25005   0.00000  Uiso   1.00
C74    C     0.63256   0.19091   0.28388   0.00000  Uiso   1.00
C75    C     0.34883   0.19084   0.28394   0.00000  Uiso   1.00
C76    C     0.36744   0.14242   0.21611   0.00000  Uiso   1.00
C77    C     0.65114   0.14241   0.21615   0.00000  Uiso   1.00
C78    C     0.50000   0.08735   0.24995   0.00000  Uiso   1.00
C79    C     0.52616   0.16758   0.14995   0.00000  Uiso   1.00
C80    C     0.60256   0.16982   0.00913   0.00000  Uiso   1.00
C81    C     0.54142   0.16680   0.09290   0.00000  Uiso   1.00
C82    C     0.41160   0.14509   0.43260   0.00000  Uiso   1.00
C83    C     0.39759   0.13778   0.48574   0.00000  Uiso   1.00
C84    C     0.43168   0.14013   0.01345   0.00000  Uiso   1.00
Cu85   Cu    0.45311   0.16666   0.25000   0.00000  Uiso   1.00
Cu86   Cu    0.54689   0.16667   0.25000   0.00000  Uiso   1.00
H87    H     0.57579   0.03732   0.25031   0.00000  Uiso   1.00
H88    H     0.42422   0.03728   0.24965   0.00000  Uiso   1.00
H89    H     0.42421   0.29603   0.24975   0.00000  Uiso   1.00
H90    H     0.60641   0.21034   0.31102   0.00000  Uiso   1.00
H91    H     0.36009   0.21022   0.31110   0.00000  Uiso   1.00
H92    H     0.39357   0.12297   0.18899   0.00000  Uiso   1.00
H93    H     0.63985   0.12297   0.18907   0.00000  Uiso   1.00
H94    H     0.62084   0.14821   0.41054   0.00000  Uiso   1.00
H95    H     0.63964   0.17630   0.48585   0.00000  Uiso   1.00
H96    H     0.46871   0.15279   0.09207   0.00000  Uiso   1.00
H97    H     0.38362   0.14598   0.41276   0.00000  Uiso   1.00
H98    H     0.41757   0.13613   0.05483   0.00000  Uiso   1.00
H99    H     0.35975   0.13133   0.00612   0.00000  Uiso   1.00
H100   H     0.56168   0.13037   0.36754   0.00000  Uiso   1.00
H101   H     0.57578   0.29606   0.25038   0.00000  Uiso   1.00
N102   N     0.38265   0.16666   0.24998   0.00000  Uiso   1.00
N103   N     0.61735   0.16669   0.24999   0.00000  Uiso   1.00
O104   O     0.46042   0.22678   0.25000   0.00000  Uiso   1.00
O105   O     0.53961   0.22679   0.25000   0.00000  Uiso   1.00
O106   O     0.44108   0.16665   0.32549   0.00000  Uiso   1.00
O107   O     0.52027   0.16666   0.32549   0.00000  Uiso   1.00
O108   O     0.46039   0.10654   0.24999   0.00000  Uiso   1.00
O109   O     0.53958   0.10655   0.24999   0.00000  Uiso   1.00
O110   O     0.47973   0.16667   0.17451   0.00000  Uiso   1.00
O111   O     0.55892   0.16668   0.17451   0.00000  Uiso   1.00
Br112  Br    0.64049   0.19522   0.09051   0.00000  Uiso   1.00
C113   C     0.83333   0.24598   0.25005   0.00000  Uiso   1.00
C114   C     0.81526   0.14627   0.48758   0.00000  Uiso   1.00
C115   C     0.83040   0.14608   0.43249   0.00000  Uiso   1.00
C116   C     0.85116   0.15298   0.01412   0.00000  Uiso   1.00
C117   C     0.90098   0.15746   0.48511   0.00000  Uiso   1.00
C118   C     0.91567   0.14897   0.43232   0.00000  Uiso   1.00
C119   C     0.88096   0.14117   0.40693   0.00000  Uiso   1.00
C120   C     0.83914   0.15704   0.06820   0.00000  Uiso   1.00
C121   C     0.92328   0.17502   0.06265   0.00000  Uiso   1.00
C122   C     0.79448   0.15056   0.40532   0.00000  Uiso   1.00
C123   C     0.87586   0.31206   0.25022   0.00000  Uiso   1.00
C124   C     0.80785   0.16158   0.34947   0.00000  Uiso   1.00
C125   C     0.87587   0.02130   0.25018   0.00000  Uiso   1.00
C126   C     0.83334   0.04274   0.24998   0.00000  Uiso   1.00
C127   C     0.79080   0.02127   0.24982   0.00000  Uiso   1.00
C128   C     0.79080   0.31204   0.24987   0.00000  Uiso   1.00
C129   C     0.83333   0.29060   0.25005   0.00000  Uiso   1.00
C130   C     0.96589   0.19091   0.28388   0.00000  Uiso   1.00
C131   C     0.68216   0.19084   0.28394   0.00000  Uiso   1.00
C132   C     0.70077   0.14242   0.21611   0.00000  Uiso   1.00
C133   C     0.98447   0.14241   0.21615   0.00000  Uiso   1.00
C134   C     0.83334   0.08735   0.24995   0.00000  Uiso   1.00
C135   C     0.85949   0.16758   0.14995   0.00000  Uiso   1.00
C136   C     0.93590   0.16982   0.00913   0.00000  Uiso   1.00
C137   C     0.87476   0.16680   0.09290   0.00000  Uiso   1.00
C138   C     0.74494   0.14509   0.43260   0.00000  Uiso   1.00
C139   C     0.73092   0.13778   0.48574   0.00000  Uiso   1.00
C140   C     0.76501   0.14013   0.01345   0.00000  Uiso   1.00
Cu141  Cu    0.78645   0.16666   0.25000   0.00000  Uiso   1.00
Cu142  Cu    0.88022   0.16667   0.25000   0.00000  Uiso   1.00
H143   H     0.90912   0.03732   0.25031   0.00000  Uiso   1.00
H144   H     0.75756   0.03728   0.24965   0.00000  Uiso   1.00
H145   H     0.75754   0.29603   0.24975   0.00000  Uiso   1.00
H146   H     0.93975   0.21034   0.31102   0.00000  Uiso   1.00
H147   H     0.69342   0.21022   0.31110   0.00000  Uiso   1.00
H148   H     0.72690   0.12297   0.18899   0.00000  Uiso   1.00
H149   H     0.97318   0.12297   0.18907   0.00000  Uiso   1.00
H150   H     0.95418   0.14821   0.41054   0.00000  Uiso   1.00
H151   H     0.97297   0.17630   0.48585   0.00000  Uiso   1.00
H152   H     0.80205   0.15279   0.09207   0.00000  Uiso   1.00
H153   H     0.71695   0.14598   0.41276   0.00000  Uiso   1.00
H154   H     0.75090   0.13613   0.05483   0.00000  Uiso   1.00
H155   H     0.69309   0.13133   0.00612   0.00000  Uiso   1.00
H156   H     0.89502   0.13037   0.36754   0.00000  Uiso   1.00
H157   H     0.90911   0.29606   0.25038   0.00000  Uiso   1.00
N158   N     0.71598   0.16666   0.24998   0.00000  Uiso   1.00
N159   N     0.95069   0.16669   0.24999   0.00000  Uiso   1.00
O160   O     0.79375   0.22678   0.25000   0.00000  Uiso   1.00
O161   O     0.87294   0.22679   0.25000   0.00000  Uiso   1.00
O162   O     0.77441   0.16665   0.32549   0.00000  Uiso   1.00
O163   O     0.85360   0.16666   0.32549   0.00000  Uiso   1.00
O164   O     0.79373   0.10654   0.24999   0.00000  Uiso   1.00
O165   O     0.87292   0.10655   0.24999   0.00000  Uiso   1.00
O166   O     0.81306   0.16667   0.17451   0.00000  Uiso   1.00
O167   O     0.89225   0.16668   0.17451   0.00000  Uiso   1.00
Br168  Br    0.97382   0.19522   0.09051   0.00000  Uiso   1.00
C169   C     0.16667   0.57931   0.25005   0.00000  Uiso   1.00
C170   C     0.14859   0.47961   0.48758   0.00000  Uiso   1.00
C171   C     0.16374   0.47941   0.43249   0.00000  Uiso   1.00
C172   C     0.18449   0.48631   0.01412   0.00000  Uiso   1.00
C173   C     0.23431   0.49079   0.48511   0.00000  Uiso   1.00
C174   C     0.24901   0.48230   0.43232   0.00000  Uiso   1.00
C175   C     0.21430   0.47450   0.40693   0.00000  Uiso   1.00
C176   C     0.17247   0.49037   0.06820   0.00000  Uiso   1.00
C177   C     0.25661   0.50835   0.06265   0.00000  Uiso   1.00
C178   C     0.12781   0.48389   0.40532   0.00000  Uiso   1.00
C179   C     0.20920   0.64540   0.25022   0.00000  Uiso   1.00
C180   C     0.14118   0.49492   0.34947   0.00000  Uiso   1.00
C181   C     0.20920   0.35463   0.25018   0.00000  Uiso   1.00
C182   C     0.16667   0.37607   0.24998   0.00000  Uiso   1.00
C183   C     0.12414   0.35461   0.24982   0.00000  Uiso   1.00
C184   C     0.12413   0.64538   0.24987   0.00000  Uiso   1.00
C185   C     0.16666   0.62393   0.25005   0.00000  Uiso   1.00
C186   C     0.29923   0.52424   0.28388   0.00000  Uiso   1.00
C187   C     0.01550   0.52417   0.28394   0.00000  Uiso   1.00
C188   C     0.03410   0.47576   0.21611   0.00000  Uiso   1.00
C189   C     0.31780   0.47574   0.21615   0.00000  Uiso   1.00
C190   C     0.16667   0.42068   0.24995   0.00000  Uiso   1.00
C191   C     0.19283   0.50092   0.14995   0.00000  Uiso   1.00
C192   C     0.26923   0.50315   0.00913   0.00000  Uiso   1.00
C193   C     0.20809   0.50013   0.09290   0.00000  Uiso   1.00
C194   C     0.07827   0.47843   0.43260   0.00000  Uiso   1.00
C195   C     0.06426   0.47111   0.48574   0.00000  Uiso   1.00
C196   C     0.09835   0.47346   0.01345   0.00000  Uiso   1.00
Cu197  Cu    0.11978   0.49999   0.25000   0.00000  Uiso   1.00
Cu198  Cu    0.21355   0.50001   0.25000   0.00000  Uiso   1.00
H199   H     0.24245   0.37065   0.25031   0.00000  Uiso   1.00
H200   H     0.09089   0.37061   0.24965   0.00000  Uiso   1.00
H201   H     0.09087   0.62936   0.24975   0.00000  Uiso   1.00
H202   H     0.27308   0.54367   0.31102   0.00000  Uiso   1.00
H203   H     0.02676   0.54355   0.31110   0.00000  Uiso   1.00
H204   H     0.06024   0.45630   0.18899   0.00000  Uiso   1.00
H205   H     0.30651   0.45630   0.18907   0.00000  Uiso   1.00
H206   H     0.28751   0.48154   0.41054   0.00000  Uiso   1.00
H207   H     0.30630   0.50963   0.48585   0.00000  Uiso   1.00
H208   H     0.13538   0.48612   0.09207   0.00000  Uiso   1.00
H209   H     0.05028   0.47931   0.41276   0.00000  Uiso   1.00
H210   H     0.08423   0.46946   0.05483   0.00000  Uiso   1.00
H211   H     0.02642   0.46466   0.00612   0.00000  Uiso   1.00
H212   H     0.22835   0.46370   0.36754   0.00000  Uiso   1.00
H213   H     0.24244   0.62939   0.25038   0.00000  Uiso   1.00
N214   N     0.04931   0.49999   0.24998   0.00000  Uiso   1.00
N215   N     0.28402   0.50002   0.24999   0.00000  Uiso   1.00
O216   O     0.12708   0.56011   0.25000   0.00000  Uiso   1.00
O217   O     0.20627   0.56012   0.25000   0.00000  Uiso   1.00
O218   O     0.10775   0.49998   0.32549   0.00000  Uiso   1.00
O219   O     0.18694   0.49999   0.32549   0.00000  Uiso   1.00
O220   O     0.12706   0.43988   0.24999   0.00000  Uiso   1.00
O221   O     0.20625   0.43989   0.24999   0.00000  Uiso   1.00
O222   O     0.14640   0.50001   0.17451   0.00000  Uiso   1.00
O223   O     0.22559   0.50002   0.17451   0.00000  Uiso   1.00
Br224  Br    0.30716   0.52855   0.09051   0.00000  Uiso   1.00
C225   C     0.50000   0.57931   0.25005   0.00000  Uiso   1.00
C226   C     0.48192   0.47961   0.48758   0.00000  Uiso   1.00
C227   C     0.49707   0.47941   0.43249   0.00000  Uiso   1.00
C228   C     0.51782   0.48631   0.01412   0.00000  Uiso   1.00
C229   C     0.56765   0.49079   0.48511   0.00000  Uiso   1.00
C230   C     0.58234   0.48230   0.43232   0.00000  Uiso   1.00
C231   C     0.54763   0.47450   0.40693   0.00000  Uiso   1.00
C232   C     0.50580   0.49037   0.06820   0.00000  Uiso   1.00
C233   C     0.58995   0.50835   0.06265   0.00000  Uiso   1.00
C234   C     0.46115   0.48389   0.40532   0.00000  Uiso   1.00
C235   C     0.54253   0.64540   0.25022   0.00000  Uiso   1.00
C236   C     0.47451   0.49492   0.34947   0.00000  Uiso   1.00
C237   C     0.54253   0.35463   0.25018   0.00000  Uiso   1.00
C238   C     0.50000   0.37607   0.24998   0.00000  Uiso   1.00
C239   C     0.45747   0.35461   0.24982   0.00000  Uiso   1.00
C240   C     0.45746   0.64538   0.24987   0.00000  Uiso   1.00
C241   C     0.50000   0.62393   0.25005   0.00000  Uiso   1.00
C242   C     0.63256   0.52424   0.28388   0.00000  Uiso   1.00
C243   C     0.34883   0.52417   0.28394   0.00000  Uiso   1.00
C244   C     0.36744   0.47576   0.21611   0.00000  Uiso   1.00
C245   C     0.65114   0.47574   0.21615   0.00000  Uiso   1.00
C246   C     0.50000   0.42068   0.24995   0.00000  Uiso   1.00
C247   C     0.52616   0.50092   0.14995   0.00000  Uiso   1.00
C248   C     0.60256   0.50315   0.00913   0.00000  Uiso   1.00
C249   C     0.54142   0.50013   0.09290   0.00000  Uiso   1.00
C250   C     0.41160   0.47843   0.43260   0.00000  Uiso   1.00
C251   C     0.39759   0.47111   0.48574   0.00000  Uiso   1.00
C252   C     0.43168   0.47346   0.01345   0.00000  Uiso   1.00
Cu253  Cu    0.45311   0.49999   0.25000   0.00000  Uiso   1.00
Cu254  Cu    0.54689   0.50001   0.25000   0.00000  Uiso   1.00
H255   H     0.57579   0.37065   0.25031   0.00000  Uiso   1.00
H256   H     0.42422   0.37061   0.24965   0.00000  Uiso   1.00
H257   H     0.42421   0.62936   0.24975   0.00000  Uiso   1.00
H258   H     0.60641   0.54367   0.31102   0.00000  Uiso   1.00
H259   H     0.36009   0.54355   0.31110   0.00000  Uiso   1.00
H260   H     0.39357   0.45630   0.18899   0.00000  Uiso   1.00
H261   H     0.63985   0.45630   0.18907   0.00000  Uiso   1.00
H262   H     0.62084   0.48154   0.41054   0.00000  Uiso   1.00
H263   H     0.63964   0.50963   0.48585   0.00000  Uiso   1.00
H264   H     0.46871   0.48612   0.09207   0.00000  Uiso   1.00
H265   H     0.38362   0.47931   0.41276   0.00000  Uiso   1.00
H266   H     0.41757   0.46946   0.05483   0.00000  Uiso   1.00
H267   H     0.35975   0.46466   0.00612   0.00000  Uiso   1.00
H268   H     0.56168   0.46370   0.36754   0.00000  Uiso   1.00
H269   H     0.57578   0.62939   0.25038   0.00000  Uiso   1.00
N270   N     0.38265   0.49999   0.24998   0.00000  Uiso   1.00
N271   N     0.61735   0.50002   0.24999   0.00000  Uiso   1.00
O272   O     0.46042   0.56011   0.25000   0.00000  Uiso   1.00
O273   O     0.53961   0.56012   0.25000   0.00000  Uiso   1.00
O274   O     0.44108   0.49998   0.32549   0.00000  Uiso   1.00
O275   O     0.52027   0.49999   0.32549   0.00000  Uiso   1.00
O276   O     0.46039   0.43988   0.24999   0.00000  Uiso   1.00
O277   O     0.53958   0.43989   0.24999   0.00000  Uiso   1.00
O278   O     0.47973   0.50001   0.17451   0.00000  Uiso   1.00
O279   O     0.55892   0.50002   0.17451   0.00000  Uiso   1.00
Br280  Br    0.64049   0.52855   0.09051   0.00000  Uiso   1.00
C281   C     0.83333   0.57931   0.25005   0.00000  Uiso   1.00
C282   C     0.81526   0.47961   0.48758   0.00000  Uiso   1.00
C283   C     0.83040   0.47941   0.43249   0.00000  Uiso   1.00
C284   C     0.85116   0.48631   0.01412   0.00000  Uiso   1.00
C285   C     0.90098   0.49079   0.48511   0.00000  Uiso   1.00
C286   C     0.91567   0.48230   0.43232   0.00000  Uiso   1.00
C287   C     0.88096   0.47450   0.40693   0.00000  Uiso   1.00
C288   C     0.83914   0.49037   0.06820   0.00000  Uiso   1.00
C289   C     0.92328   0.50835   0.06265   0.00000  Uiso   1.00
C290   C     0.79448   0.48389   0.40532   0.00000  Uiso   1.00
C291   C     0.87586   0.64540   0.25022   0.00000  Uiso   1.00
C292   C     0.80785   0.49492   0.34947   0.00000  Uiso   1.00
C293   C     0.87587   0.35463   0.25018   0.00000  Uiso   1.00
C294   C     0.83334   0.37607   0.24998   0.00000  Uiso   1.00
C295   C     0.79080   0.35461   0.24982   0.00000  Uiso   1.00
C296   C     0.79080   0.64538   0.24987   0.00000  Uiso   1.00
C297   C     0.83333   0.62393   0.25005   0.00000  Uiso   1.00
C298   C     0.96589   0.52424   0.28388   0.00000  Uiso   1.00
C299   C     0.68216   0.52417   0.28394   0.00000  Uiso   1.00
C300   C     0.70077   0.47576   0.21611   0.00000  Uiso   1.00
C301   C     0.98447   0.47574   0.21615   0.00000  Uiso   1.00
C302   C     0.83334   0.42068   0.24995   0.00000  Uiso   1.00
C303   C     0.85949   0.50092   0.14995   0.00000  Uiso   1.00
C304   C     0.93590   0.50315   0.00913   0.00000  Uiso   1.00
C305   C     0.87476   0.50013   0.09290   0.00000  Uiso   1.00
C306   C     0.74494   0.47843   0.43260   0.00000  Uiso   1.00
C307   C     0.73092   0.47111   0.48574   0.00000  Uiso   1.00
C308   C     0.76501   0.47346   0.01345   0.00000  Uiso   1.00
Cu309  Cu    0.78645   0.49999   0.25000   0.00000  Uiso   1.00
Cu310  Cu    0.88022   0.50001   0.25000   0.00000  Uiso   1.00
H311   H     0.90912   0.37065   0.25031   0.00000  Uiso   1.00
H312   H     0.75756   0.37061   0.24965   0.00000  Uiso   1.00
H313   H     0.75754   0.62936   0.24975   0.00000  Uiso   1.00
H314   H     0.93975   0.54367   0.31102   0.00000  Uiso   1.00
H315   H     0.69342   0.54355   0.31110   0.00000  Uiso   1.00
H316   H     0.72690   0.45630   0.18899   0.00000  Uiso   1.00
H317   H     0.97318   0.45630   0.18907   0.00000  Uiso   1.00
H318   H     0.95418   0.48154   0.41054   0.00000  Uiso   1.00
H319   H     0.97297   0.50963   0.48585   0.00000  Uiso   1.00
H320   H     0.80205   0.48612   0.09207   0.00000  Uiso   1.00
H321   H     0.71695   0.47931   0.41276   0.00000  Uiso   1.00
H322   H     0.75090   0.46946   0.05483   0.00000  Uiso   1.00
H323   H     0.69309   0.46466   0.00612   0.00000  Uiso   1.00
H324   H     0.89502   0.46370   0.36754   0.00000  Uiso   1.00
H325   H     0.90911   0.62939   0.25038   0.00000  Uiso   1.00
N326   N     0.71598   0.49999   0.24998   0.00000  Uiso   1.00
N327   N     0.95069   0.50002   0.24999   0.00000  Uiso   1.00
O328   O     0.79375   0.56011   0.25000   0.00000  Uiso   1.00
O329   O     0.87294   0.56012   0.25000   0.00000  Uiso   1.00
O330   O     0.77441   0.49998   0.32549   0.00000  Uiso   1.00
O331   O     0.85360   0.49999   0.32549   0.00000  Uiso   1.00
O332   O     0.79373   0.43988   0.24999   0.00000  Uiso   1.00
O333   O     0.87292   0.43989   0.24999   0.00000  Uiso   1.00
O334   O     0.81306   0.50001   0.17451   0.00000  Uiso   1.00
O335   O     0.89225   0.50002   0.17451   0.00000  Uiso   1.00
Br336  Br    0.97382   0.52855   0.09051   0.00000  Uiso   1.00
C337   C     0.16667   0.91265   0.25005   0.00000  Uiso   1.00
C338   C     0.14859   0.81294   0.48758   0.00000  Uiso   1.00
C339   C     0.16374   0.81274   0.43249   0.00000  Uiso   1.00
C340   C     0.18449   0.81965   0.01412   0.00000  Uiso   1.00
C341   C     0.23431   0.82412   0.48511   0.00000  Uiso   1.00
C342   C     0.24901   0.81563   0.43232   0.00000  Uiso   1.00
C343   C     0.21430   0.80783   0.40693   0.00000  Uiso   1.00
C344   C     0.17247   0.82370   0.06820   0.00000  Uiso   1.00
C345   C     0.25661   0.84169   0.06265   0.00000  Uiso   1.00
C346   C     0.12781   0.81722   0.40532   0.00000  Uiso   1.00
C347   C     0.20920   0.97873   0.25022   0.00000  Uiso   1.00
C348   C     0.14118   0.82825   0.34947   0.00000  Uiso   1.00
C349   C     0.20920   0.68796   0.25018   0.00000  Uiso   1.00
C350   C     0.16667   0.70941   0.24998   0.00000  Uiso   1.00
C351   C     0.12414   0.68794   0.24982   0.00000  Uiso   1.00
C352   C     0.12413   0.97871   0.24987   0.00000  Uiso   1.00
C353   C     0.16666   0.95726   0.25005   0.00000  Uiso   1.00
C354   C     0.29923   0.85757   0.28388   0.00000  Uiso   1.00
C355   C     0.01550   0.85751   0.28394   0.00000  Uiso   1.00
C356   C     0.03410   0.80909   0.21611   0.00000  Uiso   1.00
C357   C     0.31780   0.80908   0.21615   0.00000  Uiso   1.00
C358   C     0.16667   0.75402   0.24995   0.00000  Uiso   1.00
C359   C     0.19283   0.83425   0.14995   0.00000  Uiso   1.00
C360   C     0.26923   0.83649   0.00913   0.00000  Uiso   1.00
C361   C     0.20809   0.83346   0.09290   0.00000  Uiso   1.00
C362   C     0.07827   0.81176   0.43260   0.00000  Uiso   1.00
C363   C     0.06426   0.80444   0.48574   0.00000  Uiso   1.00
C364   C     0.09835   0.80680   0.01345   0.00000  Uiso   1.00
Cu365  Cu    0.11978   0.83333   0.25000   0.00000  Uiso   1.00
Cu366  Cu    0.21355   0.83334   0.25000   0.00000  Uiso   1.00
H367   H     0.24245   0.70398   0.25031   0.00000  Uiso   1.00
H368   H     0.09089   0.70394   0.24965   0.00000  Uiso   1.00
H369   H     0.09087   0.96269   0.24975   0.00000  Uiso   1.00
H370   H     0.27308   0.87700   0.31102   0.00000  Uiso   1.00
H371   H     0.02676   0.87688   0.31110   0.00000  Uiso   1.00
H372   H     0.06024   0.78963   0.18899   0.00000  Uiso   1.00
H373   H     0.30651   0.78963   0.18907   0.00000  Uiso   1.00
H374   H     0.28751   0.81488   0.41054   0.00000  Uiso   1.00
H375   H     0.30630   0.84297   0.48585   0.00000  Uiso   1.00
H376   H     0.13538   0.81945   0.09207   0.00000  Uiso   1.00
H377   H     0.05028   0.81264   0.41276   0.00000  Uiso   1.00
H378   H     0.08423   0.80280   0.05483   0.00000  Uiso   1.00
H379   H     0.02642   0.79799   0.00612   0.00000  Uiso   1.00
H380   H     0.22835   0.79703   0.36754   0.00000  Uiso   1.00
H381   H     0.24244   0.96273   0.25038   0.00000  Uiso   1.00
N382   N     0.04931   0.83332   0.24998   0.00000  Uiso   1.00
N383   N     0.28402   0.83335   0.24999   0.00000  Uiso   1.00
O384   O     0.12708   0.89345   0.25000   0.00000  Uiso   1.00
O385   O     0.20627   0.89346   0.25000   0.00000  Uiso   1.00
O386   O     0.10775   0.83332   0.32549   0.00000  Uiso   1.00
O387   O     0.18694   0.83333   0.32549   0.00000  Uiso   1.00
O388   O     0.12706   0.77321   0.24999   0.00000  Uiso   1.00
O389   O     0.20625   0.77322   0.24999   0.00000  Uiso   1.00
O390   O     0.14640   0.83334   0.17451   0.00000  Uiso   1.00
O391   O     0.22559   0.83335   0.17451   0.00000  Uiso   1.00
Br392  Br    0.30716   0.86189   0.09051   0.00000  Uiso   1.00
C393   C     0.50000   0.91265   0.25005   0.00000  Uiso   1.00
C394   C     0.48192   0.81294   0.48758   0.00000  Uiso   1.00
C395   C     0.49707   0.81274   0.43249   0.00000  Uiso   1.00
C396   C     0.51782   0.81965   0.01412   0.00000  Uiso   1.00
C397   C     0.56765   0.82412   0.48511   0.00000  Uiso   1.00
C398   C     0.58234   0.81563   0.43232   0.00000  Uiso   1.00
C399   C     0.54763   0.80783   0.40693   0.00000  Uiso   1.00
C400   C     0.50580   0.82370   0.06820   0.00000  Uiso   1.00
C401   C     0.58995   0.84169   0.06265   0.00000  Uiso   1.00
C402   C     0.46115   0.81722   0.40532   0.00000  Uiso   1.00
C403   C     0.54253   0.97873   0.25022   0.00000  Uiso   1.00
C404   C     0.47451   0.82825   0.34947   0.00000  Uiso   1.00
C405   C     0.54253   0.68796   0.25018   0.00000  Uiso   1.00
C406   C     0.50000   0.70941   0.24998   0.00000  Uiso   1.00
C407   C     0.45747   0.68794   0.24982   0.00000  Uiso   1.00
C408   C     0.45746   0.97871   0.24987   0.00000  Uiso   1.00
C409   C     0.50000   0.95726   0.25005   0.00000  Uiso   1.00
C410   C     0.63256   0.85757   0.28388   0.00000  Uiso   1.00
C411   C     0.34883   0.85751   0.28394   0.00000  Uiso   1.00
C412   C     0.36744   0.80909   0.21611   0.00000  Uiso   1.00
C413   C     0.65114   0.80908   0.21615   0.00000  Uiso   1.00
C414   C     0.50000   0.75402   0.24995   0.00000  Uiso   1.00
C415   C     0.52616   0.83425   0.14995   0.00000  Uiso   1.00
C416   C     0.60256   0.83649   0.00913   0.00000  Uiso   1.00
C417   C     0.54142   0.83346   0.09290   0.00000  Uiso   1.00
C418   C     0.41160   0.81176   0.43260   0.00000  Uiso   1.00
C419   C     0.39759   0.80444   0.48574   0.00000  Uiso   1.00
C420   C     0.43168   0.80680   0.01345   0.00000  Uiso   1.00
Cu421  Cu    0.45311   0.83333   0.25000   0.00000  Uiso   1.00
Cu422  Cu    0.54689   0.83334   0.25000   0.00000  Uiso   1.00
H423   H     0.57579   0.70398   0.25031   0.00000  Uiso   1.00
H424   H     0.42422   0.70394   0.24965   0.00000  Uiso   1.00
H425   H     0.42421   0.96269   0.24975   0.00000  Uiso   1.00
H426   H     0.60641   0.87700   0.31102   0.00000  Uiso   1.00
H427   H     0.36009   0.87688   0.31110   0.00000  Uiso   1.00
H428   H     0.39357   0.78963   0.18899   0.00000  Uiso   1.00
H429   H     0.63985   0.78963   0.18907   0.00000  Uiso   1.00
H430   H     0.62084   0.81488   0.41054   0.00000  Uiso   1.00
H431   H     0.63964   0.84297   0.48585   0.00000  Uiso   1.00
H432   H     0.46871   0.81945   0.09207   0.00000  Uiso   1.00
H433   H     0.38362   0.81264   0.41276   0.00000  Uiso   1.00
H434   H     0.41757   0.80280   0.05483   0.00000  Uiso   1.00
H435   H     0.35975   0.79799   0.00612   0.00000  Uiso   1.00
H436   H     0.56168   0.79703   0.36754   0.00000  Uiso   1.00
H437   H     0.57578   0.96273   0.25038   0.00000  Uiso   1.00
N438   N     0.38265   0.83332   0.24998   0.00000  Uiso   1.00
N439   N     0.61735   0.83335   0.24999   0.00000  Uiso   1.00
O440   O     0.46042   0.89345   0.25000   0.00000  Uiso   1.00
O441   O     0.53961   0.89346   0.25000   0.00000  Uiso   1.00
O442   O     0.44108   0.83332   0.32549   0.00000  Uiso   1.00
O443   O     0.52027   0.83333   0.32549   0.00000  Uiso   1.00
O444   O     0.46039   0.77321   0.24999   0.00000  Uiso   1.00
O445   O     0.53958   0.77322   0.24999   0.00000  Uiso   1.00
O446   O     0.47973   0.83334   0.17451   0.00000  Uiso   1.00
O447   O     0.55892   0.83335   0.17451   0.00000  Uiso   1.00
Br448  Br    0.64049   0.86189   0.09051   0.00000  Uiso   1.00
C449   C     0.83333   0.91265   0.25005   0.00000  Uiso   1.00
C450   C     0.81526   0.81294   0.48758   0.00000  Uiso   1.00
C451   C     0.83040   0.81274   0.43249   0.00000  Uiso   1.00
C452   C     0.85116   0.81965   0.01412   0.00000  Uiso   1.00
C453   C     0.90098   0.82412   0.48511   0.00000  Uiso   1.00
C454   C     0.91567   0.81563   0.43232   0.00000  Uiso   1.00
C455   C     0.88096   0.80783   0.40693   0.00000  Uiso   1.00
C456   C     0.83914   0.82370   0.06820   0.00000  Uiso   1.00
C457   C     0.92328   0.84169   0.06265   0.00000  Uiso   1.00
C458   C     0.79448   0.81722   0.40532   0.00000  Uiso   1.00
C459   C     0.87586   0.97873   0.25022   0.00000  Uiso   1.00
C460   C     0.80785   0.82825   0.34947   0.00000  Uiso   1.00
C461   C     0.87587   0.68796   0.25018   0.00000  Uiso   1.00
C462   C     0.83334   0.70941   0.24998   0.00000  Uiso   1.00
C463   C     0.79080   0.68794   0.24982   0.00000  Uiso   1.00
C464   C     0.79080   0.97871   0.24987   0.00000  Uiso   1.00
C465   C     0.83333   0.95726   0.25005   0.00000  Uiso   1.00
C466   C     0.96589   0.85757   0.28388   0.00000  Uiso   1.00
C467   C     0.68216   0.85751   0.28394   0.00000  Uiso   1.00
C468   C     0.70077   0.80909   0.21611   0.00000  Uiso   1.00
C469   C     0.98447   0.80908   0.21615   0.00000  Uiso   1.00
C470   C     0.83334   0.75402   0.24995   0.00000  Uiso   1.00
C471   C     0.85949   0.83425   0.14995   0.00000  Uiso   1.00
C472   C     0.93590   0.83649   0.00913   0.00000  Uiso   1.00
C473   C     0.87476   0.83346   0.09290   0.00000  Uiso   1.00
C474   C     0.74494   0.81176   0.43260   0.00000  Uiso   1.00
C475   C     0.73092   0.80444   0.48574   0.00000  Uiso   1.00
C476   C     0.76501   0.80680   0.01345   0.00000  Uiso   1.00
Cu477  Cu    0.78645   0.83333   0.25000   0.00000  Uiso   1.00
Cu478  Cu    0.88022   0.83334   0.25000   0.00000  Uiso   1.00
H479   H     0.90912   0.70398   0.25031   0.00000  Uiso   1.00
H480   H     0.75756   0.70394   0.24965   0.00000  Uiso   1.00
H481   H     0.75754   0.96269   0.24975   0.00000  Uiso   1.00
H482   H     0.93975   0.87700   0.31102   0.00000  Uiso   1.00
H483   H     0.69342   0.87688   0.31110   0.00000  Uiso   1.00
H484   H     0.72690   0.78963   0.18899   0.00000  Uiso   1.00
H485   H     0.97318   0.78963   0.18907   0.00000  Uiso   1.00
H486   H     0.95418   0.81488   0.41054   0.00000  Uiso   1.00
H487   H     0.97297   0.84297   0.48585   0.00000  Uiso   1.00
H488   H     0.80205   0.81945   0.09207   0.00000  Uiso   1.00
H489   H     0.71695   0.81264   0.41276   0.00000  Uiso   1.00
H490   H     0.75090   0.80280   0.05483   0.00000  Uiso   1.00
H491   H     0.69309   0.79799   0.00612   0.00000  Uiso   1.00
H492   H     0.89502   0.79703   0.36754   0.00000  Uiso   1.00
H493   H     0.90911   0.96273   0.25038   0.00000  Uiso   1.00
N494   N     0.71598   0.83332   0.24998   0.00000  Uiso   1.00
N495   N     0.95069   0.83335   0.24999   0.00000  Uiso   1.00
O496   O     0.79375   0.89345   0.25000   0.00000  Uiso   1.00
O497   O     0.87294   0.89346   0.25000   0.00000  Uiso   1.00
O498   O     0.77441   0.83332   0.32549   0.00000  Uiso   1.00
O499   O     0.85360   0.83333   0.32549   0.00000  Uiso   1.00
O500   O     0.79373   0.77321   0.24999   0.00000  Uiso   1.00
O501   O     0.87292   0.77322   0.24999   0.00000  Uiso   1.00
O502   O     0.81306   0.83334   0.17451   0.00000  Uiso   1.00
O503   O     0.89225   0.83335   0.17451   0.00000  Uiso   1.00
Br504  Br    0.97382   0.86189   0.09051   0.00000  Uiso   1.00
C505   C     0.16667   0.24598   0.75005   0.00000  Uiso   1.00
C506   C     0.14859   0.14627   0.98758   0.00000  Uiso   1.00
C507   C     0.16374   0.14608   0.93249   0.00000  Uiso   1.00
C508   C     0.18449   0.15298   0.51412   0.00000  Uiso   1.00
C509   C     0.23431   0.15746   0.98511   0.00000  Uiso   1.00
C510   C     0.24901   0.14897   0.93232   0.00000  Uiso   1.00
C511   C     0.21430   0.14117   0.90693   0.00000  Uiso   1.00
C512   C     0.17247   0.15704   0.56820   0.00000  Uiso   1.00
C513   C     0.25661   0.17502   0.56265   0.00000  Uiso   1.00
C514   C     0.12781   0.15056   0.90532   0.00000  Uiso   1.00
C515   C     0.20920   0.31206   0.75022   0.00000  Uiso   1.00
C516   C     0.14118   0.16158   0.84947   0.00000  Uiso   1.00
C517   C     0.20920   0.02130   0.75018   0.00000  Uiso   1.00
C518   C     0.16667   0.04274   0.74998   0.00000  Uiso   1.00
C519   C     0.12414   0.02127   0.74982   0.00000  Uiso   1.00
C520   C     0.12413   0.31204   0.74987   0.00000  Uiso   1.00
C521   C     0.16666   0.29060   0.75005   0.00000  Uiso   1.00
C522   C     0.29923   0.19091   0.78388   0.00000  Uiso   1.00
C523   C     0.01550   0.19084   0.78394   0.00000  Uiso   1.00
C524   C     0.03410   0.14242   0.71611   0.00000  Uiso   1.00
C525   C     0.31780   0.14241   0.71615   0.00000  Uiso   1.00
C526   C     0.16667   0.08735   0.74995   0.00000  Uiso   1.00
C527   C     0.19283   0.16758   0.64995   0.00000  Uiso   1.00
C528   C     0.26923   0.16982   0.50913   0.00000  Uiso   1.00
C529   C     0.20809   0.16680   0.59290   0.00000  Uiso   1.00
C530   C     0.07827   0.14509   0.93260   0.00000  Uiso   1.00
C531   C     0.06426   0.13778   0.98574   0.00000  Uiso   1.00
C532   C     0.09835   0.14013   0.51345   0.00000  Uiso   1.00
Cu533  Cu    0.11978   0.16666   0.75000   0.00000  Uiso   1.00
Cu534  Cu    0.21355   0.16667   0.75000   0.00000  Uiso   1.00
H535   H     0.24245   0.03732   0.75031   0.00000  Uiso   1.00
H536   H     0.09089   0.03728   0.74965   0.00000  Uiso   1.00
H537   H     0.09087   0.29603   0.74975   0.00000  Uiso   1.00
H538   H     0.27308   0.21034   0.81102   0.00000  Uiso   1.00
H539   H     0.02676   0.21022   0.81110   0.00000  Uiso   1.00
H540   H     0.06024   0.12297   0.68899   0.00000  Uiso   1.00
H541   H     0.30651   0.12297   0.68907   0.00000  Uiso   1.00
H542   H     0.28751   0.14821   0.91054   0.00000  Uiso   1.00
H543   H     0.30630   0.17630   0.98585   0.00000  Uiso   1.00
H544   H     0.13538   0.15279   0.59207   0.00000  Uiso   1.00
H545   H     0.05028   0.14598   0.91276   0.00000  Uiso   1.00
H546   H     0.08423   0.13613   0.55483   0.00000  Uiso   1.00
H547   H     0.02642   0.13133   0.50612   0.00000  Uiso   1.00
H548   H     0.22835   0.13037   0.86754   0.00000  Uiso   1.00
H549   H     0.24244   0.29606   0.75038   0.00000  Uiso   1.00
N550   N     0.04931   0.16666   0.74998   0.00000  Uiso   1.00
N551   N     0.28402   0.16669   0.74999   0.00000  Uiso   1.00
O552   O     0.12708   0.22678   0.75000   0.00000  Uiso   1.00
O553   O     0.20627   0.22679   0.75000   0.00000  Uiso   1.00
O554   O     0.10775   0.16665   0.82549   0.00000  Uiso   1.00
O555   O     0.18694   0.16666   0.82549   0.00000  Uiso   1.00
O556   O     0.12706   0.10654   0.74999   0.00000  Uiso   1.00
O557   O     0.20625   0.10655   0.74999   0.00000  Uiso   1.00
O558   O     0.14640   0.16667   0.67451   0.00000  Uiso   1.00
O559   O     0.22559   0.16668   0.67451   0.00000  Uiso   1.00
Br560  Br    0.30716   0.19522   0.59051   0.00000  Uiso   1.00
C561   C     0.50000   0.24598   0.75005   0.00000  Uiso   1.00
C562   C     0.48192   0.14627   0.98758   0.00000  Uiso   1.00
C563   C     0.49707   0.14608   0.93249   0.00000  Uiso   1.00
C564   C     0.51782   0.15298   0.51412   0.00000  Uiso   1.00
C565   C     0.56765   0.15746   0.98511   0.00000  Uiso   1.00
C566   C     0.58234   0.14897   0.93232   0.00000  Uiso   1.00
C567   C     0.54763   0.14117   0.90693   0.00000  Uiso   1.00
C568   C     0.50580   0.15704   0.56820   0.00000  Uiso   1.00
C569   C     0.58995   0.17502   0.56265   0.00000  Uiso   1.00
C570   C     0.46115   0.15056   0.90532   0.00000  Uiso   1.00
C571   C     0.54253   0.31206   0.75022   0.00000  Uiso   1.00
C572   C     0.47451   0.16158   0.84947   0.00000  Uiso   1.00
C573   C     0.54253   0.02130   0.75018   0.00000  Uiso   1.00
C574   C     0.50000   0.04274   0.74998   0.00000  Uiso   1.00
C575   C     0.45747   0.02127   0.74982   0.00000  Uiso   1.00
C576   C     0.45746   0.31204   0.74987   0.00000  Uiso   1.00
C577   C     0.50000   0.29060   0.75005   0.00000  Uiso   1.00
C578   C     0.63256   0.19091   0.78388   0.00000  Uiso   1.00
C579   C     0.34883   0.19084   0.78394   0.00000  Uiso   1.00
C580   C     0.36744   0.14242   0.71611   0.00000  Uiso   1.00
C581   C     0.65114   0.14241   0.71615   0.00000  Uiso   1.00
C582   C     0.50000   0.08735   0.74995   0.00000  Uiso   1.00
C583   C     0.52616   0.16758   0.64995   0.00000  Uiso   1.00
C584   C     0.60256   0.16982   0.50913   0.00000  Uiso   1.00
C585   C     0.54142   0.16680   0.59290   0.00000  Uiso   1.00
C586   C     0.41160   0.14509   0.93260   0.00000  Uiso   1.00
C587   C     0.39759   0.13778   0.98574   0.00000  Uiso   1.00
C588   C     0.43168   0.14013   0.51345   0.00000  Uiso   1.00
Cu589  Cu    0.45311   0.16666   0.75000   0.00000  Uiso   1.00
Cu590  Cu    0.54689   0.16667   0.75000   0.00000  Uiso   1.00
H591   H     0.57579   0.03732   0.75031   0.00000  Uiso   1.00
H592   H     0.42422   0.03728   0.74965   0.00000  Uiso   1.00
H593   H     0.42421   0.29603   0.74975   0.00000  Uiso   1.00
H594   H     0.60641   0.21034   0.81102   0.00000  Uiso   1.00
H595   H     0.36009   0.21022   0.81110   0.00000  Uiso   1.00
H596   H     0.39357   0.12297   0.68899   0.00000  Uiso   1.00
H597   H     0.63985   0.12297   0.68907   0.00000  Uiso   1.00
H598   H     0.62084   0.14821   0.91054   0.00000  Uiso   1.00
H599   H     0.63964   0.17630   0.98585   0.00000  Uiso   1.00
H600   H     0.46871   0.15279   0.59207   0.00000  Uiso   1.00
H601   H     0.38362   0.14598   0.91276   0.00000  Uiso   1.00
H602   H     0.41757   0.13613   0.55483   0.00000  Uiso   1.00
H603   H     0.35975   0.13133   0.50612   0.00000  Uiso   1.00
H604   H     0.56168   0.13037   0.86754   0.00000  Uiso   1.00
H605   H     0.57578   0.29606   0.75038   0.00000  Uiso   1.00
N606   N     0.38265   0.16666   0.74998   0.00000  Uiso   1.00
N607   N     0.61735   0.16669   0.74999   0.00000  Uiso   1.00
O608   O     0.46042   0.22678   0.75000   0.00000  Uiso   1.00
O609   O     0.53961   0.22679   0.75000   0.00000  Uiso   1.00
O610   O     0.44108   0.16665   0.82549   0.00000  Uiso   1.00
O611   O     0.52027   0.16666   0.82549   0.00000  Uiso   1.00
O612   O     0.46039   0.10654   0.74999   0.00000  Uiso   1.00
O613   O     0.53958   0.10655   0.74999   0.00000  Uiso   1.00
O614   O     0.47973   0.16667   0.67451   0.00000  Uiso   1.00
O615   O     0.55892   0.16668   0.67451   0.00000  Uiso   1.00
Br616  Br    0.64049   0.19522   0.59051   0.00000  Uiso   1.00
C617   C     0.83333   0.24598   0.75005   0.00000  Uiso   1.00
C618   C     0.81526   0.14627   0.98758   0.00000  Uiso   1.00
C619   C     0.83040   0.14608   0.93249   0.00000  Uiso   1.00
C620   C     0.85116   0.15298   0.51412   0.00000  Uiso   1.00
C621   C     0.90098   0.15746   0.98511   0.00000  Uiso   1.00
C622   C     0.91567   0.14897   0.93232   0.00000  Uiso   1.00
C623   C     0.88096   0.14117   0.90693   0.00000  Uiso   1.00
C624   C     0.83914   0.15704   0.56820   0.00000  Uiso   1.00
C625   C     0.92328   0.17502   0.56265   0.00000  Uiso   1.00
C626   C     0.79448   0.15056   0.90532   0.00000  Uiso   1.00
C627   C     0.87586   0.31206   0.75022   0.00000  Uiso   1.00
C628   C     0.80785   0.16158   0.84947   0.00000  Uiso   1.00
C629   C     0.87587   0.02130   0.75018   0.00000  Uiso   1.00
C630   C     0.83334   0.04274   0.74998   0.00000  Uiso   1.00
C631   C     0.79080   0.02127   0.74982   0.00000  Uiso   1.00
C632   C     0.79080   0.31204   0.74987   0.00000  Uiso   1.00
C633   C     0.83333   0.29060   0.75005   0.00000  Uiso   1.00
C634   C     0.96589   0.19091   0.78388   0.00000  Uiso   1.00
C635   C     0.68216   0.19084   0.78394   0.00000  Uiso   1.00
C636   C     0.70077   0.14242   0.71611   0.00000  Uiso   1.00
C637   C     0.98447   0.14241   0.71615   0.00000  Uiso   1.00
C638   C     0.83334   0.08735   0.74995   0.00000  Uiso   1.00
C639   C     0.85949   0.16758   0.64995   0.00000  Uiso   1.00
C640   C     0.93590   0.16982   0.50913   0.00000  Uiso   1.00
C641   C     0.87476   0.16680   0.59290   0.00000  Uiso   1.00
C642   C     0.74494   0.14509   0.93260   0.00000  Uiso   1.00
C643   C     0.73092   0.13778   0.98574   0.00000  Uiso   1.00
C644   C     0.76501   0.14013   0.51345   0.00000  Uiso   1.00
Cu645  Cu    0.78645   0.16666   0.75000   0.00000  Uiso   1.00
Cu646  Cu    0.88022   0.16667   0.75000   0.00000  Uiso   1.00
H647   H     0.90912   0.03732   0.75031   0.00000  Uiso   1.00
H648   H     0.75756   0.03728   0.74965   0.00000  Uiso   1.00
H649   H     0.75754   0.29603   0.74975   0.00000  Uiso   1.00
H650   H     0.93975   0.21034   0.81102   0.00000  Uiso   1.00
H651   H     0.69342   0.21022   0.81110   0.00000  Uiso   1.00
H652   H     0.72690   0.12297   0.68899   0.00000  Uiso   1.00
H653   H     0.97318   0.12297   0.68907   0.00000  Uiso   1.00
H654   H     0.95418   0.14821   0.91054   0.00000  Uiso   1.00
H655   H     0.97297   0.17630   0.98585   0.00000  Uiso   1.00
H656   H     0.80205   0.15279   0.59207   0.00000  Uiso   1.00
H657   H     0.71695   0.14598   0.91276   0.00000  Uiso   1.00
H658   H     0.75090   0.13613   0.55483   0.00000  Uiso   1.00
H659   H     0.69309   0.13133   0.50612   0.00000  Uiso   1.00
H660   H     0.89502   0.13037   0.86754   0.00000  Uiso   1.00
H661   H     0.90911   0.29606   0.75038   0.00000  Uiso   1.00
N662   N     0.71598   0.16666   0.74998   0.00000  Uiso   1.00
N663   N     0.95069   0.16669   0.74999   0.00000  Uiso   1.00
O664   O     0.79375   0.22678   0.75000   0.00000  Uiso   1.00
O665   O     0.87294   0.22679   0.75000   0.00000  Uiso   1.00
O666   O     0.77441   0.16665   0.82549   0.00000  Uiso   1.00
O667   O     0.85360   0.16666   0.82549   0.00000  Uiso   1.00
O668   O     0.79373   0.10654   0.74999   0.00000  Uiso   1.00
O669   O     0.87292   0.10655   0.74999   0.00000  Uiso   1.00
O670   O     0.81306   0.16667   0.67451   0.00000  Uiso   1.00
O671   O     0.89225   0.16668   0.67451   0.00000  Uiso   1.00
Br672  Br    0.97382   0.19522   0.59051   0.00000  Uiso   1.00
C673   C     0.16667   0.57931   0.75005   0.00000  Uiso   1.00
C674   C     0.14859   0.47961   0.98758   0.00000  Uiso   1.00
C675   C     0.16374   0.47941   0.93249   0.00000  Uiso   1.00
C676   C     0.18449   0.48631   0.51412   0.00000  Uiso   1.00
C677   C     0.23431   0.49079   0.98511   0.00000  Uiso   1.00
C678   C     0.24901   0.48230   0.93232   0.00000  Uiso   1.00
C679   C     0.21430   0.47450   0.90693   0.00000  Uiso   1.00
C680   C     0.17247   0.49037   0.56820   0.00000  Uiso   1.00
C681   C     0.25661   0.50835   0.56265   0.00000  Uiso   1.00
C682   C     0.12781   0.48389   0.90532   0.00000  Uiso   1.00
C683   C     0.20920   0.64540   0.75022   0.00000  Uiso   1.00
C684   C     0.14118   0.49492   0.84947   0.00000  Uiso   1.00
C685   C     0.20920   0.35463   0.75018   0.00000  Uiso   1.00
C686   C     0.16667   0.37607   0.74998   0.00000  Uiso   1.00
C687   C     0.12414   0.35461   0.74982   0.00000  Uiso   1.00
C688   C     0.12413   0.64538   0.74987   0.00000  Uiso   1.00
C689   C     0.16666   0.62393   0.75005   0.00000  Uiso   1.00
C690   C     0.29923   0.52424   0.78388   0.00000  Uiso   1.00
C691   C     0.01550   0.52417   0.78394   0.00000  Uiso   1.00
C692   C     0.03410   0.47576   0.71611   0.00000  Uiso   1.00
C693   C     0.31780   0.47574   0.71615   0.00000  Uiso   1.00
C694   C     0.16667   0.42068   0.74995   0.00000  Uiso   1.00
C695   C     0.19283   0.50092   0.64995   0.00000  Uiso   1.00
C696   C     0.26923   0.50315   0.50913   0.00000  Uiso   1.00
C697   C     0.20809   0.50013   0.59290   0.00000  Uiso   1.00
C698   C     0.07827   0.47843   0.93260   0.00000  Uiso   1.00
C699   C     0.06426   0.47111   0.98574   0.00000  Uiso   1.00
C700   C     0.09835   0.47346   0.51345   0.00000  Uiso   1.00
Cu701  Cu    0.11978   0.49999   0.75000   0.00000  Uiso   1.00
Cu702  Cu    0.21355   0.50001   0.75000   0.00000  Uiso   1.00
H703   H     0.24245   0.37065   0.75031   0.00000  Uiso   1.00
H704   H     0.09089   0.37061   0.74965   0.00000  Uiso   1.00
H705   H     0.09087   0.62936   0.74975   0.00000  Uiso   1.00
H706   H     0.27308   0.54367   0.81102   0.00000  Uiso   1.00
H707   H     0.02676   0.54355   0.81110   0.00000  Uiso   1.00
H708   H     0.06024   0.45630   0.68899   0.00000  Uiso   1.00
H709   H     0.30651   0.45630   0.68907   0.00000  Uiso   1.00
H710   H     0.28751   0.48154   0.91054   0.00000  Uiso   1.00
H711   H     0.30630   0.50963   0.98585   0.00000  Uiso   1.00
H712   H     0.13538   0.48612   0.59207   0.00000  Uiso   1.00
H713   H     0.05028   0.47931   0.91276   0.00000  Uiso   1.00
H714   H     0.08423   0.46946   0.55483   0.00000  Uiso   1.00
H715   H     0.02642   0.46466   0.50612   0.00000  Uiso   1.00
H716   H     0.22835   0.46370   0.86754   0.00000  Uiso   1.00
H717   H     0.24244   0.62939   0.75038   0.00000  Uiso   1.00
N718   N     0.04931   0.49999   0.74998   0.00000  Uiso   1.00
N719   N     0.28402   0.50002   0.74999   0.00000  Uiso   1.00
O720   O     0.12708   0.56011   0.75000   0.00000  Uiso   1.00
O721   O     0.20627   0.56012   0.75000   0.00000  Uiso   1.00
O722   O     0.10775   0.49998   0.82549   0.00000  Uiso   1.00
O723   O     0.18694   0.49999   0.82549   0.00000  Uiso   1.00
O724   O     0.12706   0.43988   0.74999   0.00000  Uiso   1.00
O725   O     0.20625   0.43989   0.74999   0.00000  Uiso   1.00
O726   O     0.14640   0.50001   0.67451   0.00000  Uiso   1.00
O727   O     0.22559   0.50002   0.67451   0.00000  Uiso   1.00
Br728  Br    0.30716   0.52855   0.59051   0.00000  Uiso   1.00
C729   C     0.50000   0.57931   0.75005   0.00000  Uiso   1.00
C730   C     0.48192   0.47961   0.98758   0.00000  Uiso   1.00
C731   C     0.49707   0.47941   0.93249   0.00000  Uiso   1.00
C732   C     0.51782   0.48631   0.51412   0.00000  Uiso   1.00
C733   C     0.56765   0.49079   0.98511   0.00000  Uiso   1.00
C734   C     0.58234   0.48230   0.93232   0.00000  Uiso   1.00
C735   C     0.54763   0.47450   0.90693   0.00000  Uiso   1.00
C736   C     0.50580   0.49037   0.56820   0.00000  Uiso   1.00
C737   C     0.58995   0.50835   0.56265   0.00000  Uiso   1.00
C738   C     0.46115   0.48389   0.90532   0.00000  Uiso   1.00
C739   C     0.54253   0.64540   0.75022   0.00000  Uiso   1.00
C740   C     0.47451   0.49492   0.84947   0.00000  Uiso   1.00
C741   C     0.54253   0.35463   0.75018   0.00000  Uiso   1.00
C742   C     0.50000   0.37607   0.74998   0.00000  Uiso   1.00
C743   C     0.45747   0.35461   0.74982   0.00000  Uiso   1.00
C744   C     0.45746   0.64538   0.74987   0.00000  Uiso   1.00
C745   C     0.50000   0.62393   0.75005   0.00000  Uiso   1.00
C746   C     0.63256   0.52424   0.78388   0.00000  Uiso   1.00
C747   C     0.34883   0.52417   0.78394   0.00000  Uiso   1.00
C748   C     0.36744   0.47576   0.71611   0.00000  Uiso   1.00
C749   C     0.65114   0.47574   0.71615   0.00000  Uiso   1.00
C750   C     0.50000   0.42068   0.74995   0.00000  Uiso   1.00
C751   C     0.52616   0.50092   0.64995   0.00000  Uiso   1.00
C752   C     0.60256   0.50315   0.50913   0.00000  Uiso   1.00
C753   C     0.54142   0.50013   0.59290   0.00000  Uiso   1.00
C754   C     0.41160   0.47843   0.93260   0.00000  Uiso   1.00
C755   C     0.39759   0.47111   0.98574   0.00000  Uiso   1.00
C756   C     0.43168   0.47346   0.51345   0.00000  Uiso   1.00
Cu757  Cu    0.45311   0.49999   0.75000   0.00000  Uiso   1.00
Cu758  Cu    0.54689   0.50001   0.75000   0.00000  Uiso   1.00
H759   H     0.57579   0.37065   0.75031   0.00000  Uiso   1.00
H760   H     0.42422   0.37061   0.74965   0.00000  Uiso   1.00
H761   H     0.42421   0.62936   0.74975   0.00000  Uiso   1.00
H762   H     0.60641   0.54367   0.81102   0.00000  Uiso   1.00
H763   H     0.36009   0.54355   0.81110   0.00000  Uiso   1.00
H764   H     0.39357   0.45630   0.68899   0.00000  Uiso   1.00
H765   H     0.63985   0.45630   0.68907   0.00000  Uiso   1.00
H766   H     0.62084   0.48154   0.91054   0.00000  Uiso   1.00
H767   H     0.63964   0.50963   0.98585   0.00000  Uiso   1.00
H768   H     0.46871   0.48612   0.59207   0.00000  Uiso   1.00
H769   H     0.38362   0.47931   0.91276   0.00000  Uiso   1.00
H770   H     0.41757   0.46946   0.55483   0.00000  Uiso   1.00
H771   H     0.35975   0.46466   0.50612   0.00000  Uiso   1.00
H772   H     0.56168   0.46370   0.86754   0.00000  Uiso   1.00
H773   H     0.57578   0.62939   0.75038   0.00000  Uiso   1.00
N774   N     0.38265   0.49999   0.74998   0.00000  Uiso   1.00
N775   N     0.61735   0.50002   0.74999   0.00000  Uiso   1.00
O776   O     0.46042   0.56011   0.75000   0.00000  Uiso   1.00
O777   O     0.53961   0.56012   0.75000   0.00000  Uiso   1.00
O778   O     0.44108   0.49998   0.82549   0.00000  Uiso   1.00
O779   O     0.52027   0.49999   0.82549   0.00000  Uiso   1.00
O780   O     0.46039   0.43988   0.74999   0.00000  Uiso   1.00
O781   O     0.53958   0.43989   0.74999   0.00000  Uiso   1.00
O782   O     0.47973   0.50001   0.67451   0.00000  Uiso   1.00
O783   O     0.55892   0.50002   0.67451   0.00000  Uiso   1.00
Br784  Br    0.64049   0.52855   0.59051   0.00000  Uiso   1.00
C785   C     0.83333   0.57931   0.75005   0.00000  Uiso   1.00
C786   C     0.81526   0.47961   0.98758   0.00000  Uiso   1.00
C787   C     0.83040   0.47941   0.93249   0.00000  Uiso   1.00
C788   C     0.85116   0.48631   0.51412   0.00000  Uiso   1.00
C789   C     0.90098   0.49079   0.98511   0.00000  Uiso   1.00
C790   C     0.91567   0.48230   0.93232   0.00000  Uiso   1.00
C791   C     0.88096   0.47450   0.90693   0.00000  Uiso   1.00
C792   C     0.83914   0.49037   0.56820   0.00000  Uiso   1.00
C793   C     0.92328   0.50835   0.56265   0.00000  Uiso   1.00
C794   C     0.79448   0.48389   0.90532   0.00000  Uiso   1.00
C795   C     0.87586   0.64540   0.75022   0.00000  Uiso   1.00
C796   C     0.80785   0.49492   0.84947   0.00000  Uiso   1.00
C797   C     0.87587   0.35463   0.75018   0.00000  Uiso   1.00
C798   C     0.83334   0.37607   0.74998   0.00000  Uiso   1.00
C799   C     0.79080   0.35461   0.74982   0.00000  Uiso   1.00
C800   C     0.79080   0.64538   0.74987   0.00000  Uiso   1.00
C801   C     0.83333   0.62393   0.75005   0.00000  Uiso   1.00
C802   C     0.96589   0.52424   0.78388   0.00000  Uiso   1.00
C803   C     0.68216   0.52417   0.78394   0.00000  Uiso   1.00
C804   C     0.70077   0.47576   0.71611   0.00000  Uiso   1.00
C805   C     0.98447   0.47574   0.71615   0.00000  Uiso   1.00
C806   C     0.83334   0.42068   0.74995   0.00000  Uiso   1.00
C807   C     0.85949   0.50092   0.64995   0.00000  Uiso   1.00
C808   C     0.93590   0.50315   0.50913   0.00000  Uiso   1.00
C809   C     0.87476   0.50013   0.59290   0.00000  Uiso   1.00
C810   C     0.74494   0.47843   0.93260   0.00000  Uiso   1.00
C811   C     0.73092   0.47111   0.98574   0.00000  Uiso   1.00
C812   C     0.76501   0.47346   0.51345   0.00000  Uiso   1.00
Cu813  Cu    0.78645   0.49999   0.75000   0.00000  Uiso   1.00
Cu814  Cu    0.88022   0.50001   0.75000   0.00000  Uiso   1.00
H815   H     0.90912   0.37065   0.75031   0.00000  Uiso   1.00
H816   H     0.75756   0.37061   0.74965   0.00000  Uiso   1.00
H817   H     0.75754   0.62936   0.74975   0.00000  Uiso   1.00
H818   H     0.93975   0.54367   0.81102   0.00000  Uiso   1.00
H819   H     0.69342   0.54355   0.81110   0.00000  Uiso   1.00
H820   H     0.72690   0.45630   0.68899   0.00000  Uiso   1.00
H821   H     0.97318   0.45630   0.68907   0.00000  Uiso   1.00
H822   H     0.95418   0.48154   0.91054   0.00000  Uiso   1.00
H823   H     0.97297   0.50963   0.98585   0.00000  Uiso   1.00
H824   H     0.80205   0.48612   0.59207   0.00000  Uiso   1.00
H825   H     0.71695   0.47931   0.91276   0.00000  Uiso   1.00
H826   H     0.75090   0.46946   0.55483   0.00000  Uiso   1.00
H827   H     0.69309   0.46466   0.50612   0.00000  Uiso   1.00
H828   H     0.89502   0.46370   0.86754   0.00000  Uiso   1.00
H829   H     0.90911   0.62939   0.75038   0.00000  Uiso   1.00
N830   N     0.71598   0.49999   0.74998   0.00000  Uiso   1.00
N831   N     0.95069   0.50002   0.74999   0.00000  Uiso   1.00
O832   O     0.79375   0.56011   0.75000   0.00000  Uiso   1.00
O833   O     0.87294   0.56012   0.75000   0.00000  Uiso   1.00
O834   O     0.77441   0.49998   0.82549   0.00000  Uiso   1.00
O835   O     0.85360   0.49999   0.82549   0.00000  Uiso   1.00
O836   O     0.79373   0.43988   0.74999   0.00000  Uiso   1.00
O837   O     0.87292   0.43989   0.74999   0.00000  Uiso   1.00
O838   O     0.81306   0.50001   0.67451   0.00000  Uiso   1.00
O839   O     0.89225   0.50002   0.67451   0.00000  Uiso   1.00
Br840  Br    0.97382   0.52855   0.59051   0.00000  Uiso   1.00
C841   C     0.16667   0.91265   0.75005   0.00000  Uiso   1.00
C842   C     0.14859   0.81294   0.98758   0.00000  Uiso   1.00
C843   C     0.16374   0.81274   0.93249   0.00000  Uiso   1.00
C844   C     0.18449   0.81965   0.51412   0.00000  Uiso   1.00
C845   C     0.23431   0.82412   0.98511   0.00000  Uiso   1.00
C846   C     0.24901   0.81563   0.93232   0.00000  Uiso   1.00
C847   C     0.21430   0.80783   0.90693   0.00000  Uiso   1.00
C848   C     0.17247   0.82370   0.56820   0.00000  Uiso   1.00
C849   C     0.25661   0.84169   0.56265   0.00000  Uiso   1.00
C850   C     0.12781   0.81722   0.90532   0.00000  Uiso   1.00
C851   C     0.20920   0.97873   0.75022   0.00000  Uiso   1.00
C852   C     0.14118   0.82825   0.84947   0.00000  Uiso   1.00
C853   C     0.20920   0.68796   0.75018   0.00000  Uiso   1.00
C854   C     0.16667   0.70941   0.74998   0.00000  Uiso   1.00
C855   C     0.12414   0.68794   0.74982   0.00000  Uiso   1.00
C856   C     0.12413   0.97871   0.74987   0.00000  Uiso   1.00
C857   C     0.16666   0.95726   0.75005   0.00000  Uiso   1.00
C858   C     0.29923   0.85757   0.78388   0.00000  Uiso   1.00
C859   C     0.01550   0.85751   0.78394   0.00000  Uiso   1.00
C860   C     0.03410   0.80909   0.71611   0.00000  Uiso   1.00
C861   C     0.31780   0.80908   0.71615   0.00000  Uiso   1.00
C862   C     0.16667   0.75402   0.74995   0.00000  Uiso   1.00
C863   C     0.19283   0.83425   0.64995   0.00000  Uiso   1.00
C864   C     0.26923   0.83649   0.50913   0.00000  Uiso   1.00
C865   C     0.20809   0.83346   0.59290   0.00000  Uiso   1.00
C866   C     0.07827   0.81176   0.93260   0.00000  Uiso   1.00
C867   C     0.06426   0.80444   0.98574   0.00000  Uiso   1.00
C868   C     0.09835   0.80680   0.51345   0.00000  Uiso   1.00
Cu869  Cu    0.11978   0.83333   0.75000   0.00000  Uiso   1.00
Cu870  Cu    0.21355   0.83334   0.75000   0.00000  Uiso   1.00
H871   H     0.24245   0.70398   0.75031   0.00000  Uiso   1.00
H872   H     0.09089   0.70394   0.74965   0.00000  Uiso   1.00
H873   H     0.09087   0.96269   0.74975   0.00000  Uiso   1.00
H874   H     0.27308   0.87700   0.81102   0.00000  Uiso   1.00
H875   H     0.02676   0.87688   0.81110   0.00000  Uiso   1.00
H876   H     0.06024   0.78963   0.68899   0.00000  Uiso   1.00
H877   H     0.30651   0.78963   0.68907   0.00000  Uiso   1.00
H878   H     0.28751   0.81488   0.91054   0.00000  Uiso   1.00
H879   H     0.30630   0.84297   0.98585   0.00000  Uiso   1.00
H880   H     0.13538   0.81945   0.59207   0.00000  Uiso   1.00
H881   H     0.05028   0.81264   0.91276   0.00000  Uiso   1.00
H882   H     0.08423   0.80280   0.55483   0.00000  Uiso   1.00
H883   H     0.02642   0.79799   0.50612   0.00000  Uiso   1.00
H884   H     0.22835   0.79703   0.86754   0.00000  Uiso   1.00
H885   H     0.24244   0.96273   0.75038   0.00000  Uiso   1.00
N886   N     0.04931   0.83332   0.74998   0.00000  Uiso   1.00
N887   N     0.28402   0.83335   0.74999   0.00000  Uiso   1.00
O888   O     0.12708   0.89345   0.75000   0.00000  Uiso   1.00
O889   O     0.20627   0.89346   0.75000   0.00000  Uiso   1.00
O890   O     0.10775   0.83332   0.82549   0.00000  Uiso   1.00
O891   O     0.18694   0.83333   0.82549   0.00000  Uiso   1.00
O892   O     0.12706   0.77321   0.74999   0.00000  Uiso   1.00
O893   O     0.20625   0.77322   0.74999   0.00000  Uiso   1.00
O894   O     0.14640   0.83334   0.67451   0.00000  Uiso   1.00
O895   O     0.22559   0.83335   0.67451   0.00000  Uiso   1.00
Br896  Br    0.30716   0.86189   0.59051   0.00000  Uiso   1.00
C897   C     0.50000   0.91265   0.75005   0.00000  Uiso   1.00
C898   C     0.48192   0.81294   0.98758   0.00000  Uiso   1.00
C899   C     0.49707   0.81274   0.93249   0.00000  Uiso   1.00
C900   C     0.51782   0.81965   0.51412   0.00000  Uiso   1.00
C901   C     0.56765   0.82412   0.98511   0.00000  Uiso   1.00
C902   C     0.58234   0.81563   0.93232   0.00000  Uiso   1.00
C903   C     0.54763   0.80783   0.90693   0.00000  Uiso   1.00
C904   C     0.50580   0.82370   0.56820   0.00000  Uiso   1.00
C905   C     0.58995   0.84169   0.56265   0.00000  Uiso   1.00
C906   C     0.46115   0.81722   0.90532   0.00000  Uiso   1.00
C907   C     0.54253   0.97873   0.75022   0.00000  Uiso   1.00
C908   C     0.47451   0.82825   0.84947   0.00000  Uiso   1.00
C909   C     0.54253   0.68796   0.75018   0.00000  Uiso   1.00
C910   C     0.50000   0.70941   0.74998   0.00000  Uiso   1.00
C911   C     0.45747   0.68794   0.74982   0.00000  Uiso   1.00
C912   C     0.45746   0.97871   0.74987   0.00000  Uiso   1.00
C913   C     0.50000   0.95726   0.75005   0.00000  Uiso   1.00
C914   C     0.63256   0.85757   0.78388   0.00000  Uiso   1.00
C915   C     0.34883   0.85751   0.78394   0.00000  Uiso   1.00
C916   C     0.36744   0.80909   0.71611   0.00000  Uiso   1.00
C917   C     0.65114   0.80908   0.71615   0.00000  Uiso   1.00
C918   C     0.50000   0.75402   0.74995   0.00000  Uiso   1.00
C919   C     0.52616   0.83425   0.64995   0.00000  Uiso   1.00
C920   C     0.60256   0.83649   0.50913   0.00000  Uiso   1.00
C921   C     0.54142   0.83346   0.59290   0.00000  Uiso   1.00
C922   C     0.41160   0.81176   0.93260   0.00000  Uiso   1.00
C923   C     0.39759   0.80444   0.98574   0.00000  Uiso   1.00
C924   C     0.43168   0.80680   0.51345   0.00000  Uiso   1.00
Cu925  Cu    0.45311   0.83333   0.75000   0.00000  Uiso   1.00
Cu926  Cu    0.54689   0.83334   0.75000   0.00000  Uiso   1.00
H927   H     0.57579   0.70398   0.75031   0.00000  Uiso   1.00
H928   H     0.42422   0.70394   0.74965   0.00000  Uiso   1.00
H929   H     0.42421   0.96269   0.74975   0.00000  Uiso   1.00
H930   H     0.60641   0.87700   0.81102   0.00000  Uiso   1.00
H931   H     0.36009   0.87688   0.81110   0.00000  Uiso   1.00
H932   H     0.39357   0.78963   0.68899   0.00000  Uiso   1.00
H933   H     0.63985   0.78963   0.68907   0.00000  Uiso   1.00
H934   H     0.62084   0.81488   0.91054   0.00000  Uiso   1.00
H935   H     0.63964   0.84297   0.98585   0.00000  Uiso   1.00
H936   H     0.46871   0.81945   0.59207   0.00000  Uiso   1.00
H937   H     0.38362   0.81264   0.91276   0.00000  Uiso   1.00
H938   H     0.41757   0.80280   0.55483   0.00000  Uiso   1.00
H939   H     0.35975   0.79799   0.50612   0.00000  Uiso   1.00
H940   H     0.56168   0.79703   0.86754   0.00000  Uiso   1.00
H941   H     0.57578   0.96273   0.75038   0.00000  Uiso   1.00
N942   N     0.38265   0.83332   0.74998   0.00000  Uiso   1.00
N943   N     0.61735   0.83335   0.74999   0.00000  Uiso   1.00
O944   O     0.46042   0.89345   0.75000   0.00000  Uiso   1.00
O945   O     0.53961   0.89346   0.75000   0.00000  Uiso   1.00
O946   O     0.44108   0.83332   0.82549   0.00000  Uiso   1.00
O947   O     0.52027   0.83333   0.82549   0.00000  Uiso   1.00
O948   O     0.46039   0.77321   0.74999   0.00000  Uiso   1.00
O949   O     0.53958   0.77322   0.74999   0.00000  Uiso   1.00
O950   O     0.47973   0.83334   0.67451   0.00000  Uiso   1.00
O951   O     0.55892   0.83335   0.67451   0.00000  Uiso   1.00
Br952  Br    0.64049   0.86189   0.59051   0.00000  Uiso   1.00
C953   C     0.83333   0.91265   0.75005   0.00000  Uiso   1.00
C954   C     0.81526   0.81294   0.98758   0.00000  Uiso   1.00
C955   C     0.83040   0.81274   0.93249   0.00000  Uiso   1.00
C956   C     0.85116   0.81965   0.51412   0.00000  Uiso   1.00
C957   C     0.90098   0.82412   0.98511   0.00000  Uiso   1.00
C958   C     0.91567   0.81563   0.93232   0.00000  Uiso   1.00
C959   C     0.88096   0.80783   0.90693   0.00000  Uiso   1.00
C960   C     0.83914   0.82370   0.56820   0.00000  Uiso   1.00
C961   C     0.92328   0.84169   0.56265   0.00000  Uiso   1.00
C962   C     0.79448   0.81722   0.90532   0.00000  Uiso   1.00
C963   C     0.87586   0.97873   0.75022   0.00000  Uiso   1.00
C964   C     0.80785   0.82825   0.84947   0.00000  Uiso   1.00
C965   C     0.87587   0.68796   0.75018   0.00000  Uiso   1.00
C966   C     0.83334   0.70941   0.74998   0.00000  Uiso   1.00
C967   C     0.79080   0.68794   0.74982   0.00000  Uiso   1.00
C968   C     0.79080   0.97871   0.74987   0.00000  Uiso   1.00
C969   C     0.83333   0.95726   0.75005   0.00000  Uiso   1.00
C970   C     0.96589   0.85757   0.78388   0.00000  Uiso   1.00
C971   C     0.68216   0.85751   0.78394   0.00000  Uiso   1.00
C972   C     0.70077   0.80909   0.71611   0.00000  Uiso   1.00
C973   C     0.98447   0.80908   0.71615   0.00000  Uiso   1.00
C974   C     0.83334   0.75402   0.74995   0.00000  Uiso   1.00
C975   C     0.85949   0.83425   0.64995   0.00000  Uiso   1.00
C976   C     0.93590   0.83649   0.50913   0.00000  Uiso   1.00
C977   C     0.87476   0.83346   0.59290   0.00000  Uiso   1.00
C978   C     0.74494   0.81176   0.93260   0.00000  Uiso   1.00
C979   C     0.73092   0.80444   0.98574   0.00000  Uiso   1.00
C980   C     0.76501   0.80680   0.51345   0.00000  Uiso   1.00
Cu981  Cu    0.78645   0.83333   0.75000   0.00000  Uiso   1.00
Cu982  Cu    0.88022   0.83334   0.75000   0.00000  Uiso   1.00
H983   H     0.90912   0.70398   0.75031   0.00000  Uiso   1.00
H984   H     0.75756   0.70394   0.74965   0.00000  Uiso   1.00
H985   H     0.75754   0.96269   0.74975   0.00000  Uiso   1.00
H986   H     0.93975   0.87700   0.81102   0.00000  Uiso   1.00
H987   H     0.69342   0.87688   0.81110   0.00000  Uiso   1.00
H988   H     0.72690   0.78963   0.68899   0.00000  Uiso   1.00
H989   H     0.97318   0.78963   0.68907   0.00000  Uiso   1.00
H990   H     0.95418   0.81488   0.91054   0.00000  Uiso   1.00
H991   H     0.97297   0.84297   0.98585   0.00000  Uiso   1.00
H992   H     0.80205   0.81945   0.59207   0.00000  Uiso   1.00
H993   H     0.71695   0.81264   0.91276   0.00000  Uiso   1.00
H994   H     0.75090   0.80280   0.55483   0.00000  Uiso   1.00
H995   H     0.69309   0.79799   0.50612   0.00000  Uiso   1.00
H996   H     0.89502   0.79703   0.86754   0.00000  Uiso   1.00
H997   H     0.90911   0.96273   0.75038   0.00000  Uiso   1.00
N998   N     0.71598   0.83332   0.74998   0.00000  Uiso   1.00
N999   N     0.95069   0.83335   0.74999   0.00000  Uiso   1.00
O1000  O     0.79375   0.89345   0.75000   0.00000  Uiso   1.00
O1001  O     0.87294   0.89346   0.75000   0.00000  Uiso   1.00
O1002  O     0.77441   0.83332   0.82549   0.00000  Uiso   1.00
O1003  O     0.85360   0.83333   0.82549   0.00000  Uiso   1.00
O1004  O     0.79373   0.77321   0.74999   0.00000  Uiso   1.00
O1005  O     0.87292   0.77322   0.74999   0.00000  Uiso   1.00
O1006  O     0.81306   0.83334   0.67451   0.00000  Uiso   1.00
O1007  O     0.89225   0.83335   0.67451   0.00000  Uiso   1.00
Br1008 Br    0.97382   0.86189   0.59051   0.00000  Uiso   1.00
loop_
_geom_bond_atom_site_label_1
_geom_bond_atom_site_label_2
_geom_bond_distance
_geom_bond_site_symmetry_2
_ccdc_geom_bond_type
C1     C17     1.450   .     S
C1     O48     1.291   .     A
C1     O49     1.291   .     A
C2     C3      1.419   .     A
C2     C508    1.426   .     S
C2     C532    1.414   .     S
C3     C10     1.430   .     A
C3     C7      1.415   .     A
C4     C8      1.402   .     A
C4     C506    1.426   1_554 S
C4     C509    1.416   1_554 S
C5     C6      1.387   .     A
C5     C508    1.416   .     S
C5     C528    1.395   .     S
C6     H38     1.085   .     S
C6     C7      1.381   .     A
C7     H44     1.077   .     S
C8     C25     1.404   .     A
C8     H40     1.075   .     S
C9     C24     1.390   .     A
C9     C25     1.413   .     A
C9     Br56    1.924   .     S
C10    C26     1.402   .     A
C10    C12     1.484   .     S
C11    H45     1.083   .     S
C11    C17     1.401   .     A
C11    C181    1.384   .     S
C12    O50     1.309   .     A
C12    O51     1.288   .     A
C13    C14     1.401   .     A
C13    H31     1.083   .     S
C13    C347    1.384   1_545 S
C14    C22     1.450   .     S
C14    C15     1.401   .     A
C15    H32     1.083   .     S
C15    C352    1.383   1_545 S
C16    H33     1.083   .     S
C16    C17     1.401   .     A
C16    C183    1.383   .     S
C18    N47     1.367   .     A
C18    H34     1.082   .     S
C18    C75     1.416   .     S
C19    N46     1.367   .     A
C19    H35     1.082   .     S
C19    C130    1.416   1_455 S
C20    H36     1.082   .     S
C20    N46     1.367   .     A
C20    C133    1.416   1_455 S
C21    H37     1.082   .     S
C21    N47     1.367   .     A
C21    C76     1.416   .     S
C22    O53     1.291   .     A
C22    O52     1.291   .     A
C23    O55     1.294   .     A
C23    C25     1.470   .     S
C23    O54     1.297   .     A
C24    C509    1.395   1_554 S
C24    H543    1.082   1_554 S
C26    C27     1.390   .     A
C26    H41     1.083   .     S
C27    C532    1.390   .     S
C27    H547    1.080   .     S
C28    H42     1.077   .     S
C28    C531    1.390   1_554 S
C28    C506    1.414   1_554 S
Cu29   N46     2.011   .     S
Cu29   Cu30    2.676   .     S
Cu29   O50     1.961   .     S
Cu29   O54     1.952   .     S
Cu29   O48     1.965   .     S
Cu29   O52     1.965   .     S
Cu30   O51     1.952   .     S
Cu30   O55     1.961   .     S
Cu30   O49     1.965   .     S
Cu30   O53     1.965   .     S
Cu30   N47     2.011   .     S
H39    C528    1.082   .     S
H43    C531    1.080   1_554 S
C57    C73     1.450   .     S
C57    O104    1.291   .     A
C57    O105    1.291   .     A
C58    C59     1.419   .     A
C58    C564    1.426   .     S
C58    C588    1.414   .     S
C59    C66     1.430   .     A
C59    C63     1.415   .     A
C60    C64     1.402   .     A
C60    C562    1.426   1_554 S
C60    C565    1.416   1_554 S
C61    C62     1.387   .     A
C61    C564    1.416   .     S
C61    C584    1.395   .     S
C62    H94     1.085   .     S
C62    C63     1.381   .     A
C63    H100    1.077   .     S
C64    C81     1.404   .     A
C64    H96     1.075   .     S
C65    C80     1.390   .     A
C65    C81     1.413   .     A
C65    Br112   1.924   .     S
C66    C82     1.402   .     A
C66    C68     1.484   .     S
C67    H101    1.083   .     S
C67    C73     1.401   .     A
C67    C237    1.384   .     S
C68    O106    1.309   .     A
C68    O107    1.288   .     A
C69    C70     1.401   .     A
C69    H87     1.083   .     S
C69    C403    1.384   1_545 S
C70    C78     1.450   .     S
C70    C71     1.401   .     A
C71    H88     1.083   .     S
C71    C408    1.383   1_545 S
C72    H89     1.083   .     S
C72    C73     1.401   .     A
C72    C239    1.383   .     S
C74    N103    1.367   .     A
C74    H90     1.082   .     S
C74    C131    1.416   .     S
C75    N102    1.367   .     A
C75    H91     1.082   .     S
C76    H92     1.082   .     S
C76    N102    1.367   .     A
C77    H93     1.082   .     S
C77    N103    1.367   .     A
C77    C132    1.416   .     S
C78    O109    1.291   .     A
C78    O108    1.291   .     A
C79    O111    1.294   .     A
C79    C81     1.470   .     S
C79    O110    1.297   .     A
C80    C565    1.395   1_554 S
C80    H599    1.082   1_554 S
C82    C83     1.390   .     A
C82    H97     1.083   .     S
C83    C588    1.390   .     S
C83    H603    1.080   .     S
C84    H98     1.077   .     S
C84    C587    1.390   1_554 S
C84    C562    1.414   1_554 S
Cu85   N102    2.011   .     S
Cu85   Cu86    2.676   .     S
Cu85   O106    1.961   .     S
Cu85   O110    1.952   .     S
Cu85   O104    1.965   .     S
Cu85   O108    1.965   .     S
Cu86   O107    1.952   .     S
Cu86   O111    1.961   .     S
Cu86   O105    1.965   .     S
Cu86   O109    1.965   .     S
Cu86   N103    2.011   .     S
H95    C584    1.082   .     S
H99    C587    1.080   1_554 S
C113   C129    1.450   .     S
C113   O160    1.291   .     A
C113   O161    1.291   .     A
C114   C115    1.419   .     A
C114   C620    1.426   .     S
C114   C644    1.414   .     S
C115   C122    1.430   .     A
C115   C119    1.415   .     A
C116   C120    1.402   .     A
C116   C618    1.426   1_554 S
C116   C621    1.416   1_554 S
C117   C118    1.387   .     A
C117   C620    1.416   .     S
C117   C640    1.395   .     S
C118   H150    1.085   .     S
C118   C119    1.381   .     A
C119   H156    1.077   .     S
C120   C137    1.404   .     A
C120   H152    1.075   .     S
C121   C136    1.390   .     A
C121   C137    1.413   .     A
C121   Br168   1.924   .     S
C122   C138    1.402   .     A
C122   C124    1.484   .     S
C123   H157    1.083   .     S
C123   C129    1.401   .     A
C123   C293    1.384   .     S
C124   O162    1.309   .     A
C124   O163    1.288   .     A
C125   C126    1.401   .     A
C125   H143    1.083   .     S
C125   C459    1.384   1_545 S
C126   C134    1.450   .     S
C126   C127    1.401   .     A
C127   H144    1.083   .     S
C127   C464    1.383   1_545 S
C128   H145    1.083   .     S
C128   C129    1.401   .     A
C128   C295    1.383   .     S
C130   N159    1.367   .     A
C130   H146    1.082   .     S
C130   C19     1.416   1_655 S
C131   N158    1.367   .     A
C131   H147    1.082   .     S
C132   H148    1.082   .     S
C132   N158    1.367   .     A
C133   H149    1.082   .     S
C133   N159    1.367   .     A
C133   C20     1.416   1_655 S
C134   O165    1.291   .     A
C134   O164    1.291   .     A
C135   O167    1.294   .     A
C135   C137    1.470   .     S
C135   O166    1.297   .     A
C136   C621    1.395   1_554 S
C136   H655    1.082   1_554 S
C138   C139    1.390   .     A
C138   H153    1.083   .     S
C139   C644    1.390   .     S
C139   H659    1.080   .     S
C140   H154    1.077   .     S
C140   C643    1.390   1_554 S
C140   C618    1.414   1_554 S
Cu141  N158    2.011   .     S
Cu141  Cu142   2.676   .     S
Cu141  O162    1.961   .     S
Cu141  O166    1.952   .     S
Cu141  O160    1.965   .     S
Cu141  O164    1.965   .     S
Cu142  O163    1.952   .     S
Cu142  O167    1.961   .     S
Cu142  O161    1.965   .     S
Cu142  O165    1.965   .     S
Cu142  N159    2.011   .     S
H151   C640    1.082   .     S
H155   C643    1.080   1_554 S
C169   C185    1.450   .     S
C169   O216    1.291   .     A
C169   O217    1.291   .     A
C170   C171    1.419   .     A
C170   C676    1.426   .     S
C170   C700    1.414   .     S
C171   C178    1.430   .     A
C171   C175    1.415   .     A
C172   C176    1.402   .     A
C172   C674    1.426   1_554 S
C172   C677    1.416   1_554 S
C173   C174    1.387   .     A
C173   C676    1.416   .     S
C173   C696    1.395   .     S
C174   H206    1.085   .     S
C174   C175    1.381   .     A
C175   H212    1.077   .     S
C176   C193    1.404   .     A
C176   H208    1.075   .     S
C177   C192    1.390   .     A
C177   C193    1.413   .     A
C177   Br224   1.924   .     S
C178   C194    1.402   .     A
C178   C180    1.484   .     S
C179   H213    1.083   .     S
C179   C185    1.401   .     A
C179   C349    1.384   .     S
C180   O218    1.309   .     A
C180   O219    1.288   .     A
C181   C182    1.401   .     A
C181   H199    1.083   .     S
C182   C190    1.450   .     S
C182   C183    1.401   .     A
C183   H200    1.083   .     S
C184   H201    1.083   .     S
C184   C185    1.401   .     A
C184   C351    1.383   .     S
C186   N215    1.367   .     A
C186   H202    1.082   .     S
C186   C243    1.416   .     S
C187   N214    1.367   .     A
C187   H203    1.082   .     S
C187   C298    1.416   1_455 S
C188   H204    1.082   .     S
C188   N214    1.367   .     A
C188   C301    1.416   1_455 S
C189   H205    1.082   .     S
C189   N215    1.367   .     A
C189   C244    1.416   .     S
C190   O221    1.291   .     A
C190   O220    1.291   .     A
C191   O223    1.294   .     A
C191   C193    1.470   .     S
C191   O222    1.297   .     A
C192   C677    1.395   1_554 S
C192   H711    1.082   1_554 S
C194   C195    1.390   .     A
C194   H209    1.083   .     S
C195   C700    1.390   .     S
C195   H715    1.080   .     S
C196   H210    1.077   .     S
C196   C699    1.390   1_554 S
C196   C674    1.414   1_554 S
Cu197  N214    2.011   .     S
Cu197  Cu198   2.676   .     S
Cu197  O218    1.961   .     S
Cu197  O222    1.952   .     S
Cu197  O216    1.965   .     S
Cu197  O220    1.965   .     S
Cu198  O219    1.952   .     S
Cu198  O223    1.961   .     S
Cu198  O217    1.965   .     S
Cu198  O221    1.965   .     S
Cu198  N215    2.011   .     S
H207   C696    1.082   .     S
H211   C699    1.080   1_554 S
C225   C241    1.450   .     S
C225   O272    1.291   .     A
C225   O273    1.291   .     A
C226   C227    1.419   .     A
C226   C732    1.426   .     S
C226   C756    1.414   .     S
C227   C234    1.430   .     A
C227   C231    1.415   .     A
C228   C232    1.402   .     A
C228   C730    1.426   1_554 S
C228   C733    1.416   1_554 S
C229   C230    1.387   .     A
C229   C732    1.416   .     S
C229   C752    1.395   .     S
C230   H262    1.085   .     S
C230   C231    1.381   .     A
C231   H268    1.077   .     S
C232   C249    1.404   .     A
C232   H264    1.075   .     S
C233   C248    1.390   .     A
C233   C249    1.413   .     A
C233   Br280   1.924   .     S
C234   C250    1.402   .     A
C234   C236    1.484   .     S
C235   H269    1.083   .     S
C235   C241    1.401   .     A
C235   C405    1.384   .     S
C236   O274    1.309   .     A
C236   O275    1.288   .     A
C237   C238    1.401   .     A
C237   H255    1.083   .     S
C238   C246    1.450   .     S
C238   C239    1.401   .     A
C239   H256    1.083   .     S
C240   H257    1.083   .     S
C240   C241    1.401   .     A
C240   C407    1.383   .     S
C242   N271    1.367   .     A
C242   H258    1.082   .     S
C242   C299    1.416   .     S
C243   N270    1.367   .     A
C243   H259    1.082   .     S
C244   H260    1.082   .     S
C244   N270    1.367   .     A
C245   H261    1.082   .     S
C245   N271    1.367   .     A
C245   C300    1.416   .     S
C246   O277    1.291   .     A
C246   O276    1.291   .     A
C247   O279    1.294   .     A
C247   C249    1.470   .     S
C247   O278    1.297   .     A
C248   C733    1.395   1_554 S
C248   H767    1.082   1_554 S
C250   C251    1.390   .     A
C250   H265    1.083   .     S
C251   C756    1.390   .     S
C251   H771    1.080   .     S
C252   H266    1.077   .     S
C252   C755    1.390   1_554 S
C252   C730    1.414   1_554 S
Cu253  N270    2.011   .     S
Cu253  Cu254   2.676   .     S
Cu253  O274    1.961   .     S
Cu253  O278    1.952   .     S
Cu253  O272    1.965   .     S
Cu253  O276    1.965   .     S
Cu254  O275    1.952   .     S
Cu254  O279    1.961   .     S
Cu254  O273    1.965   .     S
Cu254  O277    1.965   .     S
Cu254  N271    2.011   .     S
H263   C752    1.082   .     S
H267   C755    1.080   1_554 S
C281   C297    1.450   .     S
C281   O328    1.291   .     A
C281   O329    1.291   .     A
C282   C283    1.419   .     A
C282   C788    1.426   .     S
C282   C812    1.414   .     S
C283   C290    1.430   .     A
C283   C287    1.415   .     A
C284   C288    1.402   .     A
C284   C786    1.426   1_554 S
C284   C789    1.416   1_554 S
C285   C286    1.387   .     A
C285   C788    1.416   .     S
C285   C808    1.395   .     S
C286   H318    1.085   .     S
C286   C287    1.381   .     A
C287   H324    1.077   .     S
C288   C305    1.404   .     A
C288   H320    1.075   .     S
C289   C304    1.390   .     A
C289   C305    1.413   .     A
C289   Br336   1.924   .     S
C290   C306    1.402   .     A
C290   C292    1.484   .     S
C291   H325    1.083   .     S
C291   C297    1.401   .     A
C291   C461    1.384   .     S
C292   O330    1.309   .     A
C292   O331    1.288   .     A
C293   C294    1.401   .     A
C293   H311    1.083   .     S
C294   C302    1.450   .     S
C294   C295    1.401   .     A
C295   H312    1.083   .     S
C296   H313    1.083   .     S
C296   C297    1.401   .     A
C296   C463    1.383   .     S
C298   N327    1.367   .     A
C298   H314    1.082   .     S
C298   C187    1.416   1_655 S
C299   N326    1.367   .     A
C299   H315    1.082   .     S
C300   H316    1.082   .     S
C300   N326    1.367   .     A
C301   H317    1.082   .     S
C301   N327    1.367   .     A
C301   C188    1.416   1_655 S
C302   O333    1.291   .     A
C302   O332    1.291   .     A
C303   O335    1.294   .     A
C303   C305    1.470   .     S
C303   O334    1.297   .     A
C304   C789    1.395   1_554 S
C304   H823    1.082   1_554 S
C306   C307    1.390   .     A
C306   H321    1.083   .     S
C307   C812    1.390   .     S
C307   H827    1.080   .     S
C308   H322    1.077   .     S
C308   C811    1.390   1_554 S
C308   C786    1.414   1_554 S
Cu309  N326    2.011   .     S
Cu309  Cu310   2.676   .     S
Cu309  O330    1.961   .     S
Cu309  O334    1.952   .     S
Cu309  O328    1.965   .     S
Cu309  O332    1.965   .     S
Cu310  O331    1.952   .     S
Cu310  O335    1.961   .     S
Cu310  O329    1.965   .     S
Cu310  O333    1.965   .     S
Cu310  N327    2.011   .     S
H319   C808    1.082   .     S
H323   C811    1.080   1_554 S
C337   C353    1.450   .     S
C337   O384    1.291   .     A
C337   O385    1.291   .     A
C338   C339    1.419   .     A
C338   C844    1.426   .     S
C338   C868    1.414   .     S
C339   C346    1.430   .     A
C339   C343    1.415   .     A
C340   C344    1.402   .     A
C340   C842    1.426   1_554 S
C340   C845    1.416   1_554 S
C341   C342    1.387   .     A
C341   C844    1.416   .     S
C341   C864    1.395   .     S
C342   H374    1.085   .     S
C342   C343    1.381   .     A
C343   H380    1.077   .     S
C344   C361    1.404   .     A
C344   H376    1.075   .     S
C345   C360    1.390   .     A
C345   C361    1.413   .     A
C345   Br392   1.924   .     S
C346   C362    1.402   .     A
C346   C348    1.484   .     S
C347   H381    1.083   .     S
C347   C353    1.401   .     A
C347   C13     1.384   1_565 S
C348   O386    1.309   .     A
C348   O387    1.288   .     A
C349   C350    1.401   .     A
C349   H367    1.083   .     S
C350   C358    1.450   .     S
C350   C351    1.401   .     A
C351   H368    1.083   .     S
C352   H369    1.083   .     S
C352   C353    1.401   .     A
C352   C15     1.383   1_565 S
C354   N383    1.367   .     A
C354   H370    1.082   .     S
C354   C411    1.416   .     S
C355   N382    1.367   .     A
C355   H371    1.082   .     S
C355   C466    1.416   1_455 S
C356   H372    1.082   .     S
C356   N382    1.367   .     A
C356   C469    1.416   1_455 S
C357   H373    1.082   .     S
C357   N383    1.367   .     A
C357   C412    1.416   .     S
C358   O389    1.291   .     A
C358   O388    1.291   .     A
C359   O391    1.294   .     A
C359   C361    1.470   .     S
C359   O390    1.297   .     A
C360   C845    1.395   1_554 S
C360   H879    1.082   1_554 S
C362   C363    1.390   .     A
C362   H377    1.083   .     S
C363   C868    1.390   .     S
C363   H883    1.080   .     S
C364   H378    1.077   .     S
C364   C867    1.390   1_554 S
C364   C842    1.414   1_554 S
Cu365  N382    2.011   .     S
Cu365  Cu366   2.676   .     S
Cu365  O386    1.961   .     S
Cu365  O390    1.952   .     S
Cu365  O384    1.965   .     S
Cu365  O388    1.965   .     S
Cu366  O387    1.952   .     S
Cu366  O391    1.961   .     S
Cu366  O385    1.965   .     S
Cu366  O389    1.965   .     S
Cu366  N383    2.011   .     S
H375   C864    1.082   .     S
H379   C867    1.080   1_554 S
C393   C409    1.450   .     S
C393   O440    1.291   .     A
C393   O441    1.291   .     A
C394   C395    1.419   .     A
C394   C900    1.426   .     S
C394   C924    1.414   .     S
C395   C402    1.430   .     A
C395   C399    1.415   .     A
C396   C400    1.402   .     A
C396   C898    1.426   1_554 S
C396   C901    1.416   1_554 S
C397   C398    1.387   .     A
C397   C900    1.416   .     S
C397   C920    1.395   .     S
C398   H430    1.085   .     S
C398   C399    1.381   .     A
C399   H436    1.077   .     S
C400   C417    1.404   .     A
C400   H432    1.075   .     S
C401   C416    1.390   .     A
C401   C417    1.413   .     A
C401   Br448   1.924   .     S
C402   C418    1.402   .     A
C402   C404    1.484   .     S
C403   H437    1.083   .     S
C403   C409    1.401   .     A
C403   C69     1.384   1_565 S
C404   O442    1.309   .     A
C404   O443    1.288   .     A
C405   C406    1.401   .     A
C405   H423    1.083   .     S
C406   C414    1.450   .     S
C406   C407    1.401   .     A
C407   H424    1.083   .     S
C408   H425    1.083   .     S
C408   C409    1.401   .     A
C408   C71     1.383   1_565 S
C410   N439    1.367   .     A
C410   H426    1.082   .     S
C410   C467    1.416   .     S
C411   N438    1.367   .     A
C411   H427    1.082   .     S
C412   H428    1.082   .     S
C412   N438    1.367   .     A
C413   H429    1.082   .     S
C413   N439    1.367   .     A
C413   C468    1.416   .     S
C414   O445    1.291   .     A
C414   O444    1.291   .     A
C415   O447    1.294   .     A
C415   C417    1.470   .     S
C415   O446    1.297   .     A
C416   C901    1.395   1_554 S
C416   H935    1.082   1_554 S
C418   C419    1.390   .     A
C418   H433    1.083   .     S
C419   C924    1.390   .     S
C419   H939    1.080   .     S
C420   H434    1.077   .     S
C420   C923    1.390   1_554 S
C420   C898    1.414   1_554 S
Cu421  N438    2.011   .     S
Cu421  Cu422   2.676   .     S
Cu421  O442    1.961   .     S
Cu421  O446    1.952   .     S
Cu421  O440    1.965   .     S
Cu421  O444    1.965   .     S
Cu422  O443    1.952   .     S
Cu422  O447    1.961   .     S
Cu422  O441    1.965   .     S
Cu422  O445    1.965   .     S
Cu422  N439    2.011   .     S
H431   C920    1.082   .     S
H435   C923    1.080   1_554 S
C449   C465    1.450   .     S
C449   O496    1.291   .     A
C449   O497    1.291   .     A
C450   C451    1.419   .     A
C450   C956    1.426   .     S
C450   C980    1.414   .     S
C451   C458    1.430   .     A
C451   C455    1.415   .     A
C452   C456    1.402   .     A
C452   C954    1.426   1_554 S
C452   C957    1.416   1_554 S
C453   C454    1.387   .     A
C453   C956    1.416   .     S
C453   C976    1.395   .     S
C454   H486    1.085   .     S
C454   C455    1.381   .     A
C455   H492    1.077   .     S
C456   C473    1.404   .     A
C456   H488    1.075   .     S
C457   C472    1.390   .     A
C457   C473    1.413   .     A
C457   Br504   1.924   .     S
C458   C474    1.402   .     A
C458   C460    1.484   .     S
C459   H493    1.083   .     S
C459   C465    1.401   .     A
C459   C125    1.384   1_565 S
C460   O498    1.309   .     A
C460   O499    1.288   .     A
C461   C462    1.401   .     A
C461   H479    1.083   .     S
C462   C470    1.450   .     S
C462   C463    1.401   .     A
C463   H480    1.083   .     S
C464   H481    1.083   .     S
C464   C465    1.401   .     A
C464   C127    1.383   1_565 S
C466   N495    1.367   .     A
C466   H482    1.082   .     S
C466   C355    1.416   1_655 S
C467   N494    1.367   .     A
C467   H483    1.082   .     S
C468   H484    1.082   .     S
C468   N494    1.367   .     A
C469   H485    1.082   .     S
C469   N495    1.367   .     A
C469   C356    1.416   1_655 S
C470   O501    1.291   .     A
C470   O500    1.291   .     A
C471   O503    1.294   .     A
C471   C473    1.470   .     S
C471   O502    1.297   .     A
C472   C957    1.395   1_554 S
C472   H991    1.082   1_554 S
C474   C475    1.390   .     A
C474   H489    1.083   .     S
C475   C980    1.390   .     S
C475   H995    1.080   .     S
C476   H490    1.077   .     S
C476   C979    1.390   1_554 S
C476   C954    1.414   1_554 S
Cu477  N494    2.011   .     S
Cu477  Cu478   2.676   .     S
Cu477  O498    1.961   .     S
Cu477  O502    1.952   .     S
Cu477  O496    1.965   .     S
Cu477  O500    1.965   .     S
Cu478  O499    1.952   .     S
Cu478  O503    1.961   .     S
Cu478  O497    1.965   .     S
Cu478  O501    1.965   .     S
Cu478  N495    2.011   .     S
H487   C976    1.082   .     S
H491   C979    1.080   1_554 S
C505   C521    1.450   .     S
C505   O552    1.291   .     A
C505   O553    1.291   .     A
C506   C507    1.419   .     A
C506   C4      1.426   1_556 S
C506   C28     1.414   1_556 S
C507   C514    1.430   .     A
C507   C511    1.415   .     A
C508   C512    1.402   .     A
C509   C510    1.387   .     A
C509   C4      1.416   1_556 S
C509   C24     1.395   1_556 S
C510   H542    1.085   .     S
C510   C511    1.381   .     A
C511   H548    1.077   .     S
C512   C529    1.404   .     A
C512   H544    1.075   .     S
C513   C528    1.390   .     A
C513   C529    1.413   .     A
C513   Br560   1.924   .     S
C514   C530    1.402   .     A
C514   C516    1.484   .     S
C515   H549    1.083   .     S
C515   C521    1.401   .     A
C515   C685    1.384   .     S
C516   O554    1.309   .     A
C516   O555    1.288   .     A
C517   C518    1.401   .     A
C517   H535    1.083   .     S
C517   C851    1.384   1_545 S
C518   C526    1.450   .     S
C518   C519    1.401   .     A
C519   H536    1.083   .     S
C519   C856    1.383   1_545 S
C520   H537    1.083   .     S
C520   C521    1.401   .     A
C520   C687    1.383   .     S
C522   N551    1.367   .     A
C522   H538    1.082   .     S
C522   C579    1.416   .     S
C523   N550    1.367   .     A
C523   H539    1.082   .     S
C523   C634    1.416   1_455 S
C524   H540    1.082   .     S
C524   N550    1.367   .     A
C524   C637    1.416   1_455 S
C525   H541    1.082   .     S
C525   N551    1.367   .     A
C525   C580    1.416   .     S
C526   O557    1.291   .     A
C526   O556    1.291   .     A
C527   O559    1.294   .     A
C527   C529    1.470   .     S
C527   O558    1.297   .     A
C530   C531    1.390   .     A
C530   H545    1.083   .     S
C531   C28     1.390   1_556 S
C531   H43     1.080   1_556 S
C532   H546    1.077   .     S
Cu533  N550    2.011   .     S
Cu533  Cu534   2.676   .     S
Cu533  O554    1.961   .     S
Cu533  O558    1.952   .     S
Cu533  O552    1.965   .     S
Cu533  O556    1.965   .     S
Cu534  O555    1.952   .     S
Cu534  O559    1.961   .     S
Cu534  O553    1.965   .     S
Cu534  O557    1.965   .     S
Cu534  N551    2.011   .     S
H543   C24     1.082   1_556 S
C561   C577    1.450   .     S
C561   O608    1.291   .     A
C561   O609    1.291   .     A
C562   C563    1.419   .     A
C562   C60     1.426   1_556 S
C562   C84     1.414   1_556 S
C563   C570    1.430   .     A
C563   C567    1.415   .     A
C564   C568    1.402   .     A
C565   C566    1.387   .     A
C565   C60     1.416   1_556 S
C565   C80     1.395   1_556 S
C566   H598    1.085   .     S
C566   C567    1.381   .     A
C567   H604    1.077   .     S
C568   C585    1.404   .     A
C568   H600    1.075   .     S
C569   C584    1.390   .     A
C569   C585    1.413   .     A
C569   Br616   1.924   .     S
C570   C586    1.402   .     A
C570   C572    1.484   .     S
C571   H605    1.083   .     S
C571   C577    1.401   .     A
C571   C741    1.384   .     S
C572   O610    1.309   .     A
C572   O611    1.288   .     A
C573   C574    1.401   .     A
C573   H591    1.083   .     S
C573   C907    1.384   1_545 S
C574   C582    1.450   .     S
C574   C575    1.401   .     A
C575   H592    1.083   .     S
C575   C912    1.383   1_545 S
C576   H593    1.083   .     S
C576   C577    1.401   .     A
C576   C743    1.383   .     S
C578   N607    1.367   .     A
C578   H594    1.082   .     S
C578   C635    1.416   .     S
C579   N606    1.367   .     A
C579   H595    1.082   .     S
C580   H596    1.082   .     S
C580   N606    1.367   .     A
C581   H597    1.082   .     S
C581   N607    1.367   .     A
C581   C636    1.416   .     S
C582   O613    1.291   .     A
C582   O612    1.291   .     A
C583   O615    1.294   .     A
C583   C585    1.470   .     S
C583   O614    1.297   .     A
C586   C587    1.390   .     A
C586   H601    1.083   .     S
C587   C84     1.390   1_556 S
C587   H99     1.080   1_556 S
C588   H602    1.077   .     S
Cu589  N606    2.011   .     S
Cu589  Cu590   2.676   .     S
Cu589  O610    1.961   .     S
Cu589  O614    1.952   .     S
Cu589  O608    1.965   .     S
Cu589  O612    1.965   .     S
Cu590  O611    1.952   .     S
Cu590  O615    1.961   .     S
Cu590  O609    1.965   .     S
Cu590  O613    1.965   .     S
Cu590  N607    2.011   .     S
H599   C80     1.082   1_556 S
C617   C633    1.450   .     S
C617   O664    1.291   .     A
C617   O665    1.291   .     A
C618   C619    1.419   .     A
C618   C116    1.426   1_556 S
C618   C140    1.414   1_556 S
C619   C626    1.430   .     A
C619   C623    1.415   .     A
C620   C624    1.402   .     A
C621   C622    1.387   .     A
C621   C116    1.416   1_556 S
C621   C136    1.395   1_556 S
C622   H654    1.085   .     S
C622   C623    1.381   .     A
C623   H660    1.077   .     S
C624   C641    1.404   .     A
C624   H656    1.075   .     S
C625   C640    1.390   .     A
C625   C641    1.413   .     A
C625   Br672   1.924   .     S
C626   C642    1.402   .     A
C626   C628    1.484   .     S
C627   H661    1.083   .     S
C627   C633    1.401   .     A
C627   C797    1.384   .     S
C628   O666    1.309   .     A
C628   O667    1.288   .     A
C629   C630    1.401   .     A
C629   H647    1.083   .     S
C629   C963    1.384   1_545 S
C630   C638    1.450   .     S
C630   C631    1.401   .     A
C631   H648    1.083   .     S
C631   C968    1.383   1_545 S
C632   H649    1.083   .     S
C632   C633    1.401   .     A
C632   C799    1.383   .     S
C634   N663    1.367   .     A
C634   H650    1.082   .     S
C634   C523    1.416   1_655 S
C635   N662    1.367   .     A
C635   H651    1.082   .     S
C636   H652    1.082   .     S
C636   N662    1.367   .     A
C637   H653    1.082   .     S
C637   N663    1.367   .     A
C637   C524    1.416   1_655 S
C638   O669    1.291   .     A
C638   O668    1.291   .     A
C639   O671    1.294   .     A
C639   C641    1.470   .     S
C639   O670    1.297   .     A
C642   C643    1.390   .     A
C642   H657    1.083   .     S
C643   C140    1.390   1_556 S
C643   H155    1.080   1_556 S
C644   H658    1.077   .     S
Cu645  N662    2.011   .     S
Cu645  Cu646   2.676   .     S
Cu645  O666    1.961   .     S
Cu645  O670    1.952   .     S
Cu645  O664    1.965   .     S
Cu645  O668    1.965   .     S
Cu646  O667    1.952   .     S
Cu646  O671    1.961   .     S
Cu646  O665    1.965   .     S
Cu646  O669    1.965   .     S
Cu646  N663    2.011   .     S
H655   C136    1.082   1_556 S
C673   C689    1.450   .     S
C673   O720    1.291   .     A
C673   O721    1.291   .     A
C674   C675    1.419   .     A
C674   C172    1.426   1_556 S
C674   C196    1.414   1_556 S
C675   C682    1.430   .     A
C675   C679    1.415   .     A
C676   C680    1.402   .     A
C677   C678    1.387   .     A
C677   C172    1.416   1_556 S
C677   C192    1.395   1_556 S
C678   H710    1.085   .     S
C678   C679    1.381   .     A
C679   H716    1.077   .     S
C680   C697    1.404   .     A
C680   H712    1.075   .     S
C681   C696    1.390   .     A
C681   C697    1.413   .     A
C681   Br728   1.924   .     S
C682   C698    1.402   .     A
C682   C684    1.484   .     S
C683   H717    1.083   .     S
C683   C689    1.401   .     A
C683   C853    1.384   .     S
C684   O722    1.309   .     A
C684   O723    1.288   .     A
C685   C686    1.401   .     A
C685   H703    1.083   .     S
C686   C694    1.450   .     S
C686   C687    1.401   .     A
C687   H704    1.083   .     S
C688   H705    1.083   .     S
C688   C689    1.401   .     A
C688   C855    1.383   .     S
C690   N719    1.367   .     A
C690   H706    1.082   .     S
C690   C747    1.416   .     S
C691   N718    1.367   .     A
C691   H707    1.082   .     S
C691   C802    1.416   1_455 S
C692   H708    1.082   .     S
C692   N718    1.367   .     A
C692   C805    1.416   1_455 S
C693   H709    1.082   .     S
C693   N719    1.367   .     A
C693   C748    1.416   .     S
C694   O725    1.291   .     A
C694   O724    1.291   .     A
C695   O727    1.294   .     A
C695   C697    1.470   .     S
C695   O726    1.297   .     A
C698   C699    1.390   .     A
C698   H713    1.083   .     S
C699   C196    1.390   1_556 S
C699   H211    1.080   1_556 S
C700   H714    1.077   .     S
Cu701  N718    2.011   .     S
Cu701  Cu702   2.676   .     S
Cu701  O722    1.961   .     S
Cu701  O726    1.952   .     S
Cu701  O720    1.965   .     S
Cu701  O724    1.965   .     S
Cu702  O723    1.952   .     S
Cu702  O727    1.961   .     S
Cu702  O721    1.965   .     S
Cu702  O725    1.965   .     S
Cu702  N719    2.011   .     S
H711   C192    1.082   1_556 S
C729   C745    1.450   .     S
C729   O776    1.291   .     A
C729   O777    1.291   .     A
C730   C731    1.419   .     A
C730   C228    1.426   1_556 S
C730   C252    1.414   1_556 S
C731   C738    1.430   .     A
C731   C735    1.415   .     A
C732   C736    1.402   .     A
C733   C734    1.387   .     A
C733   C228    1.416   1_556 S
C733   C248    1.395   1_556 S
C734   H766    1.085   .     S
C734   C735    1.381   .     A
C735   H772    1.077   .     S
C736   C753    1.404   .     A
C736   H768    1.075   .     S
C737   C752    1.390   .     A
C737   C753    1.413   .     A
C737   Br784   1.924   .     S
C738   C754    1.402   .     A
C738   C740    1.484   .     S
C739   H773    1.083   .     S
C739   C745    1.401   .     A
C739   C909    1.384   .     S
C740   O778    1.309   .     A
C740   O779    1.288   .     A
C741   C742    1.401   .     A
C741   H759    1.083   .     S
C742   C750    1.450   .     S
C742   C743    1.401   .     A
C743   H760    1.083   .     S
C744   H761    1.083   .     S
C744   C745    1.401   .     A
C744   C911    1.383   .     S
C746   N775    1.367   .     A
C746   H762    1.082   .     S
C746   C803    1.416   .     S
C747   N774    1.367   .     A
C747   H763    1.082   .     S
C748   H764    1.082   .     S
C748   N774    1.367   .     A
C749   H765    1.082   .     S
C749   N775    1.367   .     A
C749   C804    1.416   .     S
C750   O781    1.291   .     A
C750   O780    1.291   .     A
C751   O783    1.294   .     A
C751   C753    1.470   .     S
C751   O782    1.297   .     A
C754   C755    1.390   .     A
C754   H769    1.083   .     S
C755   C252    1.390   1_556 S
C755   H267    1.080   1_556 S
C756   H770    1.077   .     S
Cu757  N774    2.011   .     S
Cu757  Cu758   2.676   .     S
Cu757  O778    1.961   .     S
Cu757  O782    1.952   .     S
Cu757  O776    1.965   .     S
Cu757  O780    1.965   .     S
Cu758  O779    1.952   .     S
Cu758  O783    1.961   .     S
Cu758  O777    1.965   .     S
Cu758  O781    1.965   .     S
Cu758  N775    2.011   .     S
H767   C248    1.082   1_556 S
C785   C801    1.450   .     S
C785   O832    1.291   .     A
C785   O833    1.291   .     A
C786   C787    1.419   .     A
C786   C284    1.426   1_556 S
C786   C308    1.414   1_556 S
C787   C794    1.430   .     A
C787   C791    1.415   .     A
C788   C792    1.402   .     A
C789   C790    1.387   .     A
C789   C284    1.416   1_556 S
C789   C304    1.395   1_556 S
C790   H822    1.085   .     S
C790   C791    1.381   .     A
C791   H828    1.077   .     S
C792   C809    1.404   .     A
C792   H824    1.075   .     S
C793   C808    1.390   .     A
C793   C809    1.413   .     A
C793   Br840   1.924   .     S
C794   C810    1.402   .     A
C794   C796    1.484   .     S
C795   H829    1.083   .     S
C795   C801    1.401   .     A
C795   C965    1.384   .     S
C796   O834    1.309   .     A
C796   O835    1.288   .     A
C797   C798    1.401   .     A
C797   H815    1.083   .     S
C798   C806    1.450   .     S
C798   C799    1.401   .     A
C799   H816    1.083   .     S
C800   H817    1.083   .     S
C800   C801    1.401   .     A
C800   C967    1.383   .     S
C802   N831    1.367   .     A
C802   H818    1.082   .     S
C802   C691    1.416   1_655 S
C803   N830    1.367   .     A
C803   H819    1.082   .     S
C804   H820    1.082   .     S
C804   N830    1.367   .     A
C805   H821    1.082   .     S
C805   N831    1.367   .     A
C805   C692    1.416   1_655 S
C806   O837    1.291   .     A
C806   O836    1.291   .     A
C807   O839    1.294   .     A
C807   C809    1.470   .     S
C807   O838    1.297   .     A
C810   C811    1.390   .     A
C810   H825    1.083   .     S
C811   C308    1.390   1_556 S
C811   H323    1.080   1_556 S
C812   H826    1.077   .     S
Cu813  N830    2.011   .     S
Cu813  Cu814   2.676   .     S
Cu813  O834    1.961   .     S
Cu813  O838    1.952   .     S
Cu813  O832    1.965   .     S
Cu813  O836    1.965   .     S
Cu814  O835    1.952   .     S
Cu814  O839    1.961   .     S
Cu814  O833    1.965   .     S
Cu814  O837    1.965   .     S
Cu814  N831    2.011   .     S
H823   C304    1.082   1_556 S
C841   C857    1.450   .     S
C841   O888    1.291   .     A
C841   O889    1.291   .     A
C842   C843    1.419   .     A
C842   C340    1.426   1_556 S
C842   C364    1.414   1_556 S
C843   C850    1.430   .     A
C843   C847    1.415   .     A
C844   C848    1.402   .     A
C845   C846    1.387   .     A
C845   C340    1.416   1_556 S
C845   C360    1.395   1_556 S
C846   H878    1.085   .     S
C846   C847    1.381   .     A
C847   H884    1.077   .     S
C848   C865    1.404   .     A
C848   H880    1.075   .     S
C849   C864    1.390   .     A
C849   C865    1.413   .     A
C849   Br896   1.924   .     S
C850   C866    1.402   .     A
C850   C852    1.484   .     S
C851   H885    1.083   .     S
C851   C857    1.401   .     A
C851   C517    1.384   1_565 S
C852   O890    1.309   .     A
C852   O891    1.288   .     A
C853   C854    1.401   .     A
C853   H871    1.083   .     S
C854   C862    1.450   .     S
C854   C855    1.401   .     A
C855   H872    1.083   .     S
C856   H873    1.083   .     S
C856   C857    1.401   .     A
C856   C519    1.383   1_565 S
C858   N887    1.367   .     A
C858   H874    1.082   .     S
C858   C915    1.416   .     S
C859   N886    1.367   .     A
C859   H875    1.082   .     S
C859   C970    1.416   1_455 S
C860   H876    1.082   .     S
C860   N886    1.367   .     A
C860   C973    1.416   1_455 S
C861   H877    1.082   .     S
C861   N887    1.367   .     A
C861   C916    1.416   .     S
C862   O893    1.291   .     A
C862   O892    1.291   .     A
C863   O895    1.294   .     A
C863   C865    1.470   .     S
C863   O894    1.297   .     A
C866   C867    1.390   .     A
C866   H881    1.083   .     S
C867   C364    1.390   1_556 S
C867   H379    1.080   1_556 S
C868   H882    1.077   .     S
Cu869  N886    2.011   .     S
Cu869  Cu870   2.676   .     S
Cu869  O890    1.961   .     S
Cu869  O894    1.952   .     S
Cu869  O888    1.965   .     S
Cu869  O892    1.965   .     S
Cu870  O891    1.952   .     S
Cu870  O895    1.961   .     S
Cu870  O889    1.965   .     S
Cu870  O893    1.965   .     S
Cu870  N887    2.011   .     S
H879   C360    1.082   1_556 S
C897   C913    1.450   .     S
C897   O944    1.291   .     A
C897   O945    1.291   .     A
C898   C899    1.419   .     A
C898   C396    1.426   1_556 S
C898   C420    1.414   1_556 S
C899   C906    1.430   .     A
C899   C903    1.415   .     A
C900   C904    1.402   .     A
C901   C902    1.387   .     A
C901   C396    1.416   1_556 S
C901   C416    1.395   1_556 S
C902   H934    1.085   .     S
C902   C903    1.381   .     A
C903   H940    1.077   .     S
C904   C921    1.404   .     A
C904   H936    1.075   .     S
C905   C920    1.390   .     A
C905   C921    1.413   .     A
C905   Br952   1.924   .     S
C906   C922    1.402   .     A
C906   C908    1.484   .     S
C907   H941    1.083   .     S
C907   C913    1.401   .     A
C907   C573    1.384   1_565 S
C908   O946    1.309   .     A
C908   O947    1.288   .     A
C909   C910    1.401   .     A
C909   H927    1.083   .     S
C910   C918    1.450   .     S
C910   C911    1.401   .     A
C911   H928    1.083   .     S
C912   H929    1.083   .     S
C912   C913    1.401   .     A
C912   C575    1.383   1_565 S
C914   N943    1.367   .     A
C914   H930    1.082   .     S
C914   C971    1.416   .     S
C915   N942    1.367   .     A
C915   H931    1.082   .     S
C916   H932    1.082   .     S
C916   N942    1.367   .     A
C917   H933    1.082   .     S
C917   N943    1.367   .     A
C917   C972    1.416   .     S
C918   O949    1.291   .     A
C918   O948    1.291   .     A
C919   O951    1.294   .     A
C919   C921    1.470   .     S
C919   O950    1.297   .     A
C922   C923    1.390   .     A
C922   H937    1.083   .     S
C923   C420    1.390   1_556 S
C923   H435    1.080   1_556 S
C924   H938    1.077   .     S
Cu925  N942    2.011   .     S
Cu925  Cu926   2.676   .     S
Cu925  O946    1.961   .     S
Cu925  O950    1.952   .     S
Cu925  O944    1.965   .     S
Cu925  O948    1.965   .     S
Cu926  O947    1.952   .     S
Cu926  O951    1.961   .     S
Cu926  O945    1.965   .     S
Cu926  O949    1.965   .     S
Cu926  N943    2.011   .     S
H935   C416    1.082   1_556 S
C953   C969    1.450   .     S
C953   O1000   1.291   .     A
C953   O1001   1.291   .     A
C954   C955    1.419   .     A
C954   C452    1.426   1_556 S
C954   C476    1.414   1_556 S
C955   C962    1.430   .     A
C955   C959    1.415   .     A
C956   C960    1.402   .     A
C957   C958    1.387   .     A
C957   C452    1.416   1_556 S
C957   C472    1.395   1_556 S
C958   H990    1.085   .     S
C958   C959    1.381   .     A
C959   H996    1.077   .     S
C960   C977    1.404   .     A
C960   H992    1.075   .     S
C961   C976    1.390   .     A
C961   C977    1.413   .     A
C961   Br1008  1.924   .     S
C962   C978    1.402   .     A
C962   C964    1.484   .     S
C963   H997    1.083   .     S
C963   C969    1.401   .     A
C963   C629    1.384   1_565 S
C964   O1002   1.309   .     A
C964   O1003   1.288   .     A
C965   C966    1.401   .     A
C965   H983    1.083   .     S
C966   C974    1.450   .     S
C966   C967    1.401   .     A
C967   H984    1.083   .     S
C968   H985    1.083   .     S
C968   C969    1.401   .     A
C968   C631    1.383   1_565 S
C970   N999    1.367   .     A
C970   H986    1.082   .     S
C970   C859    1.416   1_655 S
C971   N998    1.367   .     A
C971   H987    1.082   .     S
C972   H988    1.082   .     S
C972   N998    1.367   .     A
C973   H989    1.082   .     S
C973   N999    1.367   .     A
C973   C860    1.416   1_655 S
C974   O1005   1.291   .     A
C974   O1004   1.291   .     A
C975   O1007   1.294   .     A
C975   C977    1.470   .     S
C975   O1006   1.297   .     A
C978   C979    1.390   .     A
C978   H993    1.083   .     S
C979   C476    1.390   1_556 S
C979   H491    1.080   1_556 S
C980   H994    1.077   .     S
Cu981  N998    2.011   .     S
Cu981  Cu982   2.676   .     S
Cu981  O1002   1.961   .     S
Cu981  O1006   1.952   .     S
Cu981  O1000   1.965   .     S
Cu981  O1004   1.965   .     S
Cu982  O1003   1.952   .     S
Cu982  O1007   1.961   .     S
Cu982  O1001   1.965   .     S
Cu982  O1005   1.965   .     S
Cu982  N999    2.011   .     S
H991   C472    1.082   1_556 S
