data_str_m1_o10_o18_pcu_sym.16
_audit_creation_date              2020-01-03
_audit_creation_method            'Materials Studio'
_symmetry_space_group_name_H-M    'P1'
_symmetry_Int_Tables_number       1
_symmetry_cell_setting            triclinic
loop_
_symmetry_equiv_pos_as_xyz
  x,y,z
_cell_length_a                    32.7126
_cell_length_b                    32.5362
_cell_length_c                    35.3614
_cell_angle_alpha                 97.9596
_cell_angle_beta                  72.9145
_cell_angle_gamma                 99.5205
loop_
_atom_site_label
_atom_site_type_symbol
_atom_site_fract_x
_atom_site_fract_y
_atom_site_fract_z
_atom_site_U_iso_or_equiv
_atom_site_adp_type
_atom_site_occupancy
C1     C     0.05271   0.15925   0.25855   0.00000  Uiso   1.00
C2     C     0.22729   0.16772   0.45731   0.00000  Uiso   1.00
C3     C     0.24574   0.14296   0.47601   0.00000  Uiso   1.00
C4     C     0.28116   0.17381   0.24132   0.00000  Uiso   1.00
C5     C     0.22904   0.13954   0.01732   0.00000  Uiso   1.00
C6     C     0.19407   0.16126   0.03981   0.00000  Uiso   1.00
C7     C     0.24858   0.11707   0.03713   0.00000  Uiso   1.00
C8     C     0.23530   0.11718   0.07847   0.00000  Uiso   1.00
C9     C     0.17876   0.15803   0.08112   0.00000  Uiso   1.00
C10    C     0.32685   0.17904   0.24006   0.00000  Uiso   1.00
C11    C     0.00784   0.15388   0.25977   0.00000  Uiso   1.00
C12    C     0.10305   0.21907   0.42174   0.00000  Uiso   1.00
C13    C     0.18347   0.32282   0.23743   0.00000  Uiso   1.00
C14    C     0.15253   0.01176   0.26048   0.00000  Uiso   1.00
C15    C     0.15518   0.05610   0.25937   0.00000  Uiso   1.00
C16    C     0.17743   0.27786   0.24108   0.00000  Uiso   1.00
C17    C     0.18896   0.14497   0.14374   0.00000  Uiso   1.00
C18    C     0.14527   0.18746   0.35631   0.00000  Uiso   1.00
C19    C     0.13703   0.19714   0.39967   0.00000  Uiso   1.00
C20    C     0.19980   0.13763   0.10047   0.00000  Uiso   1.00
C21    C     0.09475   0.22736   0.46310   0.00000  Uiso   1.00
C22    C     0.09917   0.26624   0.04598   0.00000  Uiso   1.00
C23    C     0.16241   0.18298   0.41923   0.00000  Uiso   1.00
C24    C     0.02246   0.21458   0.21962   0.00000  Uiso   1.00
C25    C     0.01412   0.25592   0.23285   0.00000  Uiso   1.00
C26    C     0.04195   0.28947   0.21463   0.00000  Uiso   1.00
C27    C     0.07818   0.28201   0.18305   0.00000  Uiso   1.00
C28    C     0.08644   0.24097   0.16940   0.00000  Uiso   1.00
C29    C     0.05858   0.20732   0.18737   0.00000  Uiso   1.00
C30    C     0.31657   0.11367   0.27461   0.00000  Uiso   1.00
C31    C     0.22356   0.00791   0.20853   0.00000  Uiso   1.00
C32    C     0.26035   0.09697   0.09764   0.00000  Uiso   1.00
C33    C     0.26034   0.05338   0.09151   0.00000  Uiso   1.00
C34    C     0.15949   0.19595   0.45943   0.00000  Uiso   1.00
C35    C     0.28594   0.03440   0.10763   0.00000  Uiso   1.00
C36    C     0.31178   0.05879   0.12982   0.00000  Uiso   1.00
C37    C     0.31211   0.10221   0.13589   0.00000  Uiso   1.00
C38    C     0.28676   0.12132   0.11961   0.00000  Uiso   1.00
C39    C     0.28253   0.12060   0.45221   0.00000  Uiso   1.00
C40    C     0.32441   0.14218   0.44040   0.00000  Uiso   1.00
C41    C     0.02546   0.12063   0.41849   0.00000  Uiso   1.00
C42    C     0.01828   0.07751   0.40833   0.00000  Uiso   1.00
C43    C     0.30999   0.05586   0.41999   0.00000  Uiso   1.00
C44    C     0.27550   0.07730   0.44182   0.00000  Uiso   1.00
C45    C     0.12525   0.21898   0.48192   0.00000  Uiso   1.00
C46    C     0.05078   0.23740   0.48557   0.00000  Uiso   1.00
C47    C     0.03369   0.26998   0.47552   0.00000  Uiso   1.00
C48    C     0.32481   0.27771   0.49531   0.00000  Uiso   1.00
C49    C     0.29923   0.25293   0.02507   0.00000  Uiso   1.00
C50    C     0.31580   0.22039   0.03518   0.00000  Uiso   1.00
C51    C     0.02458   0.21243   0.01541   0.00000  Uiso   1.00
C52    C     0.25323   0.18223   0.41809   0.00000  Uiso   1.00
C53    C     0.18757   0.18304   0.47846   0.00000  Uiso   1.00
C54    C     0.17471   0.18473   0.02039   0.00000  Uiso   1.00
C55    C     0.14453   0.21188   0.04164   0.00000  Uiso   1.00
C56    C     0.12230   0.23136   0.02257   0.00000  Uiso   1.00
H57    H     0.27610   0.10122   0.02098   0.00000  Uiso   1.00
H58    H     0.09983   0.30801   0.16914   0.00000  Uiso   1.00
H59    H     0.11452   0.23526   0.14501   0.00000  Uiso   1.00
H60    H     0.06528   0.17569   0.17633   0.00000  Uiso   1.00
H61    H     0.29302   0.09557   0.26065   0.00000  Uiso   1.00
H62    H     0.24748   0.32131   0.19155   0.00000  Uiso   1.00
H63    H     0.24073   0.03421   0.07410   0.00000  Uiso   1.00
H64    H     0.28580   0.00079   0.10286   0.00000  Uiso   1.00
H65    H     0.33151   0.04404   0.14232   0.00000  Uiso   1.00
H66    H     0.33229   0.12109   0.15290   0.00000  Uiso   1.00
H67    H     0.28836   0.15508   0.12352   0.00000  Uiso   1.00
H68    H     0.12344   0.33020   0.28027   0.00000  Uiso   1.00
H69    H     0.33021   0.17560   0.44780   0.00000  Uiso   1.00
H70    H     0.05767   0.13727   0.40929   0.00000  Uiso   1.00
H71    H     0.04495   0.06090   0.39139   0.00000  Uiso   1.00
H72    H     0.30446   0.02246   0.41214   0.00000  Uiso   1.00
H73    H     0.24338   0.06023   0.45080   0.00000  Uiso   1.00
H74    H     0.05305   0.28940   0.45245   0.00000  Uiso   1.00
H75    H     0.31189   0.30287   0.48746   0.00000  Uiso   1.00
H76    H     0.26652   0.25885   0.04024   0.00000  Uiso   1.00
H77    H     0.29590   0.20112   0.05813   0.00000  Uiso   1.00
H78    H     0.03657   0.18648   0.02301   0.00000  Uiso   1.00
H79    H     0.15088   0.17196   0.09942   0.00000  Uiso   1.00
H80    H     0.27362   0.16202   0.39622   0.00000  Uiso   1.00
H81    H     0.08071   0.22653   0.40714   0.00000  Uiso   1.00
H82    H     0.18398   0.16092   0.40271   0.00000  Uiso   1.00
H83    H     0.14018   0.22096   0.07293   0.00000  Uiso   1.00
H84    H     0.08591   0.26604   0.07795   0.00000  Uiso   1.00
H85    H     0.31976   0.26215   0.25759   0.00000  Uiso   1.00
H86    H     0.03556   0.32127   0.22515   0.00000  Uiso   1.00
O87    O     0.16667   0.16667   0.25000   0.00000  Uiso   1.00
O88    O     0.15693   0.12393   0.16625   0.00000  Uiso   1.00
O89    O     0.12687   0.20646   0.33749   0.00000  Uiso   1.00
O90    O     0.21088   0.17493   0.15877   0.00000  Uiso   1.00
O91    O     0.17198   0.16135   0.33749   0.00000  Uiso   1.00
O92    O     0.09705   0.29667   0.03029   0.00000  Uiso   1.00
O93    O     0.32378   0.09962   0.30196   0.00000  Uiso   1.00
O94    O     0.23056   0.04498   0.20310   0.00000  Uiso   1.00
O95    O     0.25292   0.21761   0.41036   0.00000  Uiso   1.00
O96    O     0.17849   0.08101   0.27820   0.00000  Uiso   1.00
O97    O     0.14581   0.26136   0.26767   0.00000  Uiso   1.00
O98    O     0.07452   0.13251   0.23607   0.00000  Uiso   1.00
O99    O     0.26785   0.19179   0.21805   0.00000  Uiso   1.00
O100   O     0.06990   0.18960   0.27820   0.00000  Uiso   1.00
O101   O     0.25440   0.15277   0.26767   0.00000  Uiso   1.00
O102   O     0.13800   0.06903   0.23607   0.00000  Uiso   1.00
O103   O     0.20437   0.25527   0.21805   0.00000  Uiso   1.00
Zn104  Zn    0.19244   0.14090   0.28277   0.00000  Uiso   1.00
Zn105  Zn    0.13459   0.12378   0.22257   0.00000  Uiso   1.00
Zn106  Zn    0.21166   0.19664   0.21188   0.00000  Uiso   1.00
Zn107  Zn    0.12798   0.20535   0.28277   0.00000  Uiso   1.00
C108   C     0.38605   0.15925   0.25855   0.00000  Uiso   1.00
C109   C     0.56063   0.16772   0.45731   0.00000  Uiso   1.00
C110   C     0.57907   0.14296   0.47601   0.00000  Uiso   1.00
C111   C     0.61449   0.17381   0.24132   0.00000  Uiso   1.00
C112   C     0.56237   0.13954   0.01732   0.00000  Uiso   1.00
C113   C     0.52740   0.16126   0.03981   0.00000  Uiso   1.00
C114   C     0.58191   0.11707   0.03713   0.00000  Uiso   1.00
C115   C     0.56864   0.11718   0.07847   0.00000  Uiso   1.00
C116   C     0.51209   0.15803   0.08112   0.00000  Uiso   1.00
C117   C     0.66018   0.17904   0.24006   0.00000  Uiso   1.00
C118   C     0.34118   0.15388   0.25977   0.00000  Uiso   1.00
C119   C     0.43638   0.21907   0.42174   0.00000  Uiso   1.00
C120   C     0.51680   0.32282   0.23743   0.00000  Uiso   1.00
C121   C     0.48587   0.01176   0.26048   0.00000  Uiso   1.00
C122   C     0.48852   0.05610   0.25937   0.00000  Uiso   1.00
C123   C     0.51077   0.27786   0.24108   0.00000  Uiso   1.00
C124   C     0.52229   0.14497   0.14374   0.00000  Uiso   1.00
C125   C     0.47861   0.18746   0.35631   0.00000  Uiso   1.00
C126   C     0.47036   0.19714   0.39967   0.00000  Uiso   1.00
C127   C     0.53313   0.13763   0.10047   0.00000  Uiso   1.00
C128   C     0.42808   0.22736   0.46310   0.00000  Uiso   1.00
C129   C     0.43250   0.26624   0.04598   0.00000  Uiso   1.00
C130   C     0.49575   0.18298   0.41923   0.00000  Uiso   1.00
C131   C     0.35580   0.21458   0.21962   0.00000  Uiso   1.00
C132   C     0.34745   0.25592   0.23285   0.00000  Uiso   1.00
C133   C     0.37528   0.28947   0.21463   0.00000  Uiso   1.00
C134   C     0.41151   0.28201   0.18305   0.00000  Uiso   1.00
C135   C     0.41977   0.24097   0.16940   0.00000  Uiso   1.00
C136   C     0.39191   0.20732   0.18737   0.00000  Uiso   1.00
C137   C     0.64990   0.11367   0.27461   0.00000  Uiso   1.00
C138   C     0.55689   0.00791   0.20853   0.00000  Uiso   1.00
C139   C     0.59368   0.09697   0.09764   0.00000  Uiso   1.00
C140   C     0.59368   0.05338   0.09151   0.00000  Uiso   1.00
C141   C     0.49283   0.19595   0.45943   0.00000  Uiso   1.00
C142   C     0.61927   0.03440   0.10763   0.00000  Uiso   1.00
C143   C     0.64511   0.05879   0.12982   0.00000  Uiso   1.00
C144   C     0.64544   0.10221   0.13589   0.00000  Uiso   1.00
C145   C     0.62009   0.12132   0.11961   0.00000  Uiso   1.00
C146   C     0.61587   0.12060   0.45221   0.00000  Uiso   1.00
C147   C     0.65774   0.14218   0.44040   0.00000  Uiso   1.00
C148   C     0.35880   0.12063   0.41849   0.00000  Uiso   1.00
C149   C     0.35161   0.07751   0.40833   0.00000  Uiso   1.00
C150   C     0.64333   0.05586   0.41999   0.00000  Uiso   1.00
C151   C     0.60884   0.07730   0.44182   0.00000  Uiso   1.00
C152   C     0.45858   0.21898   0.48192   0.00000  Uiso   1.00
C153   C     0.38412   0.23740   0.48557   0.00000  Uiso   1.00
C154   C     0.36702   0.26998   0.47552   0.00000  Uiso   1.00
C155   C     0.65815   0.27771   0.49531   0.00000  Uiso   1.00
C156   C     0.63256   0.25293   0.02507   0.00000  Uiso   1.00
C157   C     0.64914   0.22039   0.03518   0.00000  Uiso   1.00
C158   C     0.35791   0.21243   0.01541   0.00000  Uiso   1.00
C159   C     0.58656   0.18223   0.41809   0.00000  Uiso   1.00
C160   C     0.52090   0.18304   0.47846   0.00000  Uiso   1.00
C161   C     0.50804   0.18473   0.02039   0.00000  Uiso   1.00
C162   C     0.47786   0.21188   0.04164   0.00000  Uiso   1.00
C163   C     0.45563   0.23136   0.02257   0.00000  Uiso   1.00
H164   H     0.60943   0.10122   0.02098   0.00000  Uiso   1.00
H165   H     0.43317   0.30801   0.16914   0.00000  Uiso   1.00
H166   H     0.44786   0.23526   0.14501   0.00000  Uiso   1.00
H167   H     0.39862   0.17569   0.17633   0.00000  Uiso   1.00
H168   H     0.62635   0.09557   0.26065   0.00000  Uiso   1.00
H169   H     0.58082   0.32131   0.19155   0.00000  Uiso   1.00
H170   H     0.57406   0.03421   0.07410   0.00000  Uiso   1.00
H171   H     0.61913   0.00079   0.10286   0.00000  Uiso   1.00
H172   H     0.66485   0.04404   0.14232   0.00000  Uiso   1.00
H173   H     0.66562   0.12109   0.15290   0.00000  Uiso   1.00
H174   H     0.62169   0.15508   0.12352   0.00000  Uiso   1.00
H175   H     0.45677   0.33020   0.28027   0.00000  Uiso   1.00
H176   H     0.66354   0.17560   0.44780   0.00000  Uiso   1.00
H177   H     0.39100   0.13727   0.40929   0.00000  Uiso   1.00
H178   H     0.37829   0.06090   0.39139   0.00000  Uiso   1.00
H179   H     0.63780   0.02246   0.41214   0.00000  Uiso   1.00
H180   H     0.57672   0.06023   0.45080   0.00000  Uiso   1.00
H181   H     0.38639   0.28940   0.45245   0.00000  Uiso   1.00
H182   H     0.64523   0.30287   0.48746   0.00000  Uiso   1.00
H183   H     0.59985   0.25885   0.04024   0.00000  Uiso   1.00
H184   H     0.62924   0.20112   0.05813   0.00000  Uiso   1.00
H185   H     0.36990   0.18648   0.02301   0.00000  Uiso   1.00
H186   H     0.48422   0.17196   0.09942   0.00000  Uiso   1.00
H187   H     0.60695   0.16202   0.39622   0.00000  Uiso   1.00
H188   H     0.41404   0.22653   0.40714   0.00000  Uiso   1.00
H189   H     0.51732   0.16092   0.40271   0.00000  Uiso   1.00
H190   H     0.47351   0.22096   0.07293   0.00000  Uiso   1.00
H191   H     0.41924   0.26604   0.07795   0.00000  Uiso   1.00
H192   H     0.65309   0.26215   0.25759   0.00000  Uiso   1.00
H193   H     0.36890   0.32127   0.22515   0.00000  Uiso   1.00
O194   O     0.50000   0.16667   0.25000   0.00000  Uiso   1.00
O195   O     0.49027   0.12393   0.16625   0.00000  Uiso   1.00
O196   O     0.46020   0.20646   0.33749   0.00000  Uiso   1.00
O197   O     0.54421   0.17493   0.15877   0.00000  Uiso   1.00
O198   O     0.50532   0.16135   0.33749   0.00000  Uiso   1.00
O199   O     0.43038   0.29667   0.03029   0.00000  Uiso   1.00
O200   O     0.65711   0.09962   0.30196   0.00000  Uiso   1.00
O201   O     0.56390   0.04498   0.20310   0.00000  Uiso   1.00
O202   O     0.58625   0.21761   0.41036   0.00000  Uiso   1.00
O203   O     0.51182   0.08101   0.27820   0.00000  Uiso   1.00
O204   O     0.47914   0.26136   0.26767   0.00000  Uiso   1.00
O205   O     0.40785   0.13251   0.23607   0.00000  Uiso   1.00
O206   O     0.60119   0.19179   0.21805   0.00000  Uiso   1.00
O207   O     0.40323   0.18960   0.27820   0.00000  Uiso   1.00
O208   O     0.58773   0.15277   0.26767   0.00000  Uiso   1.00
O209   O     0.47133   0.06903   0.23607   0.00000  Uiso   1.00
O210   O     0.53771   0.25527   0.21805   0.00000  Uiso   1.00
Zn211  Zn    0.52577   0.14090   0.28277   0.00000  Uiso   1.00
Zn212  Zn    0.46792   0.12378   0.22257   0.00000  Uiso   1.00
Zn213  Zn    0.54500   0.19664   0.21188   0.00000  Uiso   1.00
Zn214  Zn    0.46131   0.20535   0.28277   0.00000  Uiso   1.00
C215   C     0.71938   0.15925   0.25855   0.00000  Uiso   1.00
C216   C     0.89396   0.16772   0.45731   0.00000  Uiso   1.00
C217   C     0.91241   0.14296   0.47601   0.00000  Uiso   1.00
C218   C     0.94783   0.17381   0.24132   0.00000  Uiso   1.00
C219   C     0.89570   0.13954   0.01732   0.00000  Uiso   1.00
C220   C     0.86073   0.16126   0.03981   0.00000  Uiso   1.00
C221   C     0.91525   0.11707   0.03713   0.00000  Uiso   1.00
C222   C     0.90197   0.11718   0.07847   0.00000  Uiso   1.00
C223   C     0.84543   0.15803   0.08112   0.00000  Uiso   1.00
C224   C     0.99351   0.17904   0.24006   0.00000  Uiso   1.00
C225   C     0.67451   0.15388   0.25977   0.00000  Uiso   1.00
C226   C     0.76972   0.21907   0.42174   0.00000  Uiso   1.00
C227   C     0.85014   0.32282   0.23743   0.00000  Uiso   1.00
C228   C     0.81920   0.01176   0.26048   0.00000  Uiso   1.00
C229   C     0.82185   0.05610   0.25937   0.00000  Uiso   1.00
C230   C     0.84410   0.27786   0.24108   0.00000  Uiso   1.00
C231   C     0.85562   0.14497   0.14374   0.00000  Uiso   1.00
C232   C     0.81194   0.18746   0.35631   0.00000  Uiso   1.00
C233   C     0.80369   0.19714   0.39967   0.00000  Uiso   1.00
C234   C     0.86646   0.13763   0.10047   0.00000  Uiso   1.00
C235   C     0.76142   0.22736   0.46310   0.00000  Uiso   1.00
C236   C     0.76583   0.26624   0.04598   0.00000  Uiso   1.00
C237   C     0.82908   0.18298   0.41923   0.00000  Uiso   1.00
C238   C     0.68913   0.21458   0.21962   0.00000  Uiso   1.00
C239   C     0.68079   0.25592   0.23285   0.00000  Uiso   1.00
C240   C     0.70862   0.28947   0.21463   0.00000  Uiso   1.00
C241   C     0.74485   0.28201   0.18305   0.00000  Uiso   1.00
C242   C     0.75310   0.24097   0.16940   0.00000  Uiso   1.00
C243   C     0.72525   0.20732   0.18737   0.00000  Uiso   1.00
C244   C     0.98324   0.11367   0.27461   0.00000  Uiso   1.00
C245   C     0.89022   0.00791   0.20853   0.00000  Uiso   1.00
C246   C     0.92701   0.09697   0.09764   0.00000  Uiso   1.00
C247   C     0.92701   0.05338   0.09151   0.00000  Uiso   1.00
C248   C     0.82616   0.19595   0.45943   0.00000  Uiso   1.00
C249   C     0.95260   0.03440   0.10763   0.00000  Uiso   1.00
C250   C     0.97845   0.05879   0.12982   0.00000  Uiso   1.00
C251   C     0.97877   0.10221   0.13589   0.00000  Uiso   1.00
C252   C     0.95343   0.12132   0.11961   0.00000  Uiso   1.00
C253   C     0.94920   0.12060   0.45221   0.00000  Uiso   1.00
C254   C     0.99108   0.14218   0.44040   0.00000  Uiso   1.00
C255   C     0.69213   0.12063   0.41849   0.00000  Uiso   1.00
C256   C     0.68495   0.07751   0.40833   0.00000  Uiso   1.00
C257   C     0.97666   0.05586   0.41999   0.00000  Uiso   1.00
C258   C     0.94217   0.07730   0.44182   0.00000  Uiso   1.00
C259   C     0.79192   0.21898   0.48192   0.00000  Uiso   1.00
C260   C     0.71745   0.23740   0.48557   0.00000  Uiso   1.00
C261   C     0.70035   0.26998   0.47552   0.00000  Uiso   1.00
C262   C     0.99148   0.27771   0.49531   0.00000  Uiso   1.00
C263   C     0.96589   0.25293   0.02507   0.00000  Uiso   1.00
C264   C     0.98247   0.22039   0.03518   0.00000  Uiso   1.00
C265   C     0.69125   0.21243   0.01541   0.00000  Uiso   1.00
C266   C     0.91989   0.18223   0.41809   0.00000  Uiso   1.00
C267   C     0.85423   0.18304   0.47846   0.00000  Uiso   1.00
C268   C     0.84137   0.18473   0.02039   0.00000  Uiso   1.00
C269   C     0.81120   0.21188   0.04164   0.00000  Uiso   1.00
C270   C     0.78896   0.23136   0.02257   0.00000  Uiso   1.00
H271   H     0.94276   0.10122   0.02098   0.00000  Uiso   1.00
H272   H     0.76650   0.30801   0.16914   0.00000  Uiso   1.00
H273   H     0.78119   0.23526   0.14501   0.00000  Uiso   1.00
H274   H     0.73195   0.17569   0.17633   0.00000  Uiso   1.00
H275   H     0.95969   0.09557   0.26065   0.00000  Uiso   1.00
H276   H     0.91415   0.32131   0.19155   0.00000  Uiso   1.00
H277   H     0.90740   0.03421   0.07410   0.00000  Uiso   1.00
H278   H     0.95246   0.00079   0.10286   0.00000  Uiso   1.00
H279   H     0.99818   0.04404   0.14232   0.00000  Uiso   1.00
H280   H     0.99896   0.12109   0.15290   0.00000  Uiso   1.00
H281   H     0.95503   0.15508   0.12352   0.00000  Uiso   1.00
H282   H     0.79011   0.33020   0.28027   0.00000  Uiso   1.00
H283   H     0.99687   0.17560   0.44780   0.00000  Uiso   1.00
H284   H     0.72433   0.13727   0.40929   0.00000  Uiso   1.00
H285   H     0.71162   0.06090   0.39139   0.00000  Uiso   1.00
H286   H     0.97113   0.02246   0.41214   0.00000  Uiso   1.00
H287   H     0.91005   0.06023   0.45080   0.00000  Uiso   1.00
H288   H     0.71972   0.28940   0.45245   0.00000  Uiso   1.00
H289   H     0.97856   0.30287   0.48746   0.00000  Uiso   1.00
H290   H     0.93319   0.25885   0.04024   0.00000  Uiso   1.00
H291   H     0.96257   0.20112   0.05813   0.00000  Uiso   1.00
H292   H     0.70324   0.18648   0.02301   0.00000  Uiso   1.00
H293   H     0.81755   0.17196   0.09942   0.00000  Uiso   1.00
H294   H     0.94029   0.16202   0.39622   0.00000  Uiso   1.00
H295   H     0.74737   0.22653   0.40714   0.00000  Uiso   1.00
H296   H     0.85065   0.16092   0.40271   0.00000  Uiso   1.00
H297   H     0.80684   0.22096   0.07293   0.00000  Uiso   1.00
H298   H     0.75257   0.26604   0.07795   0.00000  Uiso   1.00
H299   H     0.98643   0.26215   0.25759   0.00000  Uiso   1.00
H300   H     0.70223   0.32127   0.22515   0.00000  Uiso   1.00
O301   O     0.83333   0.16667   0.25000   0.00000  Uiso   1.00
O302   O     0.82360   0.12393   0.16625   0.00000  Uiso   1.00
O303   O     0.79354   0.20646   0.33749   0.00000  Uiso   1.00
O304   O     0.87755   0.17493   0.15877   0.00000  Uiso   1.00
O305   O     0.83865   0.16135   0.33749   0.00000  Uiso   1.00
O306   O     0.76372   0.29667   0.03029   0.00000  Uiso   1.00
O307   O     0.99044   0.09962   0.30196   0.00000  Uiso   1.00
O308   O     0.89723   0.04498   0.20310   0.00000  Uiso   1.00
O309   O     0.91959   0.21761   0.41036   0.00000  Uiso   1.00
O310   O     0.84515   0.08101   0.27820   0.00000  Uiso   1.00
O311   O     0.81247   0.26136   0.26767   0.00000  Uiso   1.00
O312   O     0.74119   0.13251   0.23607   0.00000  Uiso   1.00
O313   O     0.93452   0.19179   0.21805   0.00000  Uiso   1.00
O314   O     0.73656   0.18960   0.27820   0.00000  Uiso   1.00
O315   O     0.92106   0.15277   0.26767   0.00000  Uiso   1.00
O316   O     0.80467   0.06903   0.23607   0.00000  Uiso   1.00
O317   O     0.87104   0.25527   0.21805   0.00000  Uiso   1.00
Zn318  Zn    0.85910   0.14090   0.28277   0.00000  Uiso   1.00
Zn319  Zn    0.80125   0.12378   0.22257   0.00000  Uiso   1.00
Zn320  Zn    0.87833   0.19664   0.21188   0.00000  Uiso   1.00
Zn321  Zn    0.79465   0.20535   0.28277   0.00000  Uiso   1.00
C322   C     0.05271   0.49259   0.25855   0.00000  Uiso   1.00
C323   C     0.22729   0.50105   0.45731   0.00000  Uiso   1.00
C324   C     0.24574   0.47629   0.47601   0.00000  Uiso   1.00
C325   C     0.28116   0.50714   0.24132   0.00000  Uiso   1.00
C326   C     0.22904   0.47287   0.01732   0.00000  Uiso   1.00
C327   C     0.19407   0.49459   0.03981   0.00000  Uiso   1.00
C328   C     0.24858   0.45040   0.03713   0.00000  Uiso   1.00
C329   C     0.23530   0.45051   0.07847   0.00000  Uiso   1.00
C330   C     0.17876   0.49136   0.08112   0.00000  Uiso   1.00
C331   C     0.32685   0.51237   0.24006   0.00000  Uiso   1.00
C332   C     0.00784   0.48721   0.25977   0.00000  Uiso   1.00
C333   C     0.10305   0.55241   0.42174   0.00000  Uiso   1.00
C334   C     0.18347   0.65615   0.23743   0.00000  Uiso   1.00
C335   C     0.15253   0.34509   0.26048   0.00000  Uiso   1.00
C336   C     0.15518   0.38943   0.25937   0.00000  Uiso   1.00
C337   C     0.17743   0.61119   0.24108   0.00000  Uiso   1.00
C338   C     0.18896   0.47830   0.14374   0.00000  Uiso   1.00
C339   C     0.14527   0.52080   0.35631   0.00000  Uiso   1.00
C340   C     0.13703   0.53048   0.39967   0.00000  Uiso   1.00
C341   C     0.19980   0.47097   0.10047   0.00000  Uiso   1.00
C342   C     0.09475   0.56069   0.46310   0.00000  Uiso   1.00
C343   C     0.09917   0.59958   0.04598   0.00000  Uiso   1.00
C344   C     0.16241   0.51631   0.41923   0.00000  Uiso   1.00
C345   C     0.02246   0.54791   0.21962   0.00000  Uiso   1.00
C346   C     0.01412   0.58925   0.23285   0.00000  Uiso   1.00
C347   C     0.04195   0.62280   0.21463   0.00000  Uiso   1.00
C348   C     0.07818   0.61534   0.18305   0.00000  Uiso   1.00
C349   C     0.08644   0.57431   0.16940   0.00000  Uiso   1.00
C350   C     0.05858   0.54066   0.18737   0.00000  Uiso   1.00
C351   C     0.31657   0.44701   0.27461   0.00000  Uiso   1.00
C352   C     0.22356   0.34124   0.20853   0.00000  Uiso   1.00
C353   C     0.26035   0.43030   0.09764   0.00000  Uiso   1.00
C354   C     0.26034   0.38672   0.09151   0.00000  Uiso   1.00
C355   C     0.15949   0.52928   0.45943   0.00000  Uiso   1.00
C356   C     0.28594   0.36773   0.10763   0.00000  Uiso   1.00
C357   C     0.31178   0.39212   0.12982   0.00000  Uiso   1.00
C358   C     0.31211   0.43554   0.13589   0.00000  Uiso   1.00
C359   C     0.28676   0.45465   0.11961   0.00000  Uiso   1.00
C360   C     0.28253   0.45394   0.45221   0.00000  Uiso   1.00
C361   C     0.32441   0.47551   0.44040   0.00000  Uiso   1.00
C362   C     0.02546   0.45396   0.41849   0.00000  Uiso   1.00
C363   C     0.01828   0.41085   0.40833   0.00000  Uiso   1.00
C364   C     0.30999   0.38919   0.41999   0.00000  Uiso   1.00
C365   C     0.27550   0.41063   0.44182   0.00000  Uiso   1.00
C366   C     0.12525   0.55231   0.48192   0.00000  Uiso   1.00
C367   C     0.05078   0.57073   0.48557   0.00000  Uiso   1.00
C368   C     0.03369   0.60331   0.47552   0.00000  Uiso   1.00
C369   C     0.32481   0.61105   0.49531   0.00000  Uiso   1.00
C370   C     0.29923   0.58626   0.02507   0.00000  Uiso   1.00
C371   C     0.31580   0.55372   0.03518   0.00000  Uiso   1.00
C372   C     0.02458   0.54577   0.01541   0.00000  Uiso   1.00
C373   C     0.25323   0.51557   0.41809   0.00000  Uiso   1.00
C374   C     0.18757   0.51637   0.47846   0.00000  Uiso   1.00
C375   C     0.17471   0.51806   0.02039   0.00000  Uiso   1.00
C376   C     0.14453   0.54521   0.04164   0.00000  Uiso   1.00
C377   C     0.12230   0.56470   0.02257   0.00000  Uiso   1.00
H378   H     0.27610   0.43455   0.02098   0.00000  Uiso   1.00
H379   H     0.09983   0.64135   0.16914   0.00000  Uiso   1.00
H380   H     0.11452   0.56859   0.14501   0.00000  Uiso   1.00
H381   H     0.06528   0.50902   0.17633   0.00000  Uiso   1.00
H382   H     0.29302   0.42890   0.26065   0.00000  Uiso   1.00
H383   H     0.24748   0.65464   0.19155   0.00000  Uiso   1.00
H384   H     0.24073   0.36754   0.07410   0.00000  Uiso   1.00
H385   H     0.28580   0.33412   0.10286   0.00000  Uiso   1.00
H386   H     0.33151   0.37737   0.14232   0.00000  Uiso   1.00
H387   H     0.33229   0.45442   0.15290   0.00000  Uiso   1.00
H388   H     0.28836   0.48842   0.12352   0.00000  Uiso   1.00
H389   H     0.12344   0.66353   0.28027   0.00000  Uiso   1.00
H390   H     0.33021   0.50894   0.44780   0.00000  Uiso   1.00
H391   H     0.05767   0.47061   0.40929   0.00000  Uiso   1.00
H392   H     0.04495   0.39423   0.39139   0.00000  Uiso   1.00
H393   H     0.30446   0.35579   0.41214   0.00000  Uiso   1.00
H394   H     0.24338   0.39356   0.45080   0.00000  Uiso   1.00
H395   H     0.05305   0.62273   0.45245   0.00000  Uiso   1.00
H396   H     0.31189   0.63621   0.48746   0.00000  Uiso   1.00
H397   H     0.26652   0.59219   0.04024   0.00000  Uiso   1.00
H398   H     0.29590   0.53446   0.05813   0.00000  Uiso   1.00
H399   H     0.03657   0.51982   0.02301   0.00000  Uiso   1.00
H400   H     0.15088   0.50529   0.09942   0.00000  Uiso   1.00
H401   H     0.27362   0.49535   0.39622   0.00000  Uiso   1.00
H402   H     0.08071   0.55987   0.40714   0.00000  Uiso   1.00
H403   H     0.18398   0.49425   0.40271   0.00000  Uiso   1.00
H404   H     0.14018   0.55429   0.07293   0.00000  Uiso   1.00
H405   H     0.08591   0.59938   0.07795   0.00000  Uiso   1.00
H406   H     0.31976   0.59548   0.25759   0.00000  Uiso   1.00
H407   H     0.03556   0.65460   0.22515   0.00000  Uiso   1.00
O408   O     0.16667   0.50000   0.25000   0.00000  Uiso   1.00
O409   O     0.15693   0.45726   0.16625   0.00000  Uiso   1.00
O410   O     0.12687   0.53979   0.33749   0.00000  Uiso   1.00
O411   O     0.21088   0.50826   0.15877   0.00000  Uiso   1.00
O412   O     0.17198   0.49468   0.33749   0.00000  Uiso   1.00
O413   O     0.09705   0.63001   0.03029   0.00000  Uiso   1.00
O414   O     0.32378   0.43296   0.30196   0.00000  Uiso   1.00
O415   O     0.23056   0.37831   0.20310   0.00000  Uiso   1.00
O416   O     0.25292   0.55094   0.41036   0.00000  Uiso   1.00
O417   O     0.17849   0.41434   0.27820   0.00000  Uiso   1.00
O418   O     0.14581   0.59469   0.26767   0.00000  Uiso   1.00
O419   O     0.07452   0.46584   0.23607   0.00000  Uiso   1.00
O420   O     0.26785   0.52512   0.21805   0.00000  Uiso   1.00
O421   O     0.06990   0.52293   0.27820   0.00000  Uiso   1.00
O422   O     0.25440   0.48610   0.26767   0.00000  Uiso   1.00
O423   O     0.13800   0.40236   0.23607   0.00000  Uiso   1.00
O424   O     0.20437   0.58860   0.21805   0.00000  Uiso   1.00
Zn425  Zn    0.19244   0.47423   0.28277   0.00000  Uiso   1.00
Zn426  Zn    0.13459   0.45711   0.22257   0.00000  Uiso   1.00
Zn427  Zn    0.21166   0.52997   0.21188   0.00000  Uiso   1.00
Zn428  Zn    0.12798   0.53868   0.28277   0.00000  Uiso   1.00
C429   C     0.38605   0.49259   0.25855   0.00000  Uiso   1.00
C430   C     0.56063   0.50105   0.45731   0.00000  Uiso   1.00
C431   C     0.57907   0.47629   0.47601   0.00000  Uiso   1.00
C432   C     0.61449   0.50714   0.24132   0.00000  Uiso   1.00
C433   C     0.56237   0.47287   0.01732   0.00000  Uiso   1.00
C434   C     0.52740   0.49459   0.03981   0.00000  Uiso   1.00
C435   C     0.58191   0.45040   0.03713   0.00000  Uiso   1.00
C436   C     0.56864   0.45051   0.07847   0.00000  Uiso   1.00
C437   C     0.51209   0.49136   0.08112   0.00000  Uiso   1.00
C438   C     0.66018   0.51237   0.24006   0.00000  Uiso   1.00
C439   C     0.34118   0.48721   0.25977   0.00000  Uiso   1.00
C440   C     0.43638   0.55241   0.42174   0.00000  Uiso   1.00
C441   C     0.51680   0.65615   0.23743   0.00000  Uiso   1.00
C442   C     0.48587   0.34509   0.26048   0.00000  Uiso   1.00
C443   C     0.48852   0.38943   0.25937   0.00000  Uiso   1.00
C444   C     0.51077   0.61119   0.24108   0.00000  Uiso   1.00
C445   C     0.52229   0.47830   0.14374   0.00000  Uiso   1.00
C446   C     0.47861   0.52080   0.35631   0.00000  Uiso   1.00
C447   C     0.47036   0.53048   0.39967   0.00000  Uiso   1.00
C448   C     0.53313   0.47097   0.10047   0.00000  Uiso   1.00
C449   C     0.42808   0.56069   0.46310   0.00000  Uiso   1.00
C450   C     0.43250   0.59958   0.04598   0.00000  Uiso   1.00
C451   C     0.49575   0.51631   0.41923   0.00000  Uiso   1.00
C452   C     0.35580   0.54791   0.21962   0.00000  Uiso   1.00
C453   C     0.34745   0.58925   0.23285   0.00000  Uiso   1.00
C454   C     0.37528   0.62280   0.21463   0.00000  Uiso   1.00
C455   C     0.41151   0.61534   0.18305   0.00000  Uiso   1.00
C456   C     0.41977   0.57431   0.16940   0.00000  Uiso   1.00
C457   C     0.39191   0.54066   0.18737   0.00000  Uiso   1.00
C458   C     0.64990   0.44701   0.27461   0.00000  Uiso   1.00
C459   C     0.55689   0.34124   0.20853   0.00000  Uiso   1.00
C460   C     0.59368   0.43030   0.09764   0.00000  Uiso   1.00
C461   C     0.59368   0.38672   0.09151   0.00000  Uiso   1.00
C462   C     0.49283   0.52928   0.45943   0.00000  Uiso   1.00
C463   C     0.61927   0.36773   0.10763   0.00000  Uiso   1.00
C464   C     0.64511   0.39212   0.12982   0.00000  Uiso   1.00
C465   C     0.64544   0.43554   0.13589   0.00000  Uiso   1.00
C466   C     0.62009   0.45465   0.11961   0.00000  Uiso   1.00
C467   C     0.61587   0.45394   0.45221   0.00000  Uiso   1.00
C468   C     0.65774   0.47551   0.44040   0.00000  Uiso   1.00
C469   C     0.35880   0.45396   0.41849   0.00000  Uiso   1.00
C470   C     0.35161   0.41085   0.40833   0.00000  Uiso   1.00
C471   C     0.64333   0.38919   0.41999   0.00000  Uiso   1.00
C472   C     0.60884   0.41063   0.44182   0.00000  Uiso   1.00
C473   C     0.45858   0.55231   0.48192   0.00000  Uiso   1.00
C474   C     0.38412   0.57073   0.48557   0.00000  Uiso   1.00
C475   C     0.36702   0.60331   0.47552   0.00000  Uiso   1.00
C476   C     0.65815   0.61105   0.49531   0.00000  Uiso   1.00
C477   C     0.63256   0.58626   0.02507   0.00000  Uiso   1.00
C478   C     0.64914   0.55372   0.03518   0.00000  Uiso   1.00
C479   C     0.35791   0.54577   0.01541   0.00000  Uiso   1.00
C480   C     0.58656   0.51557   0.41809   0.00000  Uiso   1.00
C481   C     0.52090   0.51637   0.47846   0.00000  Uiso   1.00
C482   C     0.50804   0.51806   0.02039   0.00000  Uiso   1.00
C483   C     0.47786   0.54521   0.04164   0.00000  Uiso   1.00
C484   C     0.45563   0.56470   0.02257   0.00000  Uiso   1.00
H485   H     0.60943   0.43455   0.02098   0.00000  Uiso   1.00
H486   H     0.43317   0.64135   0.16914   0.00000  Uiso   1.00
H487   H     0.44786   0.56859   0.14501   0.00000  Uiso   1.00
H488   H     0.39862   0.50902   0.17633   0.00000  Uiso   1.00
H489   H     0.62635   0.42890   0.26065   0.00000  Uiso   1.00
H490   H     0.58082   0.65464   0.19155   0.00000  Uiso   1.00
H491   H     0.57406   0.36754   0.07410   0.00000  Uiso   1.00
H492   H     0.61913   0.33412   0.10286   0.00000  Uiso   1.00
H493   H     0.66485   0.37737   0.14232   0.00000  Uiso   1.00
H494   H     0.66562   0.45442   0.15290   0.00000  Uiso   1.00
H495   H     0.62169   0.48842   0.12352   0.00000  Uiso   1.00
H496   H     0.45677   0.66353   0.28027   0.00000  Uiso   1.00
H497   H     0.66354   0.50894   0.44780   0.00000  Uiso   1.00
H498   H     0.39100   0.47061   0.40929   0.00000  Uiso   1.00
H499   H     0.37829   0.39423   0.39139   0.00000  Uiso   1.00
H500   H     0.63780   0.35579   0.41214   0.00000  Uiso   1.00
H501   H     0.57672   0.39356   0.45080   0.00000  Uiso   1.00
H502   H     0.38639   0.62273   0.45245   0.00000  Uiso   1.00
H503   H     0.64523   0.63621   0.48746   0.00000  Uiso   1.00
H504   H     0.59985   0.59219   0.04024   0.00000  Uiso   1.00
H505   H     0.62924   0.53446   0.05813   0.00000  Uiso   1.00
H506   H     0.36990   0.51982   0.02301   0.00000  Uiso   1.00
H507   H     0.48422   0.50529   0.09942   0.00000  Uiso   1.00
H508   H     0.60695   0.49535   0.39622   0.00000  Uiso   1.00
H509   H     0.41404   0.55987   0.40714   0.00000  Uiso   1.00
H510   H     0.51732   0.49425   0.40271   0.00000  Uiso   1.00
H511   H     0.47351   0.55429   0.07293   0.00000  Uiso   1.00
H512   H     0.41924   0.59938   0.07795   0.00000  Uiso   1.00
H513   H     0.65309   0.59548   0.25759   0.00000  Uiso   1.00
H514   H     0.36890   0.65460   0.22515   0.00000  Uiso   1.00
O515   O     0.50000   0.50000   0.25000   0.00000  Uiso   1.00
O516   O     0.49027   0.45726   0.16625   0.00000  Uiso   1.00
O517   O     0.46020   0.53979   0.33749   0.00000  Uiso   1.00
O518   O     0.54421   0.50826   0.15877   0.00000  Uiso   1.00
O519   O     0.50532   0.49468   0.33749   0.00000  Uiso   1.00
O520   O     0.43038   0.63001   0.03029   0.00000  Uiso   1.00
O521   O     0.65711   0.43296   0.30196   0.00000  Uiso   1.00
O522   O     0.56390   0.37831   0.20310   0.00000  Uiso   1.00
O523   O     0.58625   0.55094   0.41036   0.00000  Uiso   1.00
O524   O     0.51182   0.41434   0.27820   0.00000  Uiso   1.00
O525   O     0.47914   0.59469   0.26767   0.00000  Uiso   1.00
O526   O     0.40785   0.46584   0.23607   0.00000  Uiso   1.00
O527   O     0.60119   0.52512   0.21805   0.00000  Uiso   1.00
O528   O     0.40323   0.52293   0.27820   0.00000  Uiso   1.00
O529   O     0.58773   0.48610   0.26767   0.00000  Uiso   1.00
O530   O     0.47133   0.40236   0.23607   0.00000  Uiso   1.00
O531   O     0.53771   0.58860   0.21805   0.00000  Uiso   1.00
Zn532  Zn    0.52577   0.47423   0.28277   0.00000  Uiso   1.00
Zn533  Zn    0.46792   0.45711   0.22257   0.00000  Uiso   1.00
Zn534  Zn    0.54500   0.52997   0.21188   0.00000  Uiso   1.00
Zn535  Zn    0.46131   0.53868   0.28277   0.00000  Uiso   1.00
C536   C     0.71938   0.49259   0.25855   0.00000  Uiso   1.00
C537   C     0.89396   0.50105   0.45731   0.00000  Uiso   1.00
C538   C     0.91241   0.47629   0.47601   0.00000  Uiso   1.00
C539   C     0.94783   0.50714   0.24132   0.00000  Uiso   1.00
C540   C     0.89570   0.47287   0.01732   0.00000  Uiso   1.00
C541   C     0.86073   0.49459   0.03981   0.00000  Uiso   1.00
C542   C     0.91525   0.45040   0.03713   0.00000  Uiso   1.00
C543   C     0.90197   0.45051   0.07847   0.00000  Uiso   1.00
C544   C     0.84543   0.49136   0.08112   0.00000  Uiso   1.00
C545   C     0.99351   0.51237   0.24006   0.00000  Uiso   1.00
C546   C     0.67451   0.48721   0.25977   0.00000  Uiso   1.00
C547   C     0.76972   0.55241   0.42174   0.00000  Uiso   1.00
C548   C     0.85014   0.65615   0.23743   0.00000  Uiso   1.00
C549   C     0.81920   0.34509   0.26048   0.00000  Uiso   1.00
C550   C     0.82185   0.38943   0.25937   0.00000  Uiso   1.00
C551   C     0.84410   0.61119   0.24108   0.00000  Uiso   1.00
C552   C     0.85562   0.47830   0.14374   0.00000  Uiso   1.00
C553   C     0.81194   0.52080   0.35631   0.00000  Uiso   1.00
C554   C     0.80369   0.53048   0.39967   0.00000  Uiso   1.00
C555   C     0.86646   0.47097   0.10047   0.00000  Uiso   1.00
C556   C     0.76142   0.56069   0.46310   0.00000  Uiso   1.00
C557   C     0.76583   0.59958   0.04598   0.00000  Uiso   1.00
C558   C     0.82908   0.51631   0.41923   0.00000  Uiso   1.00
C559   C     0.68913   0.54791   0.21962   0.00000  Uiso   1.00
C560   C     0.68079   0.58925   0.23285   0.00000  Uiso   1.00
C561   C     0.70862   0.62280   0.21463   0.00000  Uiso   1.00
C562   C     0.74485   0.61534   0.18305   0.00000  Uiso   1.00
C563   C     0.75310   0.57431   0.16940   0.00000  Uiso   1.00
C564   C     0.72525   0.54066   0.18737   0.00000  Uiso   1.00
C565   C     0.98324   0.44701   0.27461   0.00000  Uiso   1.00
C566   C     0.89022   0.34124   0.20853   0.00000  Uiso   1.00
C567   C     0.92701   0.43030   0.09764   0.00000  Uiso   1.00
C568   C     0.92701   0.38672   0.09151   0.00000  Uiso   1.00
C569   C     0.82616   0.52928   0.45943   0.00000  Uiso   1.00
C570   C     0.95260   0.36773   0.10763   0.00000  Uiso   1.00
C571   C     0.97845   0.39212   0.12982   0.00000  Uiso   1.00
C572   C     0.97877   0.43554   0.13589   0.00000  Uiso   1.00
C573   C     0.95343   0.45465   0.11961   0.00000  Uiso   1.00
C574   C     0.94920   0.45394   0.45221   0.00000  Uiso   1.00
C575   C     0.99108   0.47551   0.44040   0.00000  Uiso   1.00
C576   C     0.69213   0.45396   0.41849   0.00000  Uiso   1.00
C577   C     0.68495   0.41085   0.40833   0.00000  Uiso   1.00
C578   C     0.97666   0.38919   0.41999   0.00000  Uiso   1.00
C579   C     0.94217   0.41063   0.44182   0.00000  Uiso   1.00
C580   C     0.79192   0.55231   0.48192   0.00000  Uiso   1.00
C581   C     0.71745   0.57073   0.48557   0.00000  Uiso   1.00
C582   C     0.70035   0.60331   0.47552   0.00000  Uiso   1.00
C583   C     0.99148   0.61105   0.49531   0.00000  Uiso   1.00
C584   C     0.96589   0.58626   0.02507   0.00000  Uiso   1.00
C585   C     0.98247   0.55372   0.03518   0.00000  Uiso   1.00
C586   C     0.69125   0.54577   0.01541   0.00000  Uiso   1.00
C587   C     0.91989   0.51557   0.41809   0.00000  Uiso   1.00
C588   C     0.85423   0.51637   0.47846   0.00000  Uiso   1.00
C589   C     0.84137   0.51806   0.02039   0.00000  Uiso   1.00
C590   C     0.81120   0.54521   0.04164   0.00000  Uiso   1.00
C591   C     0.78896   0.56470   0.02257   0.00000  Uiso   1.00
H592   H     0.94276   0.43455   0.02098   0.00000  Uiso   1.00
H593   H     0.76650   0.64135   0.16914   0.00000  Uiso   1.00
H594   H     0.78119   0.56859   0.14501   0.00000  Uiso   1.00
H595   H     0.73195   0.50902   0.17633   0.00000  Uiso   1.00
H596   H     0.95969   0.42890   0.26065   0.00000  Uiso   1.00
H597   H     0.91415   0.65464   0.19155   0.00000  Uiso   1.00
H598   H     0.90740   0.36754   0.07410   0.00000  Uiso   1.00
H599   H     0.95246   0.33412   0.10286   0.00000  Uiso   1.00
H600   H     0.99818   0.37737   0.14232   0.00000  Uiso   1.00
H601   H     0.99896   0.45442   0.15290   0.00000  Uiso   1.00
H602   H     0.95503   0.48842   0.12352   0.00000  Uiso   1.00
H603   H     0.79011   0.66353   0.28027   0.00000  Uiso   1.00
H604   H     0.99687   0.50894   0.44780   0.00000  Uiso   1.00
H605   H     0.72433   0.47061   0.40929   0.00000  Uiso   1.00
H606   H     0.71162   0.39423   0.39139   0.00000  Uiso   1.00
H607   H     0.97113   0.35579   0.41214   0.00000  Uiso   1.00
H608   H     0.91005   0.39356   0.45080   0.00000  Uiso   1.00
H609   H     0.71972   0.62273   0.45245   0.00000  Uiso   1.00
H610   H     0.97856   0.63621   0.48746   0.00000  Uiso   1.00
H611   H     0.93319   0.59219   0.04024   0.00000  Uiso   1.00
H612   H     0.96257   0.53446   0.05813   0.00000  Uiso   1.00
H613   H     0.70324   0.51982   0.02301   0.00000  Uiso   1.00
H614   H     0.81755   0.50529   0.09942   0.00000  Uiso   1.00
H615   H     0.94029   0.49535   0.39622   0.00000  Uiso   1.00
H616   H     0.74737   0.55987   0.40714   0.00000  Uiso   1.00
H617   H     0.85065   0.49425   0.40271   0.00000  Uiso   1.00
H618   H     0.80684   0.55429   0.07293   0.00000  Uiso   1.00
H619   H     0.75257   0.59938   0.07795   0.00000  Uiso   1.00
H620   H     0.98643   0.59548   0.25759   0.00000  Uiso   1.00
H621   H     0.70223   0.65460   0.22515   0.00000  Uiso   1.00
O622   O     0.83333   0.50000   0.25000   0.00000  Uiso   1.00
O623   O     0.82360   0.45726   0.16625   0.00000  Uiso   1.00
O624   O     0.79354   0.53979   0.33749   0.00000  Uiso   1.00
O625   O     0.87755   0.50826   0.15877   0.00000  Uiso   1.00
O626   O     0.83865   0.49468   0.33749   0.00000  Uiso   1.00
O627   O     0.76372   0.63001   0.03029   0.00000  Uiso   1.00
O628   O     0.99044   0.43296   0.30196   0.00000  Uiso   1.00
O629   O     0.89723   0.37831   0.20310   0.00000  Uiso   1.00
O630   O     0.91959   0.55094   0.41036   0.00000  Uiso   1.00
O631   O     0.84515   0.41434   0.27820   0.00000  Uiso   1.00
O632   O     0.81247   0.59469   0.26767   0.00000  Uiso   1.00
O633   O     0.74119   0.46584   0.23607   0.00000  Uiso   1.00
O634   O     0.93452   0.52512   0.21805   0.00000  Uiso   1.00
O635   O     0.73656   0.52293   0.27820   0.00000  Uiso   1.00
O636   O     0.92106   0.48610   0.26767   0.00000  Uiso   1.00
O637   O     0.80467   0.40236   0.23607   0.00000  Uiso   1.00
O638   O     0.87104   0.58860   0.21805   0.00000  Uiso   1.00
Zn639  Zn    0.85910   0.47423   0.28277   0.00000  Uiso   1.00
Zn640  Zn    0.80125   0.45711   0.22257   0.00000  Uiso   1.00
Zn641  Zn    0.87833   0.52997   0.21188   0.00000  Uiso   1.00
Zn642  Zn    0.79465   0.53868   0.28277   0.00000  Uiso   1.00
C643   C     0.05271   0.82592   0.25855   0.00000  Uiso   1.00
C644   C     0.22729   0.83438   0.45731   0.00000  Uiso   1.00
C645   C     0.24574   0.80962   0.47601   0.00000  Uiso   1.00
C646   C     0.28116   0.84047   0.24132   0.00000  Uiso   1.00
C647   C     0.22904   0.80621   0.01732   0.00000  Uiso   1.00
C648   C     0.19407   0.82792   0.03981   0.00000  Uiso   1.00
C649   C     0.24858   0.78373   0.03713   0.00000  Uiso   1.00
C650   C     0.23530   0.78384   0.07847   0.00000  Uiso   1.00
C651   C     0.17876   0.82470   0.08112   0.00000  Uiso   1.00
C652   C     0.32685   0.84571   0.24006   0.00000  Uiso   1.00
C653   C     0.00784   0.82055   0.25977   0.00000  Uiso   1.00
C654   C     0.10305   0.88574   0.42174   0.00000  Uiso   1.00
C655   C     0.18347   0.98948   0.23743   0.00000  Uiso   1.00
C656   C     0.15253   0.67843   0.26048   0.00000  Uiso   1.00
C657   C     0.15518   0.72276   0.25937   0.00000  Uiso   1.00
C658   C     0.17743   0.94452   0.24108   0.00000  Uiso   1.00
C659   C     0.18896   0.81164   0.14374   0.00000  Uiso   1.00
C660   C     0.14527   0.85413   0.35631   0.00000  Uiso   1.00
C661   C     0.13703   0.86381   0.39967   0.00000  Uiso   1.00
C662   C     0.19980   0.80430   0.10047   0.00000  Uiso   1.00
C663   C     0.09475   0.89402   0.46310   0.00000  Uiso   1.00
C664   C     0.09917   0.93291   0.04598   0.00000  Uiso   1.00
C665   C     0.16241   0.84964   0.41923   0.00000  Uiso   1.00
C666   C     0.02246   0.88125   0.21962   0.00000  Uiso   1.00
C667   C     0.01412   0.92258   0.23285   0.00000  Uiso   1.00
C668   C     0.04195   0.95613   0.21463   0.00000  Uiso   1.00
C669   C     0.07818   0.94867   0.18305   0.00000  Uiso   1.00
C670   C     0.08644   0.90764   0.16940   0.00000  Uiso   1.00
C671   C     0.05858   0.87399   0.18737   0.00000  Uiso   1.00
C672   C     0.31657   0.78034   0.27461   0.00000  Uiso   1.00
C673   C     0.22356   0.67458   0.20853   0.00000  Uiso   1.00
C674   C     0.26035   0.76363   0.09764   0.00000  Uiso   1.00
C675   C     0.26034   0.72005   0.09151   0.00000  Uiso   1.00
C676   C     0.15949   0.86262   0.45943   0.00000  Uiso   1.00
C677   C     0.28594   0.70106   0.10763   0.00000  Uiso   1.00
C678   C     0.31178   0.72546   0.12982   0.00000  Uiso   1.00
C679   C     0.31211   0.76887   0.13589   0.00000  Uiso   1.00
C680   C     0.28676   0.78799   0.11961   0.00000  Uiso   1.00
C681   C     0.28253   0.78727   0.45221   0.00000  Uiso   1.00
C682   C     0.32441   0.80885   0.44040   0.00000  Uiso   1.00
C683   C     0.02546   0.78730   0.41849   0.00000  Uiso   1.00
C684   C     0.01828   0.74418   0.40833   0.00000  Uiso   1.00
C685   C     0.30999   0.72253   0.41999   0.00000  Uiso   1.00
C686   C     0.27550   0.74397   0.44182   0.00000  Uiso   1.00
C687   C     0.12525   0.88564   0.48192   0.00000  Uiso   1.00
C688   C     0.05078   0.90407   0.48557   0.00000  Uiso   1.00
C689   C     0.03369   0.93665   0.47552   0.00000  Uiso   1.00
C690   C     0.32481   0.94438   0.49531   0.00000  Uiso   1.00
C691   C     0.29923   0.91959   0.02507   0.00000  Uiso   1.00
C692   C     0.31580   0.88706   0.03518   0.00000  Uiso   1.00
C693   C     0.02458   0.87910   0.01541   0.00000  Uiso   1.00
C694   C     0.25323   0.84890   0.41809   0.00000  Uiso   1.00
C695   C     0.18757   0.84970   0.47846   0.00000  Uiso   1.00
C696   C     0.17471   0.85139   0.02039   0.00000  Uiso   1.00
C697   C     0.14453   0.87854   0.04164   0.00000  Uiso   1.00
C698   C     0.12230   0.89803   0.02257   0.00000  Uiso   1.00
H699   H     0.27610   0.76788   0.02098   0.00000  Uiso   1.00
H700   H     0.09983   0.97468   0.16914   0.00000  Uiso   1.00
H701   H     0.11452   0.90192   0.14501   0.00000  Uiso   1.00
H702   H     0.06528   0.84236   0.17633   0.00000  Uiso   1.00
H703   H     0.29302   0.76223   0.26065   0.00000  Uiso   1.00
H704   H     0.24748   0.98798   0.19155   0.00000  Uiso   1.00
H705   H     0.24073   0.70088   0.07410   0.00000  Uiso   1.00
H706   H     0.28580   0.66746   0.10286   0.00000  Uiso   1.00
H707   H     0.33151   0.71071   0.14232   0.00000  Uiso   1.00
H708   H     0.33229   0.78776   0.15290   0.00000  Uiso   1.00
H709   H     0.28836   0.82175   0.12352   0.00000  Uiso   1.00
H710   H     0.12344   0.99686   0.28027   0.00000  Uiso   1.00
H711   H     0.33021   0.84227   0.44780   0.00000  Uiso   1.00
H712   H     0.05767   0.80394   0.40929   0.00000  Uiso   1.00
H713   H     0.04495   0.72757   0.39139   0.00000  Uiso   1.00
H714   H     0.30446   0.68913   0.41214   0.00000  Uiso   1.00
H715   H     0.24338   0.72689   0.45080   0.00000  Uiso   1.00
H716   H     0.05305   0.95607   0.45245   0.00000  Uiso   1.00
H717   H     0.31189   0.96954   0.48746   0.00000  Uiso   1.00
H718   H     0.26652   0.92552   0.04024   0.00000  Uiso   1.00
H719   H     0.29590   0.86779   0.05813   0.00000  Uiso   1.00
H720   H     0.03657   0.85315   0.02301   0.00000  Uiso   1.00
H721   H     0.15088   0.83863   0.09942   0.00000  Uiso   1.00
H722   H     0.27362   0.82868   0.39622   0.00000  Uiso   1.00
H723   H     0.08071   0.89320   0.40714   0.00000  Uiso   1.00
H724   H     0.18398   0.82758   0.40271   0.00000  Uiso   1.00
H725   H     0.14018   0.88763   0.07293   0.00000  Uiso   1.00
H726   H     0.08591   0.93271   0.07795   0.00000  Uiso   1.00
H727   H     0.31976   0.92882   0.25759   0.00000  Uiso   1.00
H728   H     0.03556   0.98793   0.22515   0.00000  Uiso   1.00
O729   O     0.16667   0.83333   0.25000   0.00000  Uiso   1.00
O730   O     0.15693   0.79060   0.16625   0.00000  Uiso   1.00
O731   O     0.12687   0.87313   0.33749   0.00000  Uiso   1.00
O732   O     0.21088   0.84159   0.15877   0.00000  Uiso   1.00
O733   O     0.17198   0.82802   0.33749   0.00000  Uiso   1.00
O734   O     0.09705   0.96334   0.03029   0.00000  Uiso   1.00
O735   O     0.32378   0.76629   0.30196   0.00000  Uiso   1.00
O736   O     0.23056   0.71164   0.20310   0.00000  Uiso   1.00
O737   O     0.25292   0.88427   0.41036   0.00000  Uiso   1.00
O738   O     0.17849   0.74768   0.27820   0.00000  Uiso   1.00
O739   O     0.14581   0.92803   0.26767   0.00000  Uiso   1.00
O740   O     0.07452   0.79917   0.23607   0.00000  Uiso   1.00
O741   O     0.26785   0.85845   0.21805   0.00000  Uiso   1.00
O742   O     0.06990   0.85627   0.27820   0.00000  Uiso   1.00
O743   O     0.25440   0.81944   0.26767   0.00000  Uiso   1.00
O744   O     0.13800   0.73570   0.23607   0.00000  Uiso   1.00
O745   O     0.20437   0.92193   0.21805   0.00000  Uiso   1.00
Zn746  Zn    0.19244   0.80756   0.28277   0.00000  Uiso   1.00
Zn747  Zn    0.13459   0.79044   0.22257   0.00000  Uiso   1.00
Zn748  Zn    0.21166   0.86331   0.21188   0.00000  Uiso   1.00
Zn749  Zn    0.12798   0.87202   0.28277   0.00000  Uiso   1.00
C750   C     0.38605   0.82592   0.25855   0.00000  Uiso   1.00
C751   C     0.56063   0.83438   0.45731   0.00000  Uiso   1.00
C752   C     0.57907   0.80962   0.47601   0.00000  Uiso   1.00
C753   C     0.61449   0.84047   0.24132   0.00000  Uiso   1.00
C754   C     0.56237   0.80621   0.01732   0.00000  Uiso   1.00
C755   C     0.52740   0.82792   0.03981   0.00000  Uiso   1.00
C756   C     0.58191   0.78373   0.03713   0.00000  Uiso   1.00
C757   C     0.56864   0.78384   0.07847   0.00000  Uiso   1.00
C758   C     0.51209   0.82470   0.08112   0.00000  Uiso   1.00
C759   C     0.66018   0.84571   0.24006   0.00000  Uiso   1.00
C760   C     0.34118   0.82055   0.25977   0.00000  Uiso   1.00
C761   C     0.43638   0.88574   0.42174   0.00000  Uiso   1.00
C762   C     0.51680   0.98948   0.23743   0.00000  Uiso   1.00
C763   C     0.48587   0.67843   0.26048   0.00000  Uiso   1.00
C764   C     0.48852   0.72276   0.25937   0.00000  Uiso   1.00
C765   C     0.51077   0.94452   0.24108   0.00000  Uiso   1.00
C766   C     0.52229   0.81164   0.14374   0.00000  Uiso   1.00
C767   C     0.47861   0.85413   0.35631   0.00000  Uiso   1.00
C768   C     0.47036   0.86381   0.39967   0.00000  Uiso   1.00
C769   C     0.53313   0.80430   0.10047   0.00000  Uiso   1.00
C770   C     0.42808   0.89402   0.46310   0.00000  Uiso   1.00
C771   C     0.43250   0.93291   0.04598   0.00000  Uiso   1.00
C772   C     0.49575   0.84964   0.41923   0.00000  Uiso   1.00
C773   C     0.35580   0.88125   0.21962   0.00000  Uiso   1.00
C774   C     0.34745   0.92258   0.23285   0.00000  Uiso   1.00
C775   C     0.37528   0.95613   0.21463   0.00000  Uiso   1.00
C776   C     0.41151   0.94867   0.18305   0.00000  Uiso   1.00
C777   C     0.41977   0.90764   0.16940   0.00000  Uiso   1.00
C778   C     0.39191   0.87399   0.18737   0.00000  Uiso   1.00
C779   C     0.64990   0.78034   0.27461   0.00000  Uiso   1.00
C780   C     0.55689   0.67458   0.20853   0.00000  Uiso   1.00
C781   C     0.59368   0.76363   0.09764   0.00000  Uiso   1.00
C782   C     0.59368   0.72005   0.09151   0.00000  Uiso   1.00
C783   C     0.49283   0.86262   0.45943   0.00000  Uiso   1.00
C784   C     0.61927   0.70106   0.10763   0.00000  Uiso   1.00
C785   C     0.64511   0.72546   0.12982   0.00000  Uiso   1.00
C786   C     0.64544   0.76887   0.13589   0.00000  Uiso   1.00
C787   C     0.62009   0.78799   0.11961   0.00000  Uiso   1.00
C788   C     0.61587   0.78727   0.45221   0.00000  Uiso   1.00
C789   C     0.65774   0.80885   0.44040   0.00000  Uiso   1.00
C790   C     0.35880   0.78730   0.41849   0.00000  Uiso   1.00
C791   C     0.35161   0.74418   0.40833   0.00000  Uiso   1.00
C792   C     0.64333   0.72253   0.41999   0.00000  Uiso   1.00
C793   C     0.60884   0.74397   0.44182   0.00000  Uiso   1.00
C794   C     0.45858   0.88564   0.48192   0.00000  Uiso   1.00
C795   C     0.38412   0.90407   0.48557   0.00000  Uiso   1.00
C796   C     0.36702   0.93665   0.47552   0.00000  Uiso   1.00
C797   C     0.65815   0.94438   0.49531   0.00000  Uiso   1.00
C798   C     0.63256   0.91959   0.02507   0.00000  Uiso   1.00
C799   C     0.64914   0.88706   0.03518   0.00000  Uiso   1.00
C800   C     0.35791   0.87910   0.01541   0.00000  Uiso   1.00
C801   C     0.58656   0.84890   0.41809   0.00000  Uiso   1.00
C802   C     0.52090   0.84970   0.47846   0.00000  Uiso   1.00
C803   C     0.50804   0.85139   0.02039   0.00000  Uiso   1.00
C804   C     0.47786   0.87854   0.04164   0.00000  Uiso   1.00
C805   C     0.45563   0.89803   0.02257   0.00000  Uiso   1.00
H806   H     0.60943   0.76788   0.02098   0.00000  Uiso   1.00
H807   H     0.43317   0.97468   0.16914   0.00000  Uiso   1.00
H808   H     0.44786   0.90192   0.14501   0.00000  Uiso   1.00
H809   H     0.39862   0.84236   0.17633   0.00000  Uiso   1.00
H810   H     0.62635   0.76223   0.26065   0.00000  Uiso   1.00
H811   H     0.58082   0.98798   0.19155   0.00000  Uiso   1.00
H812   H     0.57406   0.70088   0.07410   0.00000  Uiso   1.00
H813   H     0.61913   0.66746   0.10286   0.00000  Uiso   1.00
H814   H     0.66485   0.71071   0.14232   0.00000  Uiso   1.00
H815   H     0.66562   0.78776   0.15290   0.00000  Uiso   1.00
H816   H     0.62169   0.82175   0.12352   0.00000  Uiso   1.00
H817   H     0.45677   0.99686   0.28027   0.00000  Uiso   1.00
H818   H     0.66354   0.84227   0.44780   0.00000  Uiso   1.00
H819   H     0.39100   0.80394   0.40929   0.00000  Uiso   1.00
H820   H     0.37829   0.72757   0.39139   0.00000  Uiso   1.00
H821   H     0.63780   0.68913   0.41214   0.00000  Uiso   1.00
H822   H     0.57672   0.72689   0.45080   0.00000  Uiso   1.00
H823   H     0.38639   0.95607   0.45245   0.00000  Uiso   1.00
H824   H     0.64523   0.96954   0.48746   0.00000  Uiso   1.00
H825   H     0.59985   0.92552   0.04024   0.00000  Uiso   1.00
H826   H     0.62924   0.86779   0.05813   0.00000  Uiso   1.00
H827   H     0.36990   0.85315   0.02301   0.00000  Uiso   1.00
H828   H     0.48422   0.83863   0.09942   0.00000  Uiso   1.00
H829   H     0.60695   0.82868   0.39622   0.00000  Uiso   1.00
H830   H     0.41404   0.89320   0.40714   0.00000  Uiso   1.00
H831   H     0.51732   0.82758   0.40271   0.00000  Uiso   1.00
H832   H     0.47351   0.88763   0.07293   0.00000  Uiso   1.00
H833   H     0.41924   0.93271   0.07795   0.00000  Uiso   1.00
H834   H     0.65309   0.92882   0.25759   0.00000  Uiso   1.00
H835   H     0.36890   0.98793   0.22515   0.00000  Uiso   1.00
O836   O     0.50000   0.83333   0.25000   0.00000  Uiso   1.00
O837   O     0.49027   0.79060   0.16625   0.00000  Uiso   1.00
O838   O     0.46020   0.87313   0.33749   0.00000  Uiso   1.00
O839   O     0.54421   0.84159   0.15877   0.00000  Uiso   1.00
O840   O     0.50532   0.82802   0.33749   0.00000  Uiso   1.00
O841   O     0.43038   0.96334   0.03029   0.00000  Uiso   1.00
O842   O     0.65711   0.76629   0.30196   0.00000  Uiso   1.00
O843   O     0.56390   0.71164   0.20310   0.00000  Uiso   1.00
O844   O     0.58625   0.88427   0.41036   0.00000  Uiso   1.00
O845   O     0.51182   0.74768   0.27820   0.00000  Uiso   1.00
O846   O     0.47914   0.92803   0.26767   0.00000  Uiso   1.00
O847   O     0.40785   0.79917   0.23607   0.00000  Uiso   1.00
O848   O     0.60119   0.85845   0.21805   0.00000  Uiso   1.00
O849   O     0.40323   0.85627   0.27820   0.00000  Uiso   1.00
O850   O     0.58773   0.81944   0.26767   0.00000  Uiso   1.00
O851   O     0.47133   0.73570   0.23607   0.00000  Uiso   1.00
O852   O     0.53771   0.92193   0.21805   0.00000  Uiso   1.00
Zn853  Zn    0.52577   0.80756   0.28277   0.00000  Uiso   1.00
Zn854  Zn    0.46792   0.79044   0.22257   0.00000  Uiso   1.00
Zn855  Zn    0.54500   0.86331   0.21188   0.00000  Uiso   1.00
Zn856  Zn    0.46131   0.87202   0.28277   0.00000  Uiso   1.00
C857   C     0.71938   0.82592   0.25855   0.00000  Uiso   1.00
C858   C     0.89396   0.83438   0.45731   0.00000  Uiso   1.00
C859   C     0.91241   0.80962   0.47601   0.00000  Uiso   1.00
C860   C     0.94783   0.84047   0.24132   0.00000  Uiso   1.00
C861   C     0.89570   0.80621   0.01732   0.00000  Uiso   1.00
C862   C     0.86073   0.82792   0.03981   0.00000  Uiso   1.00
C863   C     0.91525   0.78373   0.03713   0.00000  Uiso   1.00
C864   C     0.90197   0.78384   0.07847   0.00000  Uiso   1.00
C865   C     0.84543   0.82470   0.08112   0.00000  Uiso   1.00
C866   C     0.99351   0.84571   0.24006   0.00000  Uiso   1.00
C867   C     0.67451   0.82055   0.25977   0.00000  Uiso   1.00
C868   C     0.76972   0.88574   0.42174   0.00000  Uiso   1.00
C869   C     0.85014   0.98948   0.23743   0.00000  Uiso   1.00
C870   C     0.81920   0.67843   0.26048   0.00000  Uiso   1.00
C871   C     0.82185   0.72276   0.25937   0.00000  Uiso   1.00
C872   C     0.84410   0.94452   0.24108   0.00000  Uiso   1.00
C873   C     0.85562   0.81164   0.14374   0.00000  Uiso   1.00
C874   C     0.81194   0.85413   0.35631   0.00000  Uiso   1.00
C875   C     0.80369   0.86381   0.39967   0.00000  Uiso   1.00
C876   C     0.86646   0.80430   0.10047   0.00000  Uiso   1.00
C877   C     0.76142   0.89402   0.46310   0.00000  Uiso   1.00
C878   C     0.76583   0.93291   0.04598   0.00000  Uiso   1.00
C879   C     0.82908   0.84964   0.41923   0.00000  Uiso   1.00
C880   C     0.68913   0.88125   0.21962   0.00000  Uiso   1.00
C881   C     0.68079   0.92258   0.23285   0.00000  Uiso   1.00
C882   C     0.70862   0.95613   0.21463   0.00000  Uiso   1.00
C883   C     0.74485   0.94867   0.18305   0.00000  Uiso   1.00
C884   C     0.75310   0.90764   0.16940   0.00000  Uiso   1.00
C885   C     0.72525   0.87399   0.18737   0.00000  Uiso   1.00
C886   C     0.98324   0.78034   0.27461   0.00000  Uiso   1.00
C887   C     0.89022   0.67458   0.20853   0.00000  Uiso   1.00
C888   C     0.92701   0.76363   0.09764   0.00000  Uiso   1.00
C889   C     0.92701   0.72005   0.09151   0.00000  Uiso   1.00
C890   C     0.82616   0.86262   0.45943   0.00000  Uiso   1.00
C891   C     0.95260   0.70106   0.10763   0.00000  Uiso   1.00
C892   C     0.97845   0.72546   0.12982   0.00000  Uiso   1.00
C893   C     0.97877   0.76887   0.13589   0.00000  Uiso   1.00
C894   C     0.95343   0.78799   0.11961   0.00000  Uiso   1.00
C895   C     0.94920   0.78727   0.45221   0.00000  Uiso   1.00
C896   C     0.99108   0.80885   0.44040   0.00000  Uiso   1.00
C897   C     0.69213   0.78730   0.41849   0.00000  Uiso   1.00
C898   C     0.68495   0.74418   0.40833   0.00000  Uiso   1.00
C899   C     0.97666   0.72253   0.41999   0.00000  Uiso   1.00
C900   C     0.94217   0.74397   0.44182   0.00000  Uiso   1.00
C901   C     0.79192   0.88564   0.48192   0.00000  Uiso   1.00
C902   C     0.71745   0.90407   0.48557   0.00000  Uiso   1.00
C903   C     0.70035   0.93665   0.47552   0.00000  Uiso   1.00
C904   C     0.99148   0.94438   0.49531   0.00000  Uiso   1.00
C905   C     0.96589   0.91959   0.02507   0.00000  Uiso   1.00
C906   C     0.98247   0.88706   0.03518   0.00000  Uiso   1.00
C907   C     0.69125   0.87910   0.01541   0.00000  Uiso   1.00
C908   C     0.91989   0.84890   0.41809   0.00000  Uiso   1.00
C909   C     0.85423   0.84970   0.47846   0.00000  Uiso   1.00
C910   C     0.84137   0.85139   0.02039   0.00000  Uiso   1.00
C911   C     0.81120   0.87854   0.04164   0.00000  Uiso   1.00
C912   C     0.78896   0.89803   0.02257   0.00000  Uiso   1.00
H913   H     0.94276   0.76788   0.02098   0.00000  Uiso   1.00
H914   H     0.76650   0.97468   0.16914   0.00000  Uiso   1.00
H915   H     0.78119   0.90192   0.14501   0.00000  Uiso   1.00
H916   H     0.73195   0.84236   0.17633   0.00000  Uiso   1.00
H917   H     0.95969   0.76223   0.26065   0.00000  Uiso   1.00
H918   H     0.91415   0.98798   0.19155   0.00000  Uiso   1.00
H919   H     0.90740   0.70088   0.07410   0.00000  Uiso   1.00
H920   H     0.95246   0.66746   0.10286   0.00000  Uiso   1.00
H921   H     0.99818   0.71071   0.14232   0.00000  Uiso   1.00
H922   H     0.99896   0.78776   0.15290   0.00000  Uiso   1.00
H923   H     0.95503   0.82175   0.12352   0.00000  Uiso   1.00
H924   H     0.79011   0.99686   0.28027   0.00000  Uiso   1.00
H925   H     0.99687   0.84227   0.44780   0.00000  Uiso   1.00
H926   H     0.72433   0.80394   0.40929   0.00000  Uiso   1.00
H927   H     0.71162   0.72757   0.39139   0.00000  Uiso   1.00
H928   H     0.97113   0.68913   0.41214   0.00000  Uiso   1.00
H929   H     0.91005   0.72689   0.45080   0.00000  Uiso   1.00
H930   H     0.71972   0.95607   0.45245   0.00000  Uiso   1.00
H931   H     0.97856   0.96954   0.48746   0.00000  Uiso   1.00
H932   H     0.93319   0.92552   0.04024   0.00000  Uiso   1.00
H933   H     0.96257   0.86779   0.05813   0.00000  Uiso   1.00
H934   H     0.70324   0.85315   0.02301   0.00000  Uiso   1.00
H935   H     0.81755   0.83863   0.09942   0.00000  Uiso   1.00
H936   H     0.94029   0.82868   0.39622   0.00000  Uiso   1.00
H937   H     0.74737   0.89320   0.40714   0.00000  Uiso   1.00
H938   H     0.85065   0.82758   0.40271   0.00000  Uiso   1.00
H939   H     0.80684   0.88763   0.07293   0.00000  Uiso   1.00
H940   H     0.75257   0.93271   0.07795   0.00000  Uiso   1.00
H941   H     0.98643   0.92882   0.25759   0.00000  Uiso   1.00
H942   H     0.70223   0.98793   0.22515   0.00000  Uiso   1.00
O943   O     0.83333   0.83333   0.25000   0.00000  Uiso   1.00
O944   O     0.82360   0.79060   0.16625   0.00000  Uiso   1.00
O945   O     0.79354   0.87313   0.33749   0.00000  Uiso   1.00
O946   O     0.87755   0.84159   0.15877   0.00000  Uiso   1.00
O947   O     0.83865   0.82802   0.33749   0.00000  Uiso   1.00
O948   O     0.76372   0.96334   0.03029   0.00000  Uiso   1.00
O949   O     0.99044   0.76629   0.30196   0.00000  Uiso   1.00
O950   O     0.89723   0.71164   0.20310   0.00000  Uiso   1.00
O951   O     0.91959   0.88427   0.41036   0.00000  Uiso   1.00
O952   O     0.84515   0.74768   0.27820   0.00000  Uiso   1.00
O953   O     0.81247   0.92803   0.26767   0.00000  Uiso   1.00
O954   O     0.74119   0.79917   0.23607   0.00000  Uiso   1.00
O955   O     0.93452   0.85845   0.21805   0.00000  Uiso   1.00
O956   O     0.73656   0.85627   0.27820   0.00000  Uiso   1.00
O957   O     0.92106   0.81944   0.26767   0.00000  Uiso   1.00
O958   O     0.80467   0.73570   0.23607   0.00000  Uiso   1.00
O959   O     0.87104   0.92193   0.21805   0.00000  Uiso   1.00
Zn960  Zn    0.85910   0.80756   0.28277   0.00000  Uiso   1.00
Zn961  Zn    0.80125   0.79044   0.22257   0.00000  Uiso   1.00
Zn962  Zn    0.87833   0.86331   0.21188   0.00000  Uiso   1.00
Zn963  Zn    0.79465   0.87202   0.28277   0.00000  Uiso   1.00
C964   C     0.05271   0.15925   0.75855   0.00000  Uiso   1.00
C965   C     0.22729   0.16772   0.95731   0.00000  Uiso   1.00
C966   C     0.24574   0.14296   0.97601   0.00000  Uiso   1.00
C967   C     0.28116   0.17381   0.74132   0.00000  Uiso   1.00
C968   C     0.22904   0.13954   0.51732   0.00000  Uiso   1.00
C969   C     0.19407   0.16126   0.53981   0.00000  Uiso   1.00
C970   C     0.24858   0.11707   0.53713   0.00000  Uiso   1.00
C971   C     0.23530   0.11718   0.57847   0.00000  Uiso   1.00
C972   C     0.17876   0.15803   0.58112   0.00000  Uiso   1.00
C973   C     0.32685   0.17904   0.74006   0.00000  Uiso   1.00
C974   C     0.00784   0.15388   0.75977   0.00000  Uiso   1.00
C975   C     0.10305   0.21907   0.92174   0.00000  Uiso   1.00
C976   C     0.18347   0.32282   0.73743   0.00000  Uiso   1.00
C977   C     0.15253   0.01176   0.76048   0.00000  Uiso   1.00
C978   C     0.15518   0.05610   0.75937   0.00000  Uiso   1.00
C979   C     0.17743   0.27786   0.74108   0.00000  Uiso   1.00
C980   C     0.18896   0.14497   0.64374   0.00000  Uiso   1.00
C981   C     0.14527   0.18746   0.85631   0.00000  Uiso   1.00
C982   C     0.13703   0.19714   0.89967   0.00000  Uiso   1.00
C983   C     0.19980   0.13763   0.60047   0.00000  Uiso   1.00
C984   C     0.09475   0.22736   0.96310   0.00000  Uiso   1.00
C985   C     0.09917   0.26624   0.54598   0.00000  Uiso   1.00
C986   C     0.16241   0.18298   0.91923   0.00000  Uiso   1.00
C987   C     0.02246   0.21458   0.71962   0.00000  Uiso   1.00
C988   C     0.01412   0.25592   0.73285   0.00000  Uiso   1.00
C989   C     0.04195   0.28947   0.71463   0.00000  Uiso   1.00
C990   C     0.07818   0.28201   0.68305   0.00000  Uiso   1.00
C991   C     0.08644   0.24097   0.66940   0.00000  Uiso   1.00
C992   C     0.05858   0.20732   0.68737   0.00000  Uiso   1.00
C993   C     0.31657   0.11367   0.77461   0.00000  Uiso   1.00
C994   C     0.22356   0.00791   0.70853   0.00000  Uiso   1.00
C995   C     0.26035   0.09697   0.59764   0.00000  Uiso   1.00
C996   C     0.26034   0.05338   0.59151   0.00000  Uiso   1.00
C997   C     0.15949   0.19595   0.95943   0.00000  Uiso   1.00
C998   C     0.28594   0.03440   0.60763   0.00000  Uiso   1.00
C999   C     0.31178   0.05879   0.62982   0.00000  Uiso   1.00
C1000  C     0.31211   0.10221   0.63589   0.00000  Uiso   1.00
C1001  C     0.28676   0.12132   0.61961   0.00000  Uiso   1.00
C1002  C     0.28253   0.12060   0.95221   0.00000  Uiso   1.00
C1003  C     0.32441   0.14218   0.94040   0.00000  Uiso   1.00
C1004  C     0.02546   0.12063   0.91849   0.00000  Uiso   1.00
C1005  C     0.01828   0.07751   0.90833   0.00000  Uiso   1.00
C1006  C     0.30999   0.05586   0.91999   0.00000  Uiso   1.00
C1007  C     0.27550   0.07730   0.94182   0.00000  Uiso   1.00
C1008  C     0.12525   0.21898   0.98192   0.00000  Uiso   1.00
C1009  C     0.05078   0.23740   0.98557   0.00000  Uiso   1.00
C1010  C     0.03369   0.26998   0.97552   0.00000  Uiso   1.00
C1011  C     0.32481   0.27771   0.99531   0.00000  Uiso   1.00
C1012  C     0.29923   0.25293   0.52507   0.00000  Uiso   1.00
C1013  C     0.31580   0.22039   0.53518   0.00000  Uiso   1.00
C1014  C     0.02458   0.21243   0.51541   0.00000  Uiso   1.00
C1015  C     0.25323   0.18223   0.91809   0.00000  Uiso   1.00
C1016  C     0.18757   0.18304   0.97846   0.00000  Uiso   1.00
C1017  C     0.17471   0.18473   0.52039   0.00000  Uiso   1.00
C1018  C     0.14453   0.21188   0.54164   0.00000  Uiso   1.00
C1019  C     0.12230   0.23136   0.52257   0.00000  Uiso   1.00
H1020  H     0.27610   0.10122   0.52098   0.00000  Uiso   1.00
H1021  H     0.09983   0.30801   0.66914   0.00000  Uiso   1.00
H1022  H     0.11452   0.23526   0.64501   0.00000  Uiso   1.00
H1023  H     0.06528   0.17569   0.67633   0.00000  Uiso   1.00
H1024  H     0.29302   0.09557   0.76065   0.00000  Uiso   1.00
H1025  H     0.24748   0.32131   0.69155   0.00000  Uiso   1.00
H1026  H     0.24073   0.03421   0.57410   0.00000  Uiso   1.00
H1027  H     0.28580   0.00079   0.60286   0.00000  Uiso   1.00
H1028  H     0.33151   0.04404   0.64232   0.00000  Uiso   1.00
H1029  H     0.33229   0.12109   0.65290   0.00000  Uiso   1.00
H1030  H     0.28836   0.15508   0.62352   0.00000  Uiso   1.00
H1031  H     0.12344   0.33020   0.78027   0.00000  Uiso   1.00
H1032  H     0.33021   0.17560   0.94780   0.00000  Uiso   1.00
H1033  H     0.05767   0.13727   0.90929   0.00000  Uiso   1.00
H1034  H     0.04495   0.06090   0.89139   0.00000  Uiso   1.00
H1035  H     0.30446   0.02246   0.91214   0.00000  Uiso   1.00
H1036  H     0.24338   0.06023   0.95080   0.00000  Uiso   1.00
H1037  H     0.05305   0.28940   0.95245   0.00000  Uiso   1.00
H1038  H     0.31189   0.30287   0.98746   0.00000  Uiso   1.00
H1039  H     0.26652   0.25885   0.54024   0.00000  Uiso   1.00
H1040  H     0.29590   0.20112   0.55813   0.00000  Uiso   1.00
H1041  H     0.03657   0.18648   0.52301   0.00000  Uiso   1.00
H1042  H     0.15088   0.17196   0.59942   0.00000  Uiso   1.00
H1043  H     0.27362   0.16202   0.89622   0.00000  Uiso   1.00
H1044  H     0.08071   0.22653   0.90714   0.00000  Uiso   1.00
H1045  H     0.18398   0.16092   0.90271   0.00000  Uiso   1.00
H1046  H     0.14018   0.22096   0.57293   0.00000  Uiso   1.00
H1047  H     0.08591   0.26604   0.57795   0.00000  Uiso   1.00
H1048  H     0.31976   0.26215   0.75759   0.00000  Uiso   1.00
H1049  H     0.03556   0.32127   0.72515   0.00000  Uiso   1.00
O1050  O     0.16667   0.16667   0.75000   0.00000  Uiso   1.00
O1051  O     0.15693   0.12393   0.66625   0.00000  Uiso   1.00
O1052  O     0.12687   0.20646   0.83749   0.00000  Uiso   1.00
O1053  O     0.21088   0.17493   0.65877   0.00000  Uiso   1.00
O1054  O     0.17198   0.16135   0.83749   0.00000  Uiso   1.00
O1055  O     0.09705   0.29667   0.53029   0.00000  Uiso   1.00
O1056  O     0.32378   0.09962   0.80196   0.00000  Uiso   1.00
O1057  O     0.23056   0.04498   0.70310   0.00000  Uiso   1.00
O1058  O     0.25292   0.21761   0.91036   0.00000  Uiso   1.00
O1059  O     0.17849   0.08101   0.77820   0.00000  Uiso   1.00
O1060  O     0.14581   0.26136   0.76767   0.00000  Uiso   1.00
O1061  O     0.07452   0.13251   0.73607   0.00000  Uiso   1.00
O1062  O     0.26785   0.19179   0.71805   0.00000  Uiso   1.00
O1063  O     0.06990   0.18960   0.77820   0.00000  Uiso   1.00
O1064  O     0.25440   0.15277   0.76767   0.00000  Uiso   1.00
O1065  O     0.13800   0.06903   0.73607   0.00000  Uiso   1.00
O1066  O     0.20437   0.25527   0.71805   0.00000  Uiso   1.00
Zn1067 Zn    0.19244   0.14090   0.78277   0.00000  Uiso   1.00
Zn1068 Zn    0.13459   0.12378   0.72257   0.00000  Uiso   1.00
Zn1069 Zn    0.21166   0.19664   0.71188   0.00000  Uiso   1.00
Zn1070 Zn    0.12798   0.20535   0.78277   0.00000  Uiso   1.00
C1071  C     0.38605   0.15925   0.75855   0.00000  Uiso   1.00
C1072  C     0.56063   0.16772   0.95731   0.00000  Uiso   1.00
C1073  C     0.57907   0.14296   0.97601   0.00000  Uiso   1.00
C1074  C     0.61449   0.17381   0.74132   0.00000  Uiso   1.00
C1075  C     0.56237   0.13954   0.51732   0.00000  Uiso   1.00
C1076  C     0.52740   0.16126   0.53981   0.00000  Uiso   1.00
C1077  C     0.58191   0.11707   0.53713   0.00000  Uiso   1.00
C1078  C     0.56864   0.11718   0.57847   0.00000  Uiso   1.00
C1079  C     0.51209   0.15803   0.58112   0.00000  Uiso   1.00
C1080  C     0.66018   0.17904   0.74006   0.00000  Uiso   1.00
C1081  C     0.34118   0.15388   0.75977   0.00000  Uiso   1.00
C1082  C     0.43638   0.21907   0.92174   0.00000  Uiso   1.00
C1083  C     0.51680   0.32282   0.73743   0.00000  Uiso   1.00
C1084  C     0.48587   0.01176   0.76048   0.00000  Uiso   1.00
C1085  C     0.48852   0.05610   0.75937   0.00000  Uiso   1.00
C1086  C     0.51077   0.27786   0.74108   0.00000  Uiso   1.00
C1087  C     0.52229   0.14497   0.64374   0.00000  Uiso   1.00
C1088  C     0.47861   0.18746   0.85631   0.00000  Uiso   1.00
C1089  C     0.47036   0.19714   0.89967   0.00000  Uiso   1.00
C1090  C     0.53313   0.13763   0.60047   0.00000  Uiso   1.00
C1091  C     0.42808   0.22736   0.96310   0.00000  Uiso   1.00
C1092  C     0.43250   0.26624   0.54598   0.00000  Uiso   1.00
C1093  C     0.49575   0.18298   0.91923   0.00000  Uiso   1.00
C1094  C     0.35580   0.21458   0.71962   0.00000  Uiso   1.00
C1095  C     0.34745   0.25592   0.73285   0.00000  Uiso   1.00
C1096  C     0.37528   0.28947   0.71463   0.00000  Uiso   1.00
C1097  C     0.41151   0.28201   0.68305   0.00000  Uiso   1.00
C1098  C     0.41977   0.24097   0.66940   0.00000  Uiso   1.00
C1099  C     0.39191   0.20732   0.68737   0.00000  Uiso   1.00
C1100  C     0.64990   0.11367   0.77461   0.00000  Uiso   1.00
C1101  C     0.55689   0.00791   0.70853   0.00000  Uiso   1.00
C1102  C     0.59368   0.09697   0.59764   0.00000  Uiso   1.00
C1103  C     0.59368   0.05338   0.59151   0.00000  Uiso   1.00
C1104  C     0.49283   0.19595   0.95943   0.00000  Uiso   1.00
C1105  C     0.61927   0.03440   0.60763   0.00000  Uiso   1.00
C1106  C     0.64511   0.05879   0.62982   0.00000  Uiso   1.00
C1107  C     0.64544   0.10221   0.63589   0.00000  Uiso   1.00
C1108  C     0.62009   0.12132   0.61961   0.00000  Uiso   1.00
C1109  C     0.61587   0.12060   0.95221   0.00000  Uiso   1.00
C1110  C     0.65774   0.14218   0.94040   0.00000  Uiso   1.00
C1111  C     0.35880   0.12063   0.91849   0.00000  Uiso   1.00
C1112  C     0.35161   0.07751   0.90833   0.00000  Uiso   1.00
C1113  C     0.64333   0.05586   0.91999   0.00000  Uiso   1.00
C1114  C     0.60884   0.07730   0.94182   0.00000  Uiso   1.00
C1115  C     0.45858   0.21898   0.98192   0.00000  Uiso   1.00
C1116  C     0.38412   0.23740   0.98557   0.00000  Uiso   1.00
C1117  C     0.36702   0.26998   0.97552   0.00000  Uiso   1.00
C1118  C     0.65815   0.27771   0.99531   0.00000  Uiso   1.00
C1119  C     0.63256   0.25293   0.52507   0.00000  Uiso   1.00
C1120  C     0.64914   0.22039   0.53518   0.00000  Uiso   1.00
C1121  C     0.35791   0.21243   0.51541   0.00000  Uiso   1.00
C1122  C     0.58656   0.18223   0.91809   0.00000  Uiso   1.00
C1123  C     0.52090   0.18304   0.97846   0.00000  Uiso   1.00
C1124  C     0.50804   0.18473   0.52039   0.00000  Uiso   1.00
C1125  C     0.47786   0.21188   0.54164   0.00000  Uiso   1.00
C1126  C     0.45563   0.23136   0.52257   0.00000  Uiso   1.00
H1127  H     0.60943   0.10122   0.52098   0.00000  Uiso   1.00
H1128  H     0.43317   0.30801   0.66914   0.00000  Uiso   1.00
H1129  H     0.44786   0.23526   0.64501   0.00000  Uiso   1.00
H1130  H     0.39862   0.17569   0.67633   0.00000  Uiso   1.00
H1131  H     0.62635   0.09557   0.76065   0.00000  Uiso   1.00
H1132  H     0.58082   0.32131   0.69155   0.00000  Uiso   1.00
H1133  H     0.57406   0.03421   0.57410   0.00000  Uiso   1.00
H1134  H     0.61913   0.00079   0.60286   0.00000  Uiso   1.00
H1135  H     0.66485   0.04404   0.64232   0.00000  Uiso   1.00
H1136  H     0.66562   0.12109   0.65290   0.00000  Uiso   1.00
H1137  H     0.62169   0.15508   0.62352   0.00000  Uiso   1.00
H1138  H     0.45677   0.33020   0.78027   0.00000  Uiso   1.00
H1139  H     0.66354   0.17560   0.94780   0.00000  Uiso   1.00
H1140  H     0.39100   0.13727   0.90929   0.00000  Uiso   1.00
H1141  H     0.37829   0.06090   0.89139   0.00000  Uiso   1.00
H1142  H     0.63780   0.02246   0.91214   0.00000  Uiso   1.00
H1143  H     0.57672   0.06023   0.95080   0.00000  Uiso   1.00
H1144  H     0.38639   0.28940   0.95245   0.00000  Uiso   1.00
H1145  H     0.64523   0.30287   0.98746   0.00000  Uiso   1.00
H1146  H     0.59985   0.25885   0.54024   0.00000  Uiso   1.00
H1147  H     0.62924   0.20112   0.55813   0.00000  Uiso   1.00
H1148  H     0.36990   0.18648   0.52301   0.00000  Uiso   1.00
H1149  H     0.48422   0.17196   0.59942   0.00000  Uiso   1.00
H1150  H     0.60695   0.16202   0.89622   0.00000  Uiso   1.00
H1151  H     0.41404   0.22653   0.90714   0.00000  Uiso   1.00
H1152  H     0.51732   0.16092   0.90271   0.00000  Uiso   1.00
H1153  H     0.47351   0.22096   0.57293   0.00000  Uiso   1.00
H1154  H     0.41924   0.26604   0.57795   0.00000  Uiso   1.00
H1155  H     0.65309   0.26215   0.75759   0.00000  Uiso   1.00
H1156  H     0.36890   0.32127   0.72515   0.00000  Uiso   1.00
O1157  O     0.50000   0.16667   0.75000   0.00000  Uiso   1.00
O1158  O     0.49027   0.12393   0.66625   0.00000  Uiso   1.00
O1159  O     0.46020   0.20646   0.83749   0.00000  Uiso   1.00
O1160  O     0.54421   0.17493   0.65877   0.00000  Uiso   1.00
O1161  O     0.50532   0.16135   0.83749   0.00000  Uiso   1.00
O1162  O     0.43038   0.29667   0.53029   0.00000  Uiso   1.00
O1163  O     0.65711   0.09962   0.80196   0.00000  Uiso   1.00
O1164  O     0.56390   0.04498   0.70310   0.00000  Uiso   1.00
O1165  O     0.58625   0.21761   0.91036   0.00000  Uiso   1.00
O1166  O     0.51182   0.08101   0.77820   0.00000  Uiso   1.00
O1167  O     0.47914   0.26136   0.76767   0.00000  Uiso   1.00
O1168  O     0.40785   0.13251   0.73607   0.00000  Uiso   1.00
O1169  O     0.60119   0.19179   0.71805   0.00000  Uiso   1.00
O1170  O     0.40323   0.18960   0.77820   0.00000  Uiso   1.00
O1171  O     0.58773   0.15277   0.76767   0.00000  Uiso   1.00
O1172  O     0.47133   0.06903   0.73607   0.00000  Uiso   1.00
O1173  O     0.53771   0.25527   0.71805   0.00000  Uiso   1.00
Zn1174 Zn    0.52577   0.14090   0.78277   0.00000  Uiso   1.00
Zn1175 Zn    0.46792   0.12378   0.72257   0.00000  Uiso   1.00
Zn1176 Zn    0.54500   0.19664   0.71188   0.00000  Uiso   1.00
Zn1177 Zn    0.46131   0.20535   0.78277   0.00000  Uiso   1.00
C1178  C     0.71938   0.15925   0.75855   0.00000  Uiso   1.00
C1179  C     0.89396   0.16772   0.95731   0.00000  Uiso   1.00
C1180  C     0.91241   0.14296   0.97601   0.00000  Uiso   1.00
C1181  C     0.94783   0.17381   0.74132   0.00000  Uiso   1.00
C1182  C     0.89570   0.13954   0.51732   0.00000  Uiso   1.00
C1183  C     0.86073   0.16126   0.53981   0.00000  Uiso   1.00
C1184  C     0.91525   0.11707   0.53713   0.00000  Uiso   1.00
C1185  C     0.90197   0.11718   0.57847   0.00000  Uiso   1.00
C1186  C     0.84543   0.15803   0.58112   0.00000  Uiso   1.00
C1187  C     0.99351   0.17904   0.74006   0.00000  Uiso   1.00
C1188  C     0.67451   0.15388   0.75977   0.00000  Uiso   1.00
C1189  C     0.76972   0.21907   0.92174   0.00000  Uiso   1.00
C1190  C     0.85014   0.32282   0.73743   0.00000  Uiso   1.00
C1191  C     0.81920   0.01176   0.76048   0.00000  Uiso   1.00
C1192  C     0.82185   0.05610   0.75937   0.00000  Uiso   1.00
C1193  C     0.84410   0.27786   0.74108   0.00000  Uiso   1.00
C1194  C     0.85562   0.14497   0.64374   0.00000  Uiso   1.00
C1195  C     0.81194   0.18746   0.85631   0.00000  Uiso   1.00
C1196  C     0.80369   0.19714   0.89967   0.00000  Uiso   1.00
C1197  C     0.86646   0.13763   0.60047   0.00000  Uiso   1.00
C1198  C     0.76142   0.22736   0.96310   0.00000  Uiso   1.00
C1199  C     0.76583   0.26624   0.54598   0.00000  Uiso   1.00
C1200  C     0.82908   0.18298   0.91923   0.00000  Uiso   1.00
C1201  C     0.68913   0.21458   0.71962   0.00000  Uiso   1.00
C1202  C     0.68079   0.25592   0.73285   0.00000  Uiso   1.00
C1203  C     0.70862   0.28947   0.71463   0.00000  Uiso   1.00
C1204  C     0.74485   0.28201   0.68305   0.00000  Uiso   1.00
C1205  C     0.75310   0.24097   0.66940   0.00000  Uiso   1.00
C1206  C     0.72525   0.20732   0.68737   0.00000  Uiso   1.00
C1207  C     0.98324   0.11367   0.77461   0.00000  Uiso   1.00
C1208  C     0.89022   0.00791   0.70853   0.00000  Uiso   1.00
C1209  C     0.92701   0.09697   0.59764   0.00000  Uiso   1.00
C1210  C     0.92701   0.05338   0.59151   0.00000  Uiso   1.00
C1211  C     0.82616   0.19595   0.95943   0.00000  Uiso   1.00
C1212  C     0.95260   0.03440   0.60763   0.00000  Uiso   1.00
C1213  C     0.97845   0.05879   0.62982   0.00000  Uiso   1.00
C1214  C     0.97877   0.10221   0.63589   0.00000  Uiso   1.00
C1215  C     0.95343   0.12132   0.61961   0.00000  Uiso   1.00
C1216  C     0.94920   0.12060   0.95221   0.00000  Uiso   1.00
C1217  C     0.99108   0.14218   0.94040   0.00000  Uiso   1.00
C1218  C     0.69213   0.12063   0.91849   0.00000  Uiso   1.00
C1219  C     0.68495   0.07751   0.90833   0.00000  Uiso   1.00
C1220  C     0.97666   0.05586   0.91999   0.00000  Uiso   1.00
C1221  C     0.94217   0.07730   0.94182   0.00000  Uiso   1.00
C1222  C     0.79192   0.21898   0.98192   0.00000  Uiso   1.00
C1223  C     0.71745   0.23740   0.98557   0.00000  Uiso   1.00
C1224  C     0.70035   0.26998   0.97552   0.00000  Uiso   1.00
C1225  C     0.99148   0.27771   0.99531   0.00000  Uiso   1.00
C1226  C     0.96589   0.25293   0.52507   0.00000  Uiso   1.00
C1227  C     0.98247   0.22039   0.53518   0.00000  Uiso   1.00
C1228  C     0.69125   0.21243   0.51541   0.00000  Uiso   1.00
C1229  C     0.91989   0.18223   0.91809   0.00000  Uiso   1.00
C1230  C     0.85423   0.18304   0.97846   0.00000  Uiso   1.00
C1231  C     0.84137   0.18473   0.52039   0.00000  Uiso   1.00
C1232  C     0.81120   0.21188   0.54164   0.00000  Uiso   1.00
C1233  C     0.78896   0.23136   0.52257   0.00000  Uiso   1.00
H1234  H     0.94276   0.10122   0.52098   0.00000  Uiso   1.00
H1235  H     0.76650   0.30801   0.66914   0.00000  Uiso   1.00
H1236  H     0.78119   0.23526   0.64501   0.00000  Uiso   1.00
H1237  H     0.73195   0.17569   0.67633   0.00000  Uiso   1.00
H1238  H     0.95969   0.09557   0.76065   0.00000  Uiso   1.00
H1239  H     0.91415   0.32131   0.69155   0.00000  Uiso   1.00
H1240  H     0.90740   0.03421   0.57410   0.00000  Uiso   1.00
H1241  H     0.95246   0.00079   0.60286   0.00000  Uiso   1.00
H1242  H     0.99818   0.04404   0.64232   0.00000  Uiso   1.00
H1243  H     0.99896   0.12109   0.65290   0.00000  Uiso   1.00
H1244  H     0.95503   0.15508   0.62352   0.00000  Uiso   1.00
H1245  H     0.79011   0.33020   0.78027   0.00000  Uiso   1.00
H1246  H     0.99687   0.17560   0.94780   0.00000  Uiso   1.00
H1247  H     0.72433   0.13727   0.90929   0.00000  Uiso   1.00
H1248  H     0.71162   0.06090   0.89139   0.00000  Uiso   1.00
H1249  H     0.97113   0.02246   0.91214   0.00000  Uiso   1.00
H1250  H     0.91005   0.06023   0.95080   0.00000  Uiso   1.00
H1251  H     0.71972   0.28940   0.95245   0.00000  Uiso   1.00
H1252  H     0.97856   0.30287   0.98746   0.00000  Uiso   1.00
H1253  H     0.93319   0.25885   0.54024   0.00000  Uiso   1.00
H1254  H     0.96257   0.20112   0.55813   0.00000  Uiso   1.00
H1255  H     0.70324   0.18648   0.52301   0.00000  Uiso   1.00
H1256  H     0.81755   0.17196   0.59942   0.00000  Uiso   1.00
H1257  H     0.94029   0.16202   0.89622   0.00000  Uiso   1.00
H1258  H     0.74737   0.22653   0.90714   0.00000  Uiso   1.00
H1259  H     0.85065   0.16092   0.90271   0.00000  Uiso   1.00
H1260  H     0.80684   0.22096   0.57293   0.00000  Uiso   1.00
H1261  H     0.75257   0.26604   0.57795   0.00000  Uiso   1.00
H1262  H     0.98643   0.26215   0.75759   0.00000  Uiso   1.00
H1263  H     0.70223   0.32127   0.72515   0.00000  Uiso   1.00
O1264  O     0.83333   0.16667   0.75000   0.00000  Uiso   1.00
O1265  O     0.82360   0.12393   0.66625   0.00000  Uiso   1.00
O1266  O     0.79354   0.20646   0.83749   0.00000  Uiso   1.00
O1267  O     0.87755   0.17493   0.65877   0.00000  Uiso   1.00
O1268  O     0.83865   0.16135   0.83749   0.00000  Uiso   1.00
O1269  O     0.76372   0.29667   0.53029   0.00000  Uiso   1.00
O1270  O     0.99044   0.09962   0.80196   0.00000  Uiso   1.00
O1271  O     0.89723   0.04498   0.70310   0.00000  Uiso   1.00
O1272  O     0.91959   0.21761   0.91036   0.00000  Uiso   1.00
O1273  O     0.84515   0.08101   0.77820   0.00000  Uiso   1.00
O1274  O     0.81247   0.26136   0.76767   0.00000  Uiso   1.00
O1275  O     0.74119   0.13251   0.73607   0.00000  Uiso   1.00
O1276  O     0.93452   0.19179   0.71805   0.00000  Uiso   1.00
O1277  O     0.73656   0.18960   0.77820   0.00000  Uiso   1.00
O1278  O     0.92106   0.15277   0.76767   0.00000  Uiso   1.00
O1279  O     0.80467   0.06903   0.73607   0.00000  Uiso   1.00
O1280  O     0.87104   0.25527   0.71805   0.00000  Uiso   1.00
Zn1281 Zn    0.85910   0.14090   0.78277   0.00000  Uiso   1.00
Zn1282 Zn    0.80125   0.12378   0.72257   0.00000  Uiso   1.00
Zn1283 Zn    0.87833   0.19664   0.71188   0.00000  Uiso   1.00
Zn1284 Zn    0.79465   0.20535   0.78277   0.00000  Uiso   1.00
C1285  C     0.05271   0.49259   0.75855   0.00000  Uiso   1.00
C1286  C     0.22729   0.50105   0.95731   0.00000  Uiso   1.00
C1287  C     0.24574   0.47629   0.97601   0.00000  Uiso   1.00
C1288  C     0.28116   0.50714   0.74132   0.00000  Uiso   1.00
C1289  C     0.22904   0.47287   0.51732   0.00000  Uiso   1.00
C1290  C     0.19407   0.49459   0.53981   0.00000  Uiso   1.00
C1291  C     0.24858   0.45040   0.53713   0.00000  Uiso   1.00
C1292  C     0.23530   0.45051   0.57847   0.00000  Uiso   1.00
C1293  C     0.17876   0.49136   0.58112   0.00000  Uiso   1.00
C1294  C     0.32685   0.51237   0.74006   0.00000  Uiso   1.00
C1295  C     0.00784   0.48721   0.75977   0.00000  Uiso   1.00
C1296  C     0.10305   0.55241   0.92174   0.00000  Uiso   1.00
C1297  C     0.18347   0.65615   0.73743   0.00000  Uiso   1.00
C1298  C     0.15253   0.34509   0.76048   0.00000  Uiso   1.00
C1299  C     0.15518   0.38943   0.75937   0.00000  Uiso   1.00
C1300  C     0.17743   0.61119   0.74108   0.00000  Uiso   1.00
C1301  C     0.18896   0.47830   0.64374   0.00000  Uiso   1.00
C1302  C     0.14527   0.52080   0.85631   0.00000  Uiso   1.00
C1303  C     0.13703   0.53048   0.89967   0.00000  Uiso   1.00
C1304  C     0.19980   0.47097   0.60047   0.00000  Uiso   1.00
C1305  C     0.09475   0.56069   0.96310   0.00000  Uiso   1.00
C1306  C     0.09917   0.59958   0.54598   0.00000  Uiso   1.00
C1307  C     0.16241   0.51631   0.91923   0.00000  Uiso   1.00
C1308  C     0.02246   0.54791   0.71962   0.00000  Uiso   1.00
C1309  C     0.01412   0.58925   0.73285   0.00000  Uiso   1.00
C1310  C     0.04195   0.62280   0.71463   0.00000  Uiso   1.00
C1311  C     0.07818   0.61534   0.68305   0.00000  Uiso   1.00
C1312  C     0.08644   0.57431   0.66940   0.00000  Uiso   1.00
C1313  C     0.05858   0.54066   0.68737   0.00000  Uiso   1.00
C1314  C     0.31657   0.44701   0.77461   0.00000  Uiso   1.00
C1315  C     0.22356   0.34124   0.70853   0.00000  Uiso   1.00
C1316  C     0.26035   0.43030   0.59764   0.00000  Uiso   1.00
C1317  C     0.26034   0.38672   0.59151   0.00000  Uiso   1.00
C1318  C     0.15949   0.52928   0.95943   0.00000  Uiso   1.00
C1319  C     0.28594   0.36773   0.60763   0.00000  Uiso   1.00
C1320  C     0.31178   0.39212   0.62982   0.00000  Uiso   1.00
C1321  C     0.31211   0.43554   0.63589   0.00000  Uiso   1.00
C1322  C     0.28676   0.45465   0.61961   0.00000  Uiso   1.00
C1323  C     0.28253   0.45394   0.95221   0.00000  Uiso   1.00
C1324  C     0.32441   0.47551   0.94040   0.00000  Uiso   1.00
C1325  C     0.02546   0.45396   0.91849   0.00000  Uiso   1.00
C1326  C     0.01828   0.41085   0.90833   0.00000  Uiso   1.00
C1327  C     0.30999   0.38919   0.91999   0.00000  Uiso   1.00
C1328  C     0.27550   0.41063   0.94182   0.00000  Uiso   1.00
C1329  C     0.12525   0.55231   0.98192   0.00000  Uiso   1.00
C1330  C     0.05078   0.57073   0.98557   0.00000  Uiso   1.00
C1331  C     0.03369   0.60331   0.97552   0.00000  Uiso   1.00
C1332  C     0.32481   0.61105   0.99531   0.00000  Uiso   1.00
C1333  C     0.29923   0.58626   0.52507   0.00000  Uiso   1.00
C1334  C     0.31580   0.55372   0.53518   0.00000  Uiso   1.00
C1335  C     0.02458   0.54577   0.51541   0.00000  Uiso   1.00
C1336  C     0.25323   0.51557   0.91809   0.00000  Uiso   1.00
C1337  C     0.18757   0.51637   0.97846   0.00000  Uiso   1.00
C1338  C     0.17471   0.51806   0.52039   0.00000  Uiso   1.00
C1339  C     0.14453   0.54521   0.54164   0.00000  Uiso   1.00
C1340  C     0.12230   0.56470   0.52257   0.00000  Uiso   1.00
H1341  H     0.27610   0.43455   0.52098   0.00000  Uiso   1.00
H1342  H     0.09983   0.64135   0.66914   0.00000  Uiso   1.00
H1343  H     0.11452   0.56859   0.64501   0.00000  Uiso   1.00
H1344  H     0.06528   0.50902   0.67633   0.00000  Uiso   1.00
H1345  H     0.29302   0.42890   0.76065   0.00000  Uiso   1.00
H1346  H     0.24748   0.65464   0.69155   0.00000  Uiso   1.00
H1347  H     0.24073   0.36754   0.57410   0.00000  Uiso   1.00
H1348  H     0.28580   0.33412   0.60286   0.00000  Uiso   1.00
H1349  H     0.33151   0.37737   0.64232   0.00000  Uiso   1.00
H1350  H     0.33229   0.45442   0.65290   0.00000  Uiso   1.00
H1351  H     0.28836   0.48842   0.62352   0.00000  Uiso   1.00
H1352  H     0.12344   0.66353   0.78027   0.00000  Uiso   1.00
H1353  H     0.33021   0.50894   0.94780   0.00000  Uiso   1.00
H1354  H     0.05767   0.47061   0.90929   0.00000  Uiso   1.00
H1355  H     0.04495   0.39423   0.89139   0.00000  Uiso   1.00
H1356  H     0.30446   0.35579   0.91214   0.00000  Uiso   1.00
H1357  H     0.24338   0.39356   0.95080   0.00000  Uiso   1.00
H1358  H     0.05305   0.62273   0.95245   0.00000  Uiso   1.00
H1359  H     0.31189   0.63621   0.98746   0.00000  Uiso   1.00
H1360  H     0.26652   0.59219   0.54024   0.00000  Uiso   1.00
H1361  H     0.29590   0.53446   0.55813   0.00000  Uiso   1.00
H1362  H     0.03657   0.51982   0.52301   0.00000  Uiso   1.00
H1363  H     0.15088   0.50529   0.59942   0.00000  Uiso   1.00
H1364  H     0.27362   0.49535   0.89622   0.00000  Uiso   1.00
H1365  H     0.08071   0.55987   0.90714   0.00000  Uiso   1.00
H1366  H     0.18398   0.49425   0.90271   0.00000  Uiso   1.00
H1367  H     0.14018   0.55429   0.57293   0.00000  Uiso   1.00
H1368  H     0.08591   0.59938   0.57795   0.00000  Uiso   1.00
H1369  H     0.31976   0.59548   0.75759   0.00000  Uiso   1.00
H1370  H     0.03556   0.65460   0.72515   0.00000  Uiso   1.00
O1371  O     0.16667   0.50000   0.75000   0.00000  Uiso   1.00
O1372  O     0.15693   0.45726   0.66625   0.00000  Uiso   1.00
O1373  O     0.12687   0.53979   0.83749   0.00000  Uiso   1.00
O1374  O     0.21088   0.50826   0.65877   0.00000  Uiso   1.00
O1375  O     0.17198   0.49468   0.83749   0.00000  Uiso   1.00
O1376  O     0.09705   0.63001   0.53029   0.00000  Uiso   1.00
O1377  O     0.32378   0.43296   0.80196   0.00000  Uiso   1.00
O1378  O     0.23056   0.37831   0.70310   0.00000  Uiso   1.00
O1379  O     0.25292   0.55094   0.91036   0.00000  Uiso   1.00
O1380  O     0.17849   0.41434   0.77820   0.00000  Uiso   1.00
O1381  O     0.14581   0.59469   0.76767   0.00000  Uiso   1.00
O1382  O     0.07452   0.46584   0.73607   0.00000  Uiso   1.00
O1383  O     0.26785   0.52512   0.71805   0.00000  Uiso   1.00
O1384  O     0.06990   0.52293   0.77820   0.00000  Uiso   1.00
O1385  O     0.25440   0.48610   0.76767   0.00000  Uiso   1.00
O1386  O     0.13800   0.40236   0.73607   0.00000  Uiso   1.00
O1387  O     0.20437   0.58860   0.71805   0.00000  Uiso   1.00
Zn1388 Zn    0.19244   0.47423   0.78277   0.00000  Uiso   1.00
Zn1389 Zn    0.13459   0.45711   0.72257   0.00000  Uiso   1.00
Zn1390 Zn    0.21166   0.52997   0.71188   0.00000  Uiso   1.00
Zn1391 Zn    0.12798   0.53868   0.78277   0.00000  Uiso   1.00
C1392  C     0.38605   0.49259   0.75855   0.00000  Uiso   1.00
C1393  C     0.56063   0.50105   0.95731   0.00000  Uiso   1.00
C1394  C     0.57907   0.47629   0.97601   0.00000  Uiso   1.00
C1395  C     0.61449   0.50714   0.74132   0.00000  Uiso   1.00
C1396  C     0.56237   0.47287   0.51732   0.00000  Uiso   1.00
C1397  C     0.52740   0.49459   0.53981   0.00000  Uiso   1.00
C1398  C     0.58191   0.45040   0.53713   0.00000  Uiso   1.00
C1399  C     0.56864   0.45051   0.57847   0.00000  Uiso   1.00
C1400  C     0.51209   0.49136   0.58112   0.00000  Uiso   1.00
C1401  C     0.66018   0.51237   0.74006   0.00000  Uiso   1.00
C1402  C     0.34118   0.48721   0.75977   0.00000  Uiso   1.00
C1403  C     0.43638   0.55241   0.92174   0.00000  Uiso   1.00
C1404  C     0.51680   0.65615   0.73743   0.00000  Uiso   1.00
C1405  C     0.48587   0.34509   0.76048   0.00000  Uiso   1.00
C1406  C     0.48852   0.38943   0.75937   0.00000  Uiso   1.00
C1407  C     0.51077   0.61119   0.74108   0.00000  Uiso   1.00
C1408  C     0.52229   0.47830   0.64374   0.00000  Uiso   1.00
C1409  C     0.47861   0.52080   0.85631   0.00000  Uiso   1.00
C1410  C     0.47036   0.53048   0.89967   0.00000  Uiso   1.00
C1411  C     0.53313   0.47097   0.60047   0.00000  Uiso   1.00
C1412  C     0.42808   0.56069   0.96310   0.00000  Uiso   1.00
C1413  C     0.43250   0.59958   0.54598   0.00000  Uiso   1.00
C1414  C     0.49575   0.51631   0.91923   0.00000  Uiso   1.00
C1415  C     0.35580   0.54791   0.71962   0.00000  Uiso   1.00
C1416  C     0.34745   0.58925   0.73285   0.00000  Uiso   1.00
C1417  C     0.37528   0.62280   0.71463   0.00000  Uiso   1.00
C1418  C     0.41151   0.61534   0.68305   0.00000  Uiso   1.00
C1419  C     0.41977   0.57431   0.66940   0.00000  Uiso   1.00
C1420  C     0.39191   0.54066   0.68737   0.00000  Uiso   1.00
C1421  C     0.64990   0.44701   0.77461   0.00000  Uiso   1.00
C1422  C     0.55689   0.34124   0.70853   0.00000  Uiso   1.00
C1423  C     0.59368   0.43030   0.59764   0.00000  Uiso   1.00
C1424  C     0.59368   0.38672   0.59151   0.00000  Uiso   1.00
C1425  C     0.49283   0.52928   0.95943   0.00000  Uiso   1.00
C1426  C     0.61927   0.36773   0.60763   0.00000  Uiso   1.00
C1427  C     0.64511   0.39212   0.62982   0.00000  Uiso   1.00
C1428  C     0.64544   0.43554   0.63589   0.00000  Uiso   1.00
C1429  C     0.62009   0.45465   0.61961   0.00000  Uiso   1.00
C1430  C     0.61587   0.45394   0.95221   0.00000  Uiso   1.00
C1431  C     0.65774   0.47551   0.94040   0.00000  Uiso   1.00
C1432  C     0.35880   0.45396   0.91849   0.00000  Uiso   1.00
C1433  C     0.35161   0.41085   0.90833   0.00000  Uiso   1.00
C1434  C     0.64333   0.38919   0.91999   0.00000  Uiso   1.00
C1435  C     0.60884   0.41063   0.94182   0.00000  Uiso   1.00
C1436  C     0.45858   0.55231   0.98192   0.00000  Uiso   1.00
C1437  C     0.38412   0.57073   0.98557   0.00000  Uiso   1.00
C1438  C     0.36702   0.60331   0.97552   0.00000  Uiso   1.00
C1439  C     0.65815   0.61105   0.99531   0.00000  Uiso   1.00
C1440  C     0.63256   0.58626   0.52507   0.00000  Uiso   1.00
C1441  C     0.64914   0.55372   0.53518   0.00000  Uiso   1.00
C1442  C     0.35791   0.54577   0.51541   0.00000  Uiso   1.00
C1443  C     0.58656   0.51557   0.91809   0.00000  Uiso   1.00
C1444  C     0.52090   0.51637   0.97846   0.00000  Uiso   1.00
C1445  C     0.50804   0.51806   0.52039   0.00000  Uiso   1.00
C1446  C     0.47786   0.54521   0.54164   0.00000  Uiso   1.00
C1447  C     0.45563   0.56470   0.52257   0.00000  Uiso   1.00
H1448  H     0.60943   0.43455   0.52098   0.00000  Uiso   1.00
H1449  H     0.43317   0.64135   0.66914   0.00000  Uiso   1.00
H1450  H     0.44786   0.56859   0.64501   0.00000  Uiso   1.00
H1451  H     0.39862   0.50902   0.67633   0.00000  Uiso   1.00
H1452  H     0.62635   0.42890   0.76065   0.00000  Uiso   1.00
H1453  H     0.58082   0.65464   0.69155   0.00000  Uiso   1.00
H1454  H     0.57406   0.36754   0.57410   0.00000  Uiso   1.00
H1455  H     0.61913   0.33412   0.60286   0.00000  Uiso   1.00
H1456  H     0.66485   0.37737   0.64232   0.00000  Uiso   1.00
H1457  H     0.66562   0.45442   0.65290   0.00000  Uiso   1.00
H1458  H     0.62169   0.48842   0.62352   0.00000  Uiso   1.00
H1459  H     0.45677   0.66353   0.78027   0.00000  Uiso   1.00
H1460  H     0.66354   0.50894   0.94780   0.00000  Uiso   1.00
H1461  H     0.39100   0.47061   0.90929   0.00000  Uiso   1.00
H1462  H     0.37829   0.39423   0.89139   0.00000  Uiso   1.00
H1463  H     0.63780   0.35579   0.91214   0.00000  Uiso   1.00
H1464  H     0.57672   0.39356   0.95080   0.00000  Uiso   1.00
H1465  H     0.38639   0.62273   0.95245   0.00000  Uiso   1.00
H1466  H     0.64523   0.63621   0.98746   0.00000  Uiso   1.00
H1467  H     0.59985   0.59219   0.54024   0.00000  Uiso   1.00
H1468  H     0.62924   0.53446   0.55813   0.00000  Uiso   1.00
H1469  H     0.36990   0.51982   0.52301   0.00000  Uiso   1.00
H1470  H     0.48422   0.50529   0.59942   0.00000  Uiso   1.00
H1471  H     0.60695   0.49535   0.89622   0.00000  Uiso   1.00
H1472  H     0.41404   0.55987   0.90714   0.00000  Uiso   1.00
H1473  H     0.51732   0.49425   0.90271   0.00000  Uiso   1.00
H1474  H     0.47351   0.55429   0.57293   0.00000  Uiso   1.00
H1475  H     0.41924   0.59938   0.57795   0.00000  Uiso   1.00
H1476  H     0.65309   0.59548   0.75759   0.00000  Uiso   1.00
H1477  H     0.36890   0.65460   0.72515   0.00000  Uiso   1.00
O1478  O     0.50000   0.50000   0.75000   0.00000  Uiso   1.00
O1479  O     0.49027   0.45726   0.66625   0.00000  Uiso   1.00
O1480  O     0.46020   0.53979   0.83749   0.00000  Uiso   1.00
O1481  O     0.54421   0.50826   0.65877   0.00000  Uiso   1.00
O1482  O     0.50532   0.49468   0.83749   0.00000  Uiso   1.00
O1483  O     0.43038   0.63001   0.53029   0.00000  Uiso   1.00
O1484  O     0.65711   0.43296   0.80196   0.00000  Uiso   1.00
O1485  O     0.56390   0.37831   0.70310   0.00000  Uiso   1.00
O1486  O     0.58625   0.55094   0.91036   0.00000  Uiso   1.00
O1487  O     0.51182   0.41434   0.77820   0.00000  Uiso   1.00
O1488  O     0.47914   0.59469   0.76767   0.00000  Uiso   1.00
O1489  O     0.40785   0.46584   0.73607   0.00000  Uiso   1.00
O1490  O     0.60119   0.52512   0.71805   0.00000  Uiso   1.00
O1491  O     0.40323   0.52293   0.77820   0.00000  Uiso   1.00
O1492  O     0.58773   0.48610   0.76767   0.00000  Uiso   1.00
O1493  O     0.47133   0.40236   0.73607   0.00000  Uiso   1.00
O1494  O     0.53771   0.58860   0.71805   0.00000  Uiso   1.00
Zn1495 Zn    0.52577   0.47423   0.78277   0.00000  Uiso   1.00
Zn1496 Zn    0.46792   0.45711   0.72257   0.00000  Uiso   1.00
Zn1497 Zn    0.54500   0.52997   0.71188   0.00000  Uiso   1.00
Zn1498 Zn    0.46131   0.53868   0.78277   0.00000  Uiso   1.00
C1499  C     0.71938   0.49259   0.75855   0.00000  Uiso   1.00
C1500  C     0.89396   0.50105   0.95731   0.00000  Uiso   1.00
C1501  C     0.91241   0.47629   0.97601   0.00000  Uiso   1.00
C1502  C     0.94783   0.50714   0.74132   0.00000  Uiso   1.00
C1503  C     0.89570   0.47287   0.51732   0.00000  Uiso   1.00
C1504  C     0.86073   0.49459   0.53981   0.00000  Uiso   1.00
C1505  C     0.91525   0.45040   0.53713   0.00000  Uiso   1.00
C1506  C     0.90197   0.45051   0.57847   0.00000  Uiso   1.00
C1507  C     0.84543   0.49136   0.58112   0.00000  Uiso   1.00
C1508  C     0.99351   0.51237   0.74006   0.00000  Uiso   1.00
C1509  C     0.67451   0.48721   0.75977   0.00000  Uiso   1.00
C1510  C     0.76972   0.55241   0.92174   0.00000  Uiso   1.00
C1511  C     0.85014   0.65615   0.73743   0.00000  Uiso   1.00
C1512  C     0.81920   0.34509   0.76048   0.00000  Uiso   1.00
C1513  C     0.82185   0.38943   0.75937   0.00000  Uiso   1.00
C1514  C     0.84410   0.61119   0.74108   0.00000  Uiso   1.00
C1515  C     0.85562   0.47830   0.64374   0.00000  Uiso   1.00
C1516  C     0.81194   0.52080   0.85631   0.00000  Uiso   1.00
C1517  C     0.80369   0.53048   0.89967   0.00000  Uiso   1.00
C1518  C     0.86646   0.47097   0.60047   0.00000  Uiso   1.00
C1519  C     0.76142   0.56069   0.96310   0.00000  Uiso   1.00
C1520  C     0.76583   0.59958   0.54598   0.00000  Uiso   1.00
C1521  C     0.82908   0.51631   0.91923   0.00000  Uiso   1.00
C1522  C     0.68913   0.54791   0.71962   0.00000  Uiso   1.00
C1523  C     0.68079   0.58925   0.73285   0.00000  Uiso   1.00
C1524  C     0.70862   0.62280   0.71463   0.00000  Uiso   1.00
C1525  C     0.74485   0.61534   0.68305   0.00000  Uiso   1.00
C1526  C     0.75310   0.57431   0.66940   0.00000  Uiso   1.00
C1527  C     0.72525   0.54066   0.68737   0.00000  Uiso   1.00
C1528  C     0.98324   0.44701   0.77461   0.00000  Uiso   1.00
C1529  C     0.89022   0.34124   0.70853   0.00000  Uiso   1.00
C1530  C     0.92701   0.43030   0.59764   0.00000  Uiso   1.00
C1531  C     0.92701   0.38672   0.59151   0.00000  Uiso   1.00
C1532  C     0.82616   0.52928   0.95943   0.00000  Uiso   1.00
C1533  C     0.95260   0.36773   0.60763   0.00000  Uiso   1.00
C1534  C     0.97845   0.39212   0.62982   0.00000  Uiso   1.00
C1535  C     0.97877   0.43554   0.63589   0.00000  Uiso   1.00
C1536  C     0.95343   0.45465   0.61961   0.00000  Uiso   1.00
C1537  C     0.94920   0.45394   0.95221   0.00000  Uiso   1.00
C1538  C     0.99108   0.47551   0.94040   0.00000  Uiso   1.00
C1539  C     0.69213   0.45396   0.91849   0.00000  Uiso   1.00
C1540  C     0.68495   0.41085   0.90833   0.00000  Uiso   1.00
C1541  C     0.97666   0.38919   0.91999   0.00000  Uiso   1.00
C1542  C     0.94217   0.41063   0.94182   0.00000  Uiso   1.00
C1543  C     0.79192   0.55231   0.98192   0.00000  Uiso   1.00
C1544  C     0.71745   0.57073   0.98557   0.00000  Uiso   1.00
C1545  C     0.70035   0.60331   0.97552   0.00000  Uiso   1.00
C1546  C     0.99148   0.61105   0.99531   0.00000  Uiso   1.00
C1547  C     0.96589   0.58626   0.52507   0.00000  Uiso   1.00
C1548  C     0.98247   0.55372   0.53518   0.00000  Uiso   1.00
C1549  C     0.69125   0.54577   0.51541   0.00000  Uiso   1.00
C1550  C     0.91989   0.51557   0.91809   0.00000  Uiso   1.00
C1551  C     0.85423   0.51637   0.97846   0.00000  Uiso   1.00
C1552  C     0.84137   0.51806   0.52039   0.00000  Uiso   1.00
C1553  C     0.81120   0.54521   0.54164   0.00000  Uiso   1.00
C1554  C     0.78896   0.56470   0.52257   0.00000  Uiso   1.00
H1555  H     0.94276   0.43455   0.52098   0.00000  Uiso   1.00
H1556  H     0.76650   0.64135   0.66914   0.00000  Uiso   1.00
H1557  H     0.78119   0.56859   0.64501   0.00000  Uiso   1.00
H1558  H     0.73195   0.50902   0.67633   0.00000  Uiso   1.00
H1559  H     0.95969   0.42890   0.76065   0.00000  Uiso   1.00
H1560  H     0.91415   0.65464   0.69155   0.00000  Uiso   1.00
H1561  H     0.90740   0.36754   0.57410   0.00000  Uiso   1.00
H1562  H     0.95246   0.33412   0.60286   0.00000  Uiso   1.00
H1563  H     0.99818   0.37737   0.64232   0.00000  Uiso   1.00
H1564  H     0.99896   0.45442   0.65290   0.00000  Uiso   1.00
H1565  H     0.95503   0.48842   0.62352   0.00000  Uiso   1.00
H1566  H     0.79011   0.66353   0.78027   0.00000  Uiso   1.00
H1567  H     0.99687   0.50894   0.94780   0.00000  Uiso   1.00
H1568  H     0.72433   0.47061   0.90929   0.00000  Uiso   1.00
H1569  H     0.71162   0.39423   0.89139   0.00000  Uiso   1.00
H1570  H     0.97113   0.35579   0.91214   0.00000  Uiso   1.00
H1571  H     0.91005   0.39356   0.95080   0.00000  Uiso   1.00
H1572  H     0.71972   0.62273   0.95245   0.00000  Uiso   1.00
H1573  H     0.97856   0.63621   0.98746   0.00000  Uiso   1.00
H1574  H     0.93319   0.59219   0.54024   0.00000  Uiso   1.00
H1575  H     0.96257   0.53446   0.55813   0.00000  Uiso   1.00
H1576  H     0.70324   0.51982   0.52301   0.00000  Uiso   1.00
H1577  H     0.81755   0.50529   0.59942   0.00000  Uiso   1.00
H1578  H     0.94029   0.49535   0.89622   0.00000  Uiso   1.00
H1579  H     0.74737   0.55987   0.90714   0.00000  Uiso   1.00
H1580  H     0.85065   0.49425   0.90271   0.00000  Uiso   1.00
H1581  H     0.80684   0.55429   0.57293   0.00000  Uiso   1.00
H1582  H     0.75257   0.59938   0.57795   0.00000  Uiso   1.00
H1583  H     0.98643   0.59548   0.75759   0.00000  Uiso   1.00
H1584  H     0.70223   0.65460   0.72515   0.00000  Uiso   1.00
O1585  O     0.83333   0.50000   0.75000   0.00000  Uiso   1.00
O1586  O     0.82360   0.45726   0.66625   0.00000  Uiso   1.00
O1587  O     0.79354   0.53979   0.83749   0.00000  Uiso   1.00
O1588  O     0.87755   0.50826   0.65877   0.00000  Uiso   1.00
O1589  O     0.83865   0.49468   0.83749   0.00000  Uiso   1.00
O1590  O     0.76372   0.63001   0.53029   0.00000  Uiso   1.00
O1591  O     0.99044   0.43296   0.80196   0.00000  Uiso   1.00
O1592  O     0.89723   0.37831   0.70310   0.00000  Uiso   1.00
O1593  O     0.91959   0.55094   0.91036   0.00000  Uiso   1.00
O1594  O     0.84515   0.41434   0.77820   0.00000  Uiso   1.00
O1595  O     0.81247   0.59469   0.76767   0.00000  Uiso   1.00
O1596  O     0.74119   0.46584   0.73607   0.00000  Uiso   1.00
O1597  O     0.93452   0.52512   0.71805   0.00000  Uiso   1.00
O1598  O     0.73656   0.52293   0.77820   0.00000  Uiso   1.00
O1599  O     0.92106   0.48610   0.76767   0.00000  Uiso   1.00
O1600  O     0.80467   0.40236   0.73607   0.00000  Uiso   1.00
O1601  O     0.87104   0.58860   0.71805   0.00000  Uiso   1.00
Zn1602 Zn    0.85910   0.47423   0.78277   0.00000  Uiso   1.00
Zn1603 Zn    0.80125   0.45711   0.72257   0.00000  Uiso   1.00
Zn1604 Zn    0.87833   0.52997   0.71188   0.00000  Uiso   1.00
Zn1605 Zn    0.79465   0.53868   0.78277   0.00000  Uiso   1.00
C1606  C     0.05271   0.82592   0.75855   0.00000  Uiso   1.00
C1607  C     0.22729   0.83438   0.95731   0.00000  Uiso   1.00
C1608  C     0.24574   0.80962   0.97601   0.00000  Uiso   1.00
C1609  C     0.28116   0.84047   0.74132   0.00000  Uiso   1.00
C1610  C     0.22904   0.80621   0.51732   0.00000  Uiso   1.00
C1611  C     0.19407   0.82792   0.53981   0.00000  Uiso   1.00
C1612  C     0.24858   0.78373   0.53713   0.00000  Uiso   1.00
C1613  C     0.23530   0.78384   0.57847   0.00000  Uiso   1.00
C1614  C     0.17876   0.82470   0.58112   0.00000  Uiso   1.00
C1615  C     0.32685   0.84571   0.74006   0.00000  Uiso   1.00
C1616  C     0.00784   0.82055   0.75977   0.00000  Uiso   1.00
C1617  C     0.10305   0.88574   0.92174   0.00000  Uiso   1.00
C1618  C     0.18347   0.98948   0.73743   0.00000  Uiso   1.00
C1619  C     0.15253   0.67843   0.76048   0.00000  Uiso   1.00
C1620  C     0.15518   0.72276   0.75937   0.00000  Uiso   1.00
C1621  C     0.17743   0.94452   0.74108   0.00000  Uiso   1.00
C1622  C     0.18896   0.81164   0.64374   0.00000  Uiso   1.00
C1623  C     0.14527   0.85413   0.85631   0.00000  Uiso   1.00
C1624  C     0.13703   0.86381   0.89967   0.00000  Uiso   1.00
C1625  C     0.19980   0.80430   0.60047   0.00000  Uiso   1.00
C1626  C     0.09475   0.89402   0.96310   0.00000  Uiso   1.00
C1627  C     0.09917   0.93291   0.54598   0.00000  Uiso   1.00
C1628  C     0.16241   0.84964   0.91923   0.00000  Uiso   1.00
C1629  C     0.02246   0.88125   0.71962   0.00000  Uiso   1.00
C1630  C     0.01412   0.92258   0.73285   0.00000  Uiso   1.00
C1631  C     0.04195   0.95613   0.71463   0.00000  Uiso   1.00
C1632  C     0.07818   0.94867   0.68305   0.00000  Uiso   1.00
C1633  C     0.08644   0.90764   0.66940   0.00000  Uiso   1.00
C1634  C     0.05858   0.87399   0.68737   0.00000  Uiso   1.00
C1635  C     0.31657   0.78034   0.77461   0.00000  Uiso   1.00
C1636  C     0.22356   0.67458   0.70853   0.00000  Uiso   1.00
C1637  C     0.26035   0.76363   0.59764   0.00000  Uiso   1.00
C1638  C     0.26034   0.72005   0.59151   0.00000  Uiso   1.00
C1639  C     0.15949   0.86262   0.95943   0.00000  Uiso   1.00
C1640  C     0.28594   0.70106   0.60763   0.00000  Uiso   1.00
C1641  C     0.31178   0.72546   0.62982   0.00000  Uiso   1.00
C1642  C     0.31211   0.76887   0.63589   0.00000  Uiso   1.00
C1643  C     0.28676   0.78799   0.61961   0.00000  Uiso   1.00
C1644  C     0.28253   0.78727   0.95221   0.00000  Uiso   1.00
C1645  C     0.32441   0.80885   0.94040   0.00000  Uiso   1.00
C1646  C     0.02546   0.78730   0.91849   0.00000  Uiso   1.00
C1647  C     0.01828   0.74418   0.90833   0.00000  Uiso   1.00
C1648  C     0.30999   0.72253   0.91999   0.00000  Uiso   1.00
C1649  C     0.27550   0.74397   0.94182   0.00000  Uiso   1.00
C1650  C     0.12525   0.88564   0.98192   0.00000  Uiso   1.00
C1651  C     0.05078   0.90407   0.98557   0.00000  Uiso   1.00
C1652  C     0.03369   0.93665   0.97552   0.00000  Uiso   1.00
C1653  C     0.32481   0.94438   0.99531   0.00000  Uiso   1.00
C1654  C     0.29923   0.91959   0.52507   0.00000  Uiso   1.00
C1655  C     0.31580   0.88706   0.53518   0.00000  Uiso   1.00
C1656  C     0.02458   0.87910   0.51541   0.00000  Uiso   1.00
C1657  C     0.25323   0.84890   0.91809   0.00000  Uiso   1.00
C1658  C     0.18757   0.84970   0.97846   0.00000  Uiso   1.00
C1659  C     0.17471   0.85139   0.52039   0.00000  Uiso   1.00
C1660  C     0.14453   0.87854   0.54164   0.00000  Uiso   1.00
C1661  C     0.12230   0.89803   0.52257   0.00000  Uiso   1.00
H1662  H     0.27610   0.76788   0.52098   0.00000  Uiso   1.00
H1663  H     0.09983   0.97468   0.66914   0.00000  Uiso   1.00
H1664  H     0.11452   0.90192   0.64501   0.00000  Uiso   1.00
H1665  H     0.06528   0.84236   0.67633   0.00000  Uiso   1.00
H1666  H     0.29302   0.76223   0.76065   0.00000  Uiso   1.00
H1667  H     0.24748   0.98798   0.69155   0.00000  Uiso   1.00
H1668  H     0.24073   0.70088   0.57410   0.00000  Uiso   1.00
H1669  H     0.28580   0.66746   0.60286   0.00000  Uiso   1.00
H1670  H     0.33151   0.71071   0.64232   0.00000  Uiso   1.00
H1671  H     0.33229   0.78776   0.65290   0.00000  Uiso   1.00
H1672  H     0.28836   0.82175   0.62352   0.00000  Uiso   1.00
H1673  H     0.12344   0.99686   0.78027   0.00000  Uiso   1.00
H1674  H     0.33021   0.84227   0.94780   0.00000  Uiso   1.00
H1675  H     0.05767   0.80394   0.90929   0.00000  Uiso   1.00
H1676  H     0.04495   0.72757   0.89139   0.00000  Uiso   1.00
H1677  H     0.30446   0.68913   0.91214   0.00000  Uiso   1.00
H1678  H     0.24338   0.72689   0.95080   0.00000  Uiso   1.00
H1679  H     0.05305   0.95607   0.95245   0.00000  Uiso   1.00
H1680  H     0.31189   0.96954   0.98746   0.00000  Uiso   1.00
H1681  H     0.26652   0.92552   0.54024   0.00000  Uiso   1.00
H1682  H     0.29590   0.86779   0.55813   0.00000  Uiso   1.00
H1683  H     0.03657   0.85315   0.52301   0.00000  Uiso   1.00
H1684  H     0.15088   0.83863   0.59942   0.00000  Uiso   1.00
H1685  H     0.27362   0.82868   0.89622   0.00000  Uiso   1.00
H1686  H     0.08071   0.89320   0.90714   0.00000  Uiso   1.00
H1687  H     0.18398   0.82758   0.90271   0.00000  Uiso   1.00
H1688  H     0.14018   0.88763   0.57293   0.00000  Uiso   1.00
H1689  H     0.08591   0.93271   0.57795   0.00000  Uiso   1.00
H1690  H     0.31976   0.92882   0.75759   0.00000  Uiso   1.00
H1691  H     0.03556   0.98793   0.72515   0.00000  Uiso   1.00
O1692  O     0.16667   0.83333   0.75000   0.00000  Uiso   1.00
O1693  O     0.15693   0.79060   0.66625   0.00000  Uiso   1.00
O1694  O     0.12687   0.87313   0.83749   0.00000  Uiso   1.00
O1695  O     0.21088   0.84159   0.65877   0.00000  Uiso   1.00
O1696  O     0.17198   0.82802   0.83749   0.00000  Uiso   1.00
O1697  O     0.09705   0.96334   0.53029   0.00000  Uiso   1.00
O1698  O     0.32378   0.76629   0.80196   0.00000  Uiso   1.00
O1699  O     0.23056   0.71164   0.70310   0.00000  Uiso   1.00
O1700  O     0.25292   0.88427   0.91036   0.00000  Uiso   1.00
O1701  O     0.17849   0.74768   0.77820   0.00000  Uiso   1.00
O1702  O     0.14581   0.92803   0.76767   0.00000  Uiso   1.00
O1703  O     0.07452   0.79917   0.73607   0.00000  Uiso   1.00
O1704  O     0.26785   0.85845   0.71805   0.00000  Uiso   1.00
O1705  O     0.06990   0.85627   0.77820   0.00000  Uiso   1.00
O1706  O     0.25440   0.81944   0.76767   0.00000  Uiso   1.00
O1707  O     0.13800   0.73570   0.73607   0.00000  Uiso   1.00
O1708  O     0.20437   0.92193   0.71805   0.00000  Uiso   1.00
Zn1709 Zn    0.19244   0.80756   0.78277   0.00000  Uiso   1.00
Zn1710 Zn    0.13459   0.79044   0.72257   0.00000  Uiso   1.00
Zn1711 Zn    0.21166   0.86331   0.71188   0.00000  Uiso   1.00
Zn1712 Zn    0.12798   0.87202   0.78277   0.00000  Uiso   1.00
C1713  C     0.38605   0.82592   0.75855   0.00000  Uiso   1.00
C1714  C     0.56063   0.83438   0.95731   0.00000  Uiso   1.00
C1715  C     0.57907   0.80962   0.97601   0.00000  Uiso   1.00
C1716  C     0.61449   0.84047   0.74132   0.00000  Uiso   1.00
C1717  C     0.56237   0.80621   0.51732   0.00000  Uiso   1.00
C1718  C     0.52740   0.82792   0.53981   0.00000  Uiso   1.00
C1719  C     0.58191   0.78373   0.53713   0.00000  Uiso   1.00
C1720  C     0.56864   0.78384   0.57847   0.00000  Uiso   1.00
C1721  C     0.51209   0.82470   0.58112   0.00000  Uiso   1.00
C1722  C     0.66018   0.84571   0.74006   0.00000  Uiso   1.00
C1723  C     0.34118   0.82055   0.75977   0.00000  Uiso   1.00
C1724  C     0.43638   0.88574   0.92174   0.00000  Uiso   1.00
C1725  C     0.51680   0.98948   0.73743   0.00000  Uiso   1.00
C1726  C     0.48587   0.67843   0.76048   0.00000  Uiso   1.00
C1727  C     0.48852   0.72276   0.75937   0.00000  Uiso   1.00
C1728  C     0.51077   0.94452   0.74108   0.00000  Uiso   1.00
C1729  C     0.52229   0.81164   0.64374   0.00000  Uiso   1.00
C1730  C     0.47861   0.85413   0.85631   0.00000  Uiso   1.00
C1731  C     0.47036   0.86381   0.89967   0.00000  Uiso   1.00
C1732  C     0.53313   0.80430   0.60047   0.00000  Uiso   1.00
C1733  C     0.42808   0.89402   0.96310   0.00000  Uiso   1.00
C1734  C     0.43250   0.93291   0.54598   0.00000  Uiso   1.00
C1735  C     0.49575   0.84964   0.91923   0.00000  Uiso   1.00
C1736  C     0.35580   0.88125   0.71962   0.00000  Uiso   1.00
C1737  C     0.34745   0.92258   0.73285   0.00000  Uiso   1.00
C1738  C     0.37528   0.95613   0.71463   0.00000  Uiso   1.00
C1739  C     0.41151   0.94867   0.68305   0.00000  Uiso   1.00
C1740  C     0.41977   0.90764   0.66940   0.00000  Uiso   1.00
C1741  C     0.39191   0.87399   0.68737   0.00000  Uiso   1.00
C1742  C     0.64990   0.78034   0.77461   0.00000  Uiso   1.00
C1743  C     0.55689   0.67458   0.70853   0.00000  Uiso   1.00
C1744  C     0.59368   0.76363   0.59764   0.00000  Uiso   1.00
C1745  C     0.59368   0.72005   0.59151   0.00000  Uiso   1.00
C1746  C     0.49283   0.86262   0.95943   0.00000  Uiso   1.00
C1747  C     0.61927   0.70106   0.60763   0.00000  Uiso   1.00
C1748  C     0.64511   0.72546   0.62982   0.00000  Uiso   1.00
C1749  C     0.64544   0.76887   0.63589   0.00000  Uiso   1.00
C1750  C     0.62009   0.78799   0.61961   0.00000  Uiso   1.00
C1751  C     0.61587   0.78727   0.95221   0.00000  Uiso   1.00
C1752  C     0.65774   0.80885   0.94040   0.00000  Uiso   1.00
C1753  C     0.35880   0.78730   0.91849   0.00000  Uiso   1.00
C1754  C     0.35161   0.74418   0.90833   0.00000  Uiso   1.00
C1755  C     0.64333   0.72253   0.91999   0.00000  Uiso   1.00
C1756  C     0.60884   0.74397   0.94182   0.00000  Uiso   1.00
C1757  C     0.45858   0.88564   0.98192   0.00000  Uiso   1.00
C1758  C     0.38412   0.90407   0.98557   0.00000  Uiso   1.00
C1759  C     0.36702   0.93665   0.97552   0.00000  Uiso   1.00
C1760  C     0.65815   0.94438   0.99531   0.00000  Uiso   1.00
C1761  C     0.63256   0.91959   0.52507   0.00000  Uiso   1.00
C1762  C     0.64914   0.88706   0.53518   0.00000  Uiso   1.00
C1763  C     0.35791   0.87910   0.51541   0.00000  Uiso   1.00
C1764  C     0.58656   0.84890   0.91809   0.00000  Uiso   1.00
C1765  C     0.52090   0.84970   0.97846   0.00000  Uiso   1.00
C1766  C     0.50804   0.85139   0.52039   0.00000  Uiso   1.00
C1767  C     0.47786   0.87854   0.54164   0.00000  Uiso   1.00
C1768  C     0.45563   0.89803   0.52257   0.00000  Uiso   1.00
H1769  H     0.60943   0.76788   0.52098   0.00000  Uiso   1.00
H1770  H     0.43317   0.97468   0.66914   0.00000  Uiso   1.00
H1771  H     0.44786   0.90192   0.64501   0.00000  Uiso   1.00
H1772  H     0.39862   0.84236   0.67633   0.00000  Uiso   1.00
H1773  H     0.62635   0.76223   0.76065   0.00000  Uiso   1.00
H1774  H     0.58082   0.98798   0.69155   0.00000  Uiso   1.00
H1775  H     0.57406   0.70088   0.57410   0.00000  Uiso   1.00
H1776  H     0.61913   0.66746   0.60286   0.00000  Uiso   1.00
H1777  H     0.66485   0.71071   0.64232   0.00000  Uiso   1.00
H1778  H     0.66562   0.78776   0.65290   0.00000  Uiso   1.00
H1779  H     0.62169   0.82175   0.62352   0.00000  Uiso   1.00
H1780  H     0.45677   0.99686   0.78027   0.00000  Uiso   1.00
H1781  H     0.66354   0.84227   0.94780   0.00000  Uiso   1.00
H1782  H     0.39100   0.80394   0.90929   0.00000  Uiso   1.00
H1783  H     0.37829   0.72757   0.89139   0.00000  Uiso   1.00
H1784  H     0.63780   0.68913   0.91214   0.00000  Uiso   1.00
H1785  H     0.57672   0.72689   0.95080   0.00000  Uiso   1.00
H1786  H     0.38639   0.95607   0.95245   0.00000  Uiso   1.00
H1787  H     0.64523   0.96954   0.98746   0.00000  Uiso   1.00
H1788  H     0.59985   0.92552   0.54024   0.00000  Uiso   1.00
H1789  H     0.62924   0.86779   0.55813   0.00000  Uiso   1.00
H1790  H     0.36990   0.85315   0.52301   0.00000  Uiso   1.00
H1791  H     0.48422   0.83863   0.59942   0.00000  Uiso   1.00
H1792  H     0.60695   0.82868   0.89622   0.00000  Uiso   1.00
H1793  H     0.41404   0.89320   0.90714   0.00000  Uiso   1.00
H1794  H     0.51732   0.82758   0.90271   0.00000  Uiso   1.00
H1795  H     0.47351   0.88763   0.57293   0.00000  Uiso   1.00
H1796  H     0.41924   0.93271   0.57795   0.00000  Uiso   1.00
H1797  H     0.65309   0.92882   0.75759   0.00000  Uiso   1.00
H1798  H     0.36890   0.98793   0.72515   0.00000  Uiso   1.00
O1799  O     0.50000   0.83333   0.75000   0.00000  Uiso   1.00
O1800  O     0.49027   0.79060   0.66625   0.00000  Uiso   1.00
O1801  O     0.46020   0.87313   0.83749   0.00000  Uiso   1.00
O1802  O     0.54421   0.84159   0.65877   0.00000  Uiso   1.00
O1803  O     0.50532   0.82802   0.83749   0.00000  Uiso   1.00
O1804  O     0.43038   0.96334   0.53029   0.00000  Uiso   1.00
O1805  O     0.65711   0.76629   0.80196   0.00000  Uiso   1.00
O1806  O     0.56390   0.71164   0.70310   0.00000  Uiso   1.00
O1807  O     0.58625   0.88427   0.91036   0.00000  Uiso   1.00
O1808  O     0.51182   0.74768   0.77820   0.00000  Uiso   1.00
O1809  O     0.47914   0.92803   0.76767   0.00000  Uiso   1.00
O1810  O     0.40785   0.79917   0.73607   0.00000  Uiso   1.00
O1811  O     0.60119   0.85845   0.71805   0.00000  Uiso   1.00
O1812  O     0.40323   0.85627   0.77820   0.00000  Uiso   1.00
O1813  O     0.58773   0.81944   0.76767   0.00000  Uiso   1.00
O1814  O     0.47133   0.73570   0.73607   0.00000  Uiso   1.00
O1815  O     0.53771   0.92193   0.71805   0.00000  Uiso   1.00
Zn1816 Zn    0.52577   0.80756   0.78277   0.00000  Uiso   1.00
Zn1817 Zn    0.46792   0.79044   0.72257   0.00000  Uiso   1.00
Zn1818 Zn    0.54500   0.86331   0.71188   0.00000  Uiso   1.00
Zn1819 Zn    0.46131   0.87202   0.78277   0.00000  Uiso   1.00
C1820  C     0.71938   0.82592   0.75855   0.00000  Uiso   1.00
C1821  C     0.89396   0.83438   0.95731   0.00000  Uiso   1.00
C1822  C     0.91241   0.80962   0.97601   0.00000  Uiso   1.00
C1823  C     0.94783   0.84047   0.74132   0.00000  Uiso   1.00
C1824  C     0.89570   0.80621   0.51732   0.00000  Uiso   1.00
C1825  C     0.86073   0.82792   0.53981   0.00000  Uiso   1.00
C1826  C     0.91525   0.78373   0.53713   0.00000  Uiso   1.00
C1827  C     0.90197   0.78384   0.57847   0.00000  Uiso   1.00
C1828  C     0.84543   0.82470   0.58112   0.00000  Uiso   1.00
C1829  C     0.99351   0.84571   0.74006   0.00000  Uiso   1.00
C1830  C     0.67451   0.82055   0.75977   0.00000  Uiso   1.00
C1831  C     0.76972   0.88574   0.92174   0.00000  Uiso   1.00
C1832  C     0.85014   0.98948   0.73743   0.00000  Uiso   1.00
C1833  C     0.81920   0.67843   0.76048   0.00000  Uiso   1.00
C1834  C     0.82185   0.72276   0.75937   0.00000  Uiso   1.00
C1835  C     0.84410   0.94452   0.74108   0.00000  Uiso   1.00
C1836  C     0.85562   0.81164   0.64374   0.00000  Uiso   1.00
C1837  C     0.81194   0.85413   0.85631   0.00000  Uiso   1.00
C1838  C     0.80369   0.86381   0.89967   0.00000  Uiso   1.00
C1839  C     0.86646   0.80430   0.60047   0.00000  Uiso   1.00
C1840  C     0.76142   0.89402   0.96310   0.00000  Uiso   1.00
C1841  C     0.76583   0.93291   0.54598   0.00000  Uiso   1.00
C1842  C     0.82908   0.84964   0.91923   0.00000  Uiso   1.00
C1843  C     0.68913   0.88125   0.71962   0.00000  Uiso   1.00
C1844  C     0.68079   0.92258   0.73285   0.00000  Uiso   1.00
C1845  C     0.70862   0.95613   0.71463   0.00000  Uiso   1.00
C1846  C     0.74485   0.94867   0.68305   0.00000  Uiso   1.00
C1847  C     0.75310   0.90764   0.66940   0.00000  Uiso   1.00
C1848  C     0.72525   0.87399   0.68737   0.00000  Uiso   1.00
C1849  C     0.98324   0.78034   0.77461   0.00000  Uiso   1.00
C1850  C     0.89022   0.67458   0.70853   0.00000  Uiso   1.00
C1851  C     0.92701   0.76363   0.59764   0.00000  Uiso   1.00
C1852  C     0.92701   0.72005   0.59151   0.00000  Uiso   1.00
C1853  C     0.82616   0.86262   0.95943   0.00000  Uiso   1.00
C1854  C     0.95260   0.70106   0.60763   0.00000  Uiso   1.00
C1855  C     0.97845   0.72546   0.62982   0.00000  Uiso   1.00
C1856  C     0.97877   0.76887   0.63589   0.00000  Uiso   1.00
C1857  C     0.95343   0.78799   0.61961   0.00000  Uiso   1.00
C1858  C     0.94920   0.78727   0.95221   0.00000  Uiso   1.00
C1859  C     0.99108   0.80885   0.94040   0.00000  Uiso   1.00
C1860  C     0.69213   0.78730   0.91849   0.00000  Uiso   1.00
C1861  C     0.68495   0.74418   0.90833   0.00000  Uiso   1.00
C1862  C     0.97666   0.72253   0.91999   0.00000  Uiso   1.00
C1863  C     0.94217   0.74397   0.94182   0.00000  Uiso   1.00
C1864  C     0.79192   0.88564   0.98192   0.00000  Uiso   1.00
C1865  C     0.71745   0.90407   0.98557   0.00000  Uiso   1.00
C1866  C     0.70035   0.93665   0.97552   0.00000  Uiso   1.00
C1867  C     0.99148   0.94438   0.99531   0.00000  Uiso   1.00
C1868  C     0.96589   0.91959   0.52507   0.00000  Uiso   1.00
C1869  C     0.98247   0.88706   0.53518   0.00000  Uiso   1.00
C1870  C     0.69125   0.87910   0.51541   0.00000  Uiso   1.00
C1871  C     0.91989   0.84890   0.91809   0.00000  Uiso   1.00
C1872  C     0.85423   0.84970   0.97846   0.00000  Uiso   1.00
C1873  C     0.84137   0.85139   0.52039   0.00000  Uiso   1.00
C1874  C     0.81120   0.87854   0.54164   0.00000  Uiso   1.00
C1875  C     0.78896   0.89803   0.52257   0.00000  Uiso   1.00
H1876  H     0.94276   0.76788   0.52098   0.00000  Uiso   1.00
H1877  H     0.76650   0.97468   0.66914   0.00000  Uiso   1.00
H1878  H     0.78119   0.90192   0.64501   0.00000  Uiso   1.00
H1879  H     0.73195   0.84236   0.67633   0.00000  Uiso   1.00
H1880  H     0.95969   0.76223   0.76065   0.00000  Uiso   1.00
H1881  H     0.91415   0.98798   0.69155   0.00000  Uiso   1.00
H1882  H     0.90740   0.70088   0.57410   0.00000  Uiso   1.00
H1883  H     0.95246   0.66746   0.60286   0.00000  Uiso   1.00
H1884  H     0.99818   0.71071   0.64232   0.00000  Uiso   1.00
H1885  H     0.99896   0.78776   0.65290   0.00000  Uiso   1.00
H1886  H     0.95503   0.82175   0.62352   0.00000  Uiso   1.00
H1887  H     0.79011   0.99686   0.78027   0.00000  Uiso   1.00
H1888  H     0.99687   0.84227   0.94780   0.00000  Uiso   1.00
H1889  H     0.72433   0.80394   0.90929   0.00000  Uiso   1.00
H1890  H     0.71162   0.72757   0.89139   0.00000  Uiso   1.00
H1891  H     0.97113   0.68913   0.91214   0.00000  Uiso   1.00
H1892  H     0.91005   0.72689   0.95080   0.00000  Uiso   1.00
H1893  H     0.71972   0.95607   0.95245   0.00000  Uiso   1.00
H1894  H     0.97856   0.96954   0.98746   0.00000  Uiso   1.00
H1895  H     0.93319   0.92552   0.54024   0.00000  Uiso   1.00
H1896  H     0.96257   0.86779   0.55813   0.00000  Uiso   1.00
H1897  H     0.70324   0.85315   0.52301   0.00000  Uiso   1.00
H1898  H     0.81755   0.83863   0.59942   0.00000  Uiso   1.00
H1899  H     0.94029   0.82868   0.89622   0.00000  Uiso   1.00
H1900  H     0.74737   0.89320   0.90714   0.00000  Uiso   1.00
H1901  H     0.85065   0.82758   0.90271   0.00000  Uiso   1.00
H1902  H     0.80684   0.88763   0.57293   0.00000  Uiso   1.00
H1903  H     0.75257   0.93271   0.57795   0.00000  Uiso   1.00
H1904  H     0.98643   0.92882   0.75759   0.00000  Uiso   1.00
H1905  H     0.70223   0.98793   0.72515   0.00000  Uiso   1.00
O1906  O     0.83333   0.83333   0.75000   0.00000  Uiso   1.00
O1907  O     0.82360   0.79060   0.66625   0.00000  Uiso   1.00
O1908  O     0.79354   0.87313   0.83749   0.00000  Uiso   1.00
O1909  O     0.87755   0.84159   0.65877   0.00000  Uiso   1.00
O1910  O     0.83865   0.82802   0.83749   0.00000  Uiso   1.00
O1911  O     0.76372   0.96334   0.53029   0.00000  Uiso   1.00
O1912  O     0.99044   0.76629   0.80196   0.00000  Uiso   1.00
O1913  O     0.89723   0.71164   0.70310   0.00000  Uiso   1.00
O1914  O     0.91959   0.88427   0.91036   0.00000  Uiso   1.00
O1915  O     0.84515   0.74768   0.77820   0.00000  Uiso   1.00
O1916  O     0.81247   0.92803   0.76767   0.00000  Uiso   1.00
O1917  O     0.74119   0.79917   0.73607   0.00000  Uiso   1.00
O1918  O     0.93452   0.85845   0.71805   0.00000  Uiso   1.00
O1919  O     0.73656   0.85627   0.77820   0.00000  Uiso   1.00
O1920  O     0.92106   0.81944   0.76767   0.00000  Uiso   1.00
O1921  O     0.80467   0.73570   0.73607   0.00000  Uiso   1.00
O1922  O     0.87104   0.92193   0.71805   0.00000  Uiso   1.00
Zn1923 Zn    0.85910   0.80756   0.78277   0.00000  Uiso   1.00
Zn1924 Zn    0.80125   0.79044   0.72257   0.00000  Uiso   1.00
Zn1925 Zn    0.87833   0.86331   0.71188   0.00000  Uiso   1.00
Zn1926 Zn    0.79465   0.87202   0.78277   0.00000  Uiso   1.00
loop_
_geom_bond_atom_site_label_1
_geom_bond_atom_site_label_2
_geom_bond_distance
_geom_bond_site_symmetry_2
_ccdc_geom_bond_type
C1     C11     1.438   .     S
C1     O100    1.277   .     A
C1     O98     1.256   .     A
C2     C53     1.427   .     A
C2     C52     1.491   .     S
C2     C3      1.412   .     A
C3     C39     1.487   .     S
C3     C968    1.414   .     S
C4     O99     1.279   .     A
C4     O101    1.266   .     A
C4     C10     1.464   .     S
C5     C6      1.420   .     A
C5     C7      1.412   .     A
C5     C966    1.414   1_554 S
C6     C9      1.411   .     A
C6     C54     1.420   .     A
C7     C8      1.397   .     A
C7     H57     1.083   .     S
C8     C20     1.407   .     A
C8     C32     1.480   .     S
C9     H79     1.079   .     S
C9     C20     1.391   .     A
C10    C118    1.361   .     S
C10    C131    1.491   .     S
C11    C224    1.361   1_455 S
C11    C244    1.493   1_455 S
C12    C21     1.403   .     A
C12    C19     1.397   .     A
C12    H81     1.084   .     S
C13    C16     1.462   .     S
C13    C335    1.345   .     S
C13    C352    1.499   .     S
C14    C15     1.436   .     S
C14    C655    1.345   1_545 S
C14    H710    1.086   1_545 S
C15    O96     1.275   .     A
C15    O102    1.272   .     A
C16    O97     1.276   .     A
C16    O103    1.268   .     A
C17    O88     1.274   .     A
C17    C20     1.460   .     S
C17    O90     1.263   .     A
C18    O91     1.294   .     A
C18    C19     1.474   .     S
C18    O89     1.288   .     A
C19    C23     1.390   .     A
C21    C45     1.429   .     A
C21    C46     1.490   .     S
C22    C56     1.484   .     S
C22    H84     1.086   .     S
C22    O92     1.221   .     D
C23    H82     1.079   .     S
C23    C34     1.406   .     A
C24    C29     1.406   .     A
C24    C25     1.405   .     A
C24    C224    1.491   1_455 S
C25    C26     1.399   .     A
C25    H299    1.083   1_455 S
C26    C27     1.398   .     A
C26    H86     1.082   .     S
C27    H58     1.082   .     S
C27    C28     1.397   .     A
C28    C29     1.398   .     A
C28    H59     1.081   .     S
C29    H60     1.083   .     S
C30    O93     1.222   .     D
C30    H61     1.085   .     S
C30    C118    1.493   .     S
C31    O94     1.221   .     D
C31    C655    1.499   1_545 S
C31    H704    1.085   1_545 S
C32    C38     1.405   .     A
C32    C33     1.404   .     A
C33    H63     1.083   .     S
C33    C35     1.399   .     A
C34    C45     1.428   .     A
C34    C53     1.429   .     A
C35    C36     1.398   .     A
C35    H64     1.083   .     S
C36    C37     1.398   .     A
C36    H65     1.082   .     S
C37    H66     1.083   .     S
C37    C38     1.398   .     A
C38    H67     1.083   .     S
C39    C40     1.404   .     A
C39    C44     1.404   .     A
C40    H69     1.081   .     S
C40    C148    1.398   .     S
C41    C42     1.398   .     A
C41    H70     1.081   .     S
C41    C254    1.398   1_455 S
C42    H71     1.082   .     S
C42    C257    1.398   1_455 S
C43    H72     1.082   .     S
C43    C44     1.398   .     A
C43    C149    1.398   .     S
C44    H73     1.083   .     S
C45    C1019   1.417   .     S
C46    C47     1.407   .     A
C46    C1014   1.409   .     S
C47    H74     1.083   .     S
C47    C262    1.399   1_455 S
C48    H75     1.083   .     S
C48    C154    1.399   .     S
C48    C1012   1.398   .     S
C49    H76     1.083   .     S
C49    C50     1.397   .     A
C49    C1011   1.398   1_554 S
C50    H77     1.082   .     S
C50    C158    1.398   .     S
C51    H78     1.083   .     S
C51    C1009   1.409   1_554 S
C51    C264    1.398   1_455 S
C52    O95     1.221   .     D
C52    H80     1.085   .     S
C53    C1017   1.413   .     S
C54    C55     1.410   .     A
C54    C1016   1.413   1_554 S
C55    C56     1.394   .     A
C55    H83     1.078   .     S
C56    C1008   1.417   1_554 S
H62    C352    1.085   .     S
H68    C335    1.086   .     S
H85    C132    1.083   .     S
O87    Zn105   1.931   .     S
O87    Zn106   1.913   .     S
O87    Zn104   1.958   .     S
O87    Zn107   1.947   .     S
O88    Zn105   1.910   .     S
O89    Zn107   1.920   .     S
O90    Zn106   1.919   .     S
O91    Zn104   1.914   .     S
O96    Zn104   1.922   .     S
O97    Zn107   1.919   .     S
O98    Zn105   1.940   .     S
O99    Zn106   1.947   .     S
O100   Zn107   1.932   .     S
O101   Zn104   1.925   .     S
O102   Zn105   1.935   .     S
O103   Zn106   1.936   .     S
C108   C118    1.438   .     S
C108   O207    1.277   .     A
C108   O205    1.256   .     A
C109   C160    1.427   .     A
C109   C159    1.491   .     S
C109   C110    1.412   .     A
C110   C146    1.487   .     S
C110   C1075   1.414   .     S
C111   O206    1.279   .     A
C111   O208    1.266   .     A
C111   C117    1.464   .     S
C112   C113    1.420   .     A
C112   C114    1.412   .     A
C112   C1073   1.414   1_554 S
C113   C116    1.411   .     A
C113   C161    1.420   .     A
C114   C115    1.397   .     A
C114   H164    1.083   .     S
C115   C127    1.407   .     A
C115   C139    1.480   .     S
C116   H186    1.079   .     S
C116   C127    1.391   .     A
C117   C225    1.361   .     S
C117   C238    1.491   .     S
C119   C128    1.403   .     A
C119   C126    1.397   .     A
C119   H188    1.084   .     S
C120   C123    1.462   .     S
C120   C442    1.345   .     S
C120   C459    1.499   .     S
C121   C122    1.436   .     S
C121   C762    1.345   1_545 S
C121   H817    1.086   1_545 S
C122   O203    1.275   .     A
C122   O209    1.272   .     A
C123   O204    1.276   .     A
C123   O210    1.268   .     A
C124   O195    1.274   .     A
C124   C127    1.460   .     S
C124   O197    1.263   .     A
C125   O198    1.294   .     A
C125   C126    1.474   .     S
C125   O196    1.288   .     A
C126   C130    1.390   .     A
C128   C152    1.429   .     A
C128   C153    1.490   .     S
C129   C163    1.484   .     S
C129   H191    1.086   .     S
C129   O199    1.221   .     D
C130   H189    1.079   .     S
C130   C141    1.406   .     A
C131   C136    1.406   .     A
C131   C132    1.405   .     A
C132   C133    1.399   .     A
C133   C134    1.398   .     A
C133   H193    1.082   .     S
C134   H165    1.082   .     S
C134   C135    1.397   .     A
C135   C136    1.398   .     A
C135   H166    1.081   .     S
C136   H167    1.083   .     S
C137   O200    1.222   .     D
C137   H168    1.085   .     S
C137   C225    1.493   .     S
C138   O201    1.221   .     D
C138   C762    1.499   1_545 S
C138   H811    1.085   1_545 S
C139   C145    1.405   .     A
C139   C140    1.404   .     A
C140   H170    1.083   .     S
C140   C142    1.399   .     A
C141   C152    1.428   .     A
C141   C160    1.429   .     A
C142   C143    1.398   .     A
C142   H171    1.083   .     S
C143   C144    1.398   .     A
C143   H172    1.082   .     S
C144   H173    1.083   .     S
C144   C145    1.398   .     A
C145   H174    1.083   .     S
C146   C147    1.404   .     A
C146   C151    1.404   .     A
C147   H176    1.081   .     S
C147   C255    1.398   .     S
C148   C149    1.398   .     A
C148   H177    1.081   .     S
C149   H178    1.082   .     S
C150   H179    1.082   .     S
C150   C151    1.398   .     A
C150   C256    1.398   .     S
C151   H180    1.083   .     S
C152   C1126   1.417   .     S
C153   C154    1.407   .     A
C153   C1121   1.409   .     S
C154   H181    1.083   .     S
C155   H182    1.083   .     S
C155   C261    1.399   .     S
C155   C1119   1.398   .     S
C156   H183    1.083   .     S
C156   C157    1.397   .     A
C156   C1118   1.398   1_554 S
C157   H184    1.082   .     S
C157   C265    1.398   .     S
C158   H185    1.083   .     S
C158   C1116   1.409   1_554 S
C159   O202    1.221   .     D
C159   H187    1.085   .     S
C160   C1124   1.413   .     S
C161   C162    1.410   .     A
C161   C1123   1.413   1_554 S
C162   C163    1.394   .     A
C162   H190    1.078   .     S
C163   C1115   1.417   1_554 S
H169   C459    1.085   .     S
H175   C442    1.086   .     S
H192   C239    1.083   .     S
O194   Zn212   1.931   .     S
O194   Zn213   1.913   .     S
O194   Zn211   1.958   .     S
O194   Zn214   1.947   .     S
O195   Zn212   1.910   .     S
O196   Zn214   1.920   .     S
O197   Zn213   1.919   .     S
O198   Zn211   1.914   .     S
O203   Zn211   1.922   .     S
O204   Zn214   1.919   .     S
O205   Zn212   1.940   .     S
O206   Zn213   1.947   .     S
O207   Zn214   1.932   .     S
O208   Zn211   1.925   .     S
O209   Zn212   1.935   .     S
O210   Zn213   1.936   .     S
C215   C225    1.438   .     S
C215   O314    1.277   .     A
C215   O312    1.256   .     A
C216   C267    1.427   .     A
C216   C266    1.491   .     S
C216   C217    1.412   .     A
C217   C253    1.487   .     S
C217   C1182   1.414   .     S
C218   O313    1.279   .     A
C218   O315    1.266   .     A
C218   C224    1.464   .     S
C219   C220    1.420   .     A
C219   C221    1.412   .     A
C219   C1180   1.414   1_554 S
C220   C223    1.411   .     A
C220   C268    1.420   .     A
C221   C222    1.397   .     A
C221   H271    1.083   .     S
C222   C234    1.407   .     A
C222   C246    1.480   .     S
C223   H293    1.079   .     S
C223   C234    1.391   .     A
C224   C11     1.361   1_655 S
C224   C24     1.491   1_655 S
C226   C235    1.403   .     A
C226   C233    1.397   .     A
C226   H295    1.084   .     S
C227   C230    1.462   .     S
C227   C549    1.345   .     S
C227   C566    1.499   .     S
C228   C229    1.436   .     S
C228   C869    1.345   1_545 S
C228   H924    1.086   1_545 S
C229   O310    1.275   .     A
C229   O316    1.272   .     A
C230   O311    1.276   .     A
C230   O317    1.268   .     A
C231   O302    1.274   .     A
C231   C234    1.460   .     S
C231   O304    1.263   .     A
C232   O305    1.294   .     A
C232   C233    1.474   .     S
C232   O303    1.288   .     A
C233   C237    1.390   .     A
C235   C259    1.429   .     A
C235   C260    1.490   .     S
C236   C270    1.484   .     S
C236   H298    1.086   .     S
C236   O306    1.221   .     D
C237   H296    1.079   .     S
C237   C248    1.406   .     A
C238   C243    1.406   .     A
C238   C239    1.405   .     A
C239   C240    1.399   .     A
C240   C241    1.398   .     A
C240   H300    1.082   .     S
C241   H272    1.082   .     S
C241   C242    1.397   .     A
C242   C243    1.398   .     A
C242   H273    1.081   .     S
C243   H274    1.083   .     S
C244   O307    1.222   .     D
C244   H275    1.085   .     S
C244   C11     1.493   1_655 S
C245   O308    1.221   .     D
C245   C869    1.499   1_545 S
C245   H918    1.085   1_545 S
C246   C252    1.405   .     A
C246   C247    1.404   .     A
C247   H277    1.083   .     S
C247   C249    1.399   .     A
C248   C259    1.428   .     A
C248   C267    1.429   .     A
C249   C250    1.398   .     A
C249   H278    1.083   .     S
C250   C251    1.398   .     A
C250   H279    1.082   .     S
C251   H280    1.083   .     S
C251   C252    1.398   .     A
C252   H281    1.083   .     S
C253   C254    1.404   .     A
C253   C258    1.404   .     A
C254   H283    1.081   .     S
C254   C41     1.398   1_655 S
C255   C256    1.398   .     A
C255   H284    1.081   .     S
C256   H285    1.082   .     S
C257   H286    1.082   .     S
C257   C258    1.398   .     A
C257   C42     1.398   1_655 S
C258   H287    1.083   .     S
C259   C1233   1.417   .     S
C260   C261    1.407   .     A
C260   C1228   1.409   .     S
C261   H288    1.083   .     S
C262   H289    1.083   .     S
C262   C47     1.399   1_655 S
C262   C1226   1.398   .     S
C263   H290    1.083   .     S
C263   C264    1.397   .     A
C263   C1225   1.398   1_554 S
C264   H291    1.082   .     S
C264   C51     1.398   1_655 S
C265   H292    1.083   .     S
C265   C1223   1.409   1_554 S
C266   O309    1.221   .     D
C266   H294    1.085   .     S
C267   C1231   1.413   .     S
C268   C269    1.410   .     A
C268   C1230   1.413   1_554 S
C269   C270    1.394   .     A
C269   H297    1.078   .     S
C270   C1222   1.417   1_554 S
H276   C566    1.085   .     S
H282   C549    1.086   .     S
H299   C25     1.083   1_655 S
O301   Zn319   1.931   .     S
O301   Zn320   1.913   .     S
O301   Zn318   1.958   .     S
O301   Zn321   1.947   .     S
O302   Zn319   1.910   .     S
O303   Zn321   1.920   .     S
O304   Zn320   1.919   .     S
O305   Zn318   1.914   .     S
O310   Zn318   1.922   .     S
O311   Zn321   1.919   .     S
O312   Zn319   1.940   .     S
O313   Zn320   1.947   .     S
O314   Zn321   1.932   .     S
O315   Zn318   1.925   .     S
O316   Zn319   1.935   .     S
O317   Zn320   1.936   .     S
C322   C332    1.438   .     S
C322   O421    1.277   .     A
C322   O419    1.256   .     A
C323   C374    1.427   .     A
C323   C373    1.491   .     S
C323   C324    1.412   .     A
C324   C360    1.487   .     S
C324   C1289   1.414   .     S
C325   O420    1.279   .     A
C325   O422    1.266   .     A
C325   C331    1.464   .     S
C326   C327    1.420   .     A
C326   C328    1.412   .     A
C326   C1287   1.414   1_554 S
C327   C330    1.411   .     A
C327   C375    1.420   .     A
C328   C329    1.397   .     A
C328   H378    1.083   .     S
C329   C341    1.407   .     A
C329   C353    1.480   .     S
C330   H400    1.079   .     S
C330   C341    1.391   .     A
C331   C439    1.361   .     S
C331   C452    1.491   .     S
C332   C545    1.361   1_455 S
C332   C565    1.493   1_455 S
C333   C342    1.403   .     A
C333   C340    1.397   .     A
C333   H402    1.084   .     S
C334   C337    1.462   .     S
C334   C656    1.345   .     S
C334   C673    1.499   .     S
C335   C336    1.436   .     S
C336   O417    1.275   .     A
C336   O423    1.272   .     A
C337   O418    1.276   .     A
C337   O424    1.268   .     A
C338   O409    1.274   .     A
C338   C341    1.460   .     S
C338   O411    1.263   .     A
C339   O412    1.294   .     A
C339   C340    1.474   .     S
C339   O410    1.288   .     A
C340   C344    1.390   .     A
C342   C366    1.429   .     A
C342   C367    1.490   .     S
C343   C377    1.484   .     S
C343   H405    1.086   .     S
C343   O413    1.221   .     D
C344   H403    1.079   .     S
C344   C355    1.406   .     A
C345   C350    1.406   .     A
C345   C346    1.405   .     A
C345   C545    1.491   1_455 S
C346   C347    1.399   .     A
C346   H620    1.083   1_455 S
C347   C348    1.398   .     A
C347   H407    1.082   .     S
C348   H379    1.082   .     S
C348   C349    1.397   .     A
C349   C350    1.398   .     A
C349   H380    1.081   .     S
C350   H381    1.083   .     S
C351   O414    1.222   .     D
C351   H382    1.085   .     S
C351   C439    1.493   .     S
C352   O415    1.221   .     D
C353   C359    1.405   .     A
C353   C354    1.404   .     A
C354   H384    1.083   .     S
C354   C356    1.399   .     A
C355   C366    1.428   .     A
C355   C374    1.429   .     A
C356   C357    1.398   .     A
C356   H385    1.083   .     S
C357   C358    1.398   .     A
C357   H386    1.082   .     S
C358   H387    1.083   .     S
C358   C359    1.398   .     A
C359   H388    1.083   .     S
C360   C361    1.404   .     A
C360   C365    1.404   .     A
C361   H390    1.081   .     S
C361   C469    1.398   .     S
C362   C363    1.398   .     A
C362   H391    1.081   .     S
C362   C575    1.398   1_455 S
C363   H392    1.082   .     S
C363   C578    1.398   1_455 S
C364   H393    1.082   .     S
C364   C365    1.398   .     A
C364   C470    1.398   .     S
C365   H394    1.083   .     S
C366   C1340   1.417   .     S
C367   C368    1.407   .     A
C367   C1335   1.409   .     S
C368   H395    1.083   .     S
C368   C583    1.399   1_455 S
C369   H396    1.083   .     S
C369   C475    1.399   .     S
C369   C1333   1.398   .     S
C370   H397    1.083   .     S
C370   C371    1.397   .     A
C370   C1332   1.398   1_554 S
C371   H398    1.082   .     S
C371   C479    1.398   .     S
C372   H399    1.083   .     S
C372   C1330   1.409   1_554 S
C372   C585    1.398   1_455 S
C373   O416    1.221   .     D
C373   H401    1.085   .     S
C374   C1338   1.413   .     S
C375   C376    1.410   .     A
C375   C1337   1.413   1_554 S
C376   C377    1.394   .     A
C376   H404    1.078   .     S
C377   C1329   1.417   1_554 S
H383   C673    1.085   .     S
H389   C656    1.086   .     S
H406   C453    1.083   .     S
O408   Zn426   1.931   .     S
O408   Zn427   1.913   .     S
O408   Zn425   1.958   .     S
O408   Zn428   1.947   .     S
O409   Zn426   1.910   .     S
O410   Zn428   1.920   .     S
O411   Zn427   1.919   .     S
O412   Zn425   1.914   .     S
O417   Zn425   1.922   .     S
O418   Zn428   1.919   .     S
O419   Zn426   1.940   .     S
O420   Zn427   1.947   .     S
O421   Zn428   1.932   .     S
O422   Zn425   1.925   .     S
O423   Zn426   1.935   .     S
O424   Zn427   1.936   .     S
C429   C439    1.438   .     S
C429   O528    1.277   .     A
C429   O526    1.256   .     A
C430   C481    1.427   .     A
C430   C480    1.491   .     S
C430   C431    1.412   .     A
C431   C467    1.487   .     S
C431   C1396   1.414   .     S
C432   O527    1.279   .     A
C432   O529    1.266   .     A
C432   C438    1.464   .     S
C433   C434    1.420   .     A
C433   C435    1.412   .     A
C433   C1394   1.414   1_554 S
C434   C437    1.411   .     A
C434   C482    1.420   .     A
C435   C436    1.397   .     A
C435   H485    1.083   .     S
C436   C448    1.407   .     A
C436   C460    1.480   .     S
C437   H507    1.079   .     S
C437   C448    1.391   .     A
C438   C546    1.361   .     S
C438   C559    1.491   .     S
C440   C449    1.403   .     A
C440   C447    1.397   .     A
C440   H509    1.084   .     S
C441   C444    1.462   .     S
C441   C763    1.345   .     S
C441   C780    1.499   .     S
C442   C443    1.436   .     S
C443   O524    1.275   .     A
C443   O530    1.272   .     A
C444   O525    1.276   .     A
C444   O531    1.268   .     A
C445   O516    1.274   .     A
C445   C448    1.460   .     S
C445   O518    1.263   .     A
C446   O519    1.294   .     A
C446   C447    1.474   .     S
C446   O517    1.288   .     A
C447   C451    1.390   .     A
C449   C473    1.429   .     A
C449   C474    1.490   .     S
C450   C484    1.484   .     S
C450   H512    1.086   .     S
C450   O520    1.221   .     D
C451   H510    1.079   .     S
C451   C462    1.406   .     A
C452   C457    1.406   .     A
C452   C453    1.405   .     A
C453   C454    1.399   .     A
C454   C455    1.398   .     A
C454   H514    1.082   .     S
C455   H486    1.082   .     S
C455   C456    1.397   .     A
C456   C457    1.398   .     A
C456   H487    1.081   .     S
C457   H488    1.083   .     S
C458   O521    1.222   .     D
C458   H489    1.085   .     S
C458   C546    1.493   .     S
C459   O522    1.221   .     D
C460   C466    1.405   .     A
C460   C461    1.404   .     A
C461   H491    1.083   .     S
C461   C463    1.399   .     A
C462   C473    1.428   .     A
C462   C481    1.429   .     A
C463   C464    1.398   .     A
C463   H492    1.083   .     S
C464   C465    1.398   .     A
C464   H493    1.082   .     S
C465   H494    1.083   .     S
C465   C466    1.398   .     A
C466   H495    1.083   .     S
C467   C468    1.404   .     A
C467   C472    1.404   .     A
C468   H497    1.081   .     S
C468   C576    1.398   .     S
C469   C470    1.398   .     A
C469   H498    1.081   .     S
C470   H499    1.082   .     S
C471   H500    1.082   .     S
C471   C472    1.398   .     A
C471   C577    1.398   .     S
C472   H501    1.083   .     S
C473   C1447   1.417   .     S
C474   C475    1.407   .     A
C474   C1442   1.409   .     S
C475   H502    1.083   .     S
C476   H503    1.083   .     S
C476   C582    1.399   .     S
C476   C1440   1.398   .     S
C477   H504    1.083   .     S
C477   C478    1.397   .     A
C477   C1439   1.398   1_554 S
C478   H505    1.082   .     S
C478   C586    1.398   .     S
C479   H506    1.083   .     S
C479   C1437   1.409   1_554 S
C480   O523    1.221   .     D
C480   H508    1.085   .     S
C481   C1445   1.413   .     S
C482   C483    1.410   .     A
C482   C1444   1.413   1_554 S
C483   C484    1.394   .     A
C483   H511    1.078   .     S
C484   C1436   1.417   1_554 S
H490   C780    1.085   .     S
H496   C763    1.086   .     S
H513   C560    1.083   .     S
O515   Zn533   1.931   .     S
O515   Zn534   1.913   .     S
O515   Zn532   1.958   .     S
O515   Zn535   1.947   .     S
O516   Zn533   1.910   .     S
O517   Zn535   1.920   .     S
O518   Zn534   1.919   .     S
O519   Zn532   1.914   .     S
O524   Zn532   1.922   .     S
O525   Zn535   1.919   .     S
O526   Zn533   1.940   .     S
O527   Zn534   1.947   .     S
O528   Zn535   1.932   .     S
O529   Zn532   1.925   .     S
O530   Zn533   1.935   .     S
O531   Zn534   1.936   .     S
C536   C546    1.438   .     S
C536   O635    1.277   .     A
C536   O633    1.256   .     A
C537   C588    1.427   .     A
C537   C587    1.491   .     S
C537   C538    1.412   .     A
C538   C574    1.487   .     S
C538   C1503   1.414   .     S
C539   O634    1.279   .     A
C539   O636    1.266   .     A
C539   C545    1.464   .     S
C540   C541    1.420   .     A
C540   C542    1.412   .     A
C540   C1501   1.414   1_554 S
C541   C544    1.411   .     A
C541   C589    1.420   .     A
C542   C543    1.397   .     A
C542   H592    1.083   .     S
C543   C555    1.407   .     A
C543   C567    1.480   .     S
C544   H614    1.079   .     S
C544   C555    1.391   .     A
C545   C332    1.361   1_655 S
C545   C345    1.491   1_655 S
C547   C556    1.403   .     A
C547   C554    1.397   .     A
C547   H616    1.084   .     S
C548   C551    1.462   .     S
C548   C870    1.345   .     S
C548   C887    1.499   .     S
C549   C550    1.436   .     S
C550   O631    1.275   .     A
C550   O637    1.272   .     A
C551   O632    1.276   .     A
C551   O638    1.268   .     A
C552   O623    1.274   .     A
C552   C555    1.460   .     S
C552   O625    1.263   .     A
C553   O626    1.294   .     A
C553   C554    1.474   .     S
C553   O624    1.288   .     A
C554   C558    1.390   .     A
C556   C580    1.429   .     A
C556   C581    1.490   .     S
C557   C591    1.484   .     S
C557   H619    1.086   .     S
C557   O627    1.221   .     D
C558   H617    1.079   .     S
C558   C569    1.406   .     A
C559   C564    1.406   .     A
C559   C560    1.405   .     A
C560   C561    1.399   .     A
C561   C562    1.398   .     A
C561   H621    1.082   .     S
C562   H593    1.082   .     S
C562   C563    1.397   .     A
C563   C564    1.398   .     A
C563   H594    1.081   .     S
C564   H595    1.083   .     S
C565   O628    1.222   .     D
C565   H596    1.085   .     S
C565   C332    1.493   1_655 S
C566   O629    1.221   .     D
C567   C573    1.405   .     A
C567   C568    1.404   .     A
C568   H598    1.083   .     S
C568   C570    1.399   .     A
C569   C580    1.428   .     A
C569   C588    1.429   .     A
C570   C571    1.398   .     A
C570   H599    1.083   .     S
C571   C572    1.398   .     A
C571   H600    1.082   .     S
C572   H601    1.083   .     S
C572   C573    1.398   .     A
C573   H602    1.083   .     S
C574   C575    1.404   .     A
C574   C579    1.404   .     A
C575   H604    1.081   .     S
C575   C362    1.398   1_655 S
C576   C577    1.398   .     A
C576   H605    1.081   .     S
C577   H606    1.082   .     S
C578   H607    1.082   .     S
C578   C579    1.398   .     A
C578   C363    1.398   1_655 S
C579   H608    1.083   .     S
C580   C1554   1.417   .     S
C581   C582    1.407   .     A
C581   C1549   1.409   .     S
C582   H609    1.083   .     S
C583   H610    1.083   .     S
C583   C368    1.399   1_655 S
C583   C1547   1.398   .     S
C584   H611    1.083   .     S
C584   C585    1.397   .     A
C584   C1546   1.398   1_554 S
C585   H612    1.082   .     S
C585   C372    1.398   1_655 S
C586   H613    1.083   .     S
C586   C1544   1.409   1_554 S
C587   O630    1.221   .     D
C587   H615    1.085   .     S
C588   C1552   1.413   .     S
C589   C590    1.410   .     A
C589   C1551   1.413   1_554 S
C590   C591    1.394   .     A
C590   H618    1.078   .     S
C591   C1543   1.417   1_554 S
H597   C887    1.085   .     S
H603   C870    1.086   .     S
H620   C346    1.083   1_655 S
O622   Zn640   1.931   .     S
O622   Zn641   1.913   .     S
O622   Zn639   1.958   .     S
O622   Zn642   1.947   .     S
O623   Zn640   1.910   .     S
O624   Zn642   1.920   .     S
O625   Zn641   1.919   .     S
O626   Zn639   1.914   .     S
O631   Zn639   1.922   .     S
O632   Zn642   1.919   .     S
O633   Zn640   1.940   .     S
O634   Zn641   1.947   .     S
O635   Zn642   1.932   .     S
O636   Zn639   1.925   .     S
O637   Zn640   1.935   .     S
O638   Zn641   1.936   .     S
C643   C653    1.438   .     S
C643   O742    1.277   .     A
C643   O740    1.256   .     A
C644   C695    1.427   .     A
C644   C694    1.491   .     S
C644   C645    1.412   .     A
C645   C681    1.487   .     S
C645   C1610   1.414   .     S
C646   O741    1.279   .     A
C646   O743    1.266   .     A
C646   C652    1.464   .     S
C647   C648    1.420   .     A
C647   C649    1.412   .     A
C647   C1608   1.414   1_554 S
C648   C651    1.411   .     A
C648   C696    1.420   .     A
C649   C650    1.397   .     A
C649   H699    1.083   .     S
C650   C662    1.407   .     A
C650   C674    1.480   .     S
C651   H721    1.079   .     S
C651   C662    1.391   .     A
C652   C760    1.361   .     S
C652   C773    1.491   .     S
C653   C866    1.361   1_455 S
C653   C886    1.493   1_455 S
C654   C663    1.403   .     A
C654   C661    1.397   .     A
C654   H723    1.084   .     S
C655   C658    1.462   .     S
C655   C14     1.345   1_565 S
C655   C31     1.499   1_565 S
C656   C657    1.436   .     S
C657   O738    1.275   .     A
C657   O744    1.272   .     A
C658   O739    1.276   .     A
C658   O745    1.268   .     A
C659   O730    1.274   .     A
C659   C662    1.460   .     S
C659   O732    1.263   .     A
C660   O733    1.294   .     A
C660   C661    1.474   .     S
C660   O731    1.288   .     A
C661   C665    1.390   .     A
C663   C687    1.429   .     A
C663   C688    1.490   .     S
C664   C698    1.484   .     S
C664   H726    1.086   .     S
C664   O734    1.221   .     D
C665   H724    1.079   .     S
C665   C676    1.406   .     A
C666   C671    1.406   .     A
C666   C667    1.405   .     A
C666   C866    1.491   1_455 S
C667   C668    1.399   .     A
C667   H941    1.083   1_455 S
C668   C669    1.398   .     A
C668   H728    1.082   .     S
C669   H700    1.082   .     S
C669   C670    1.397   .     A
C670   C671    1.398   .     A
C670   H701    1.081   .     S
C671   H702    1.083   .     S
C672   O735    1.222   .     D
C672   H703    1.085   .     S
C672   C760    1.493   .     S
C673   O736    1.221   .     D
C674   C680    1.405   .     A
C674   C675    1.404   .     A
C675   H705    1.083   .     S
C675   C677    1.399   .     A
C676   C687    1.428   .     A
C676   C695    1.429   .     A
C677   C678    1.398   .     A
C677   H706    1.083   .     S
C678   C679    1.398   .     A
C678   H707    1.082   .     S
C679   H708    1.083   .     S
C679   C680    1.398   .     A
C680   H709    1.083   .     S
C681   C682    1.404   .     A
C681   C686    1.404   .     A
C682   H711    1.081   .     S
C682   C790    1.398   .     S
C683   C684    1.398   .     A
C683   H712    1.081   .     S
C683   C896    1.398   1_455 S
C684   H713    1.082   .     S
C684   C899    1.398   1_455 S
C685   H714    1.082   .     S
C685   C686    1.398   .     A
C685   C791    1.398   .     S
C686   H715    1.083   .     S
C687   C1661   1.417   .     S
C688   C689    1.407   .     A
C688   C1656   1.409   .     S
C689   H716    1.083   .     S
C689   C904    1.399   1_455 S
C690   H717    1.083   .     S
C690   C796    1.399   .     S
C690   C1654   1.398   .     S
C691   H718    1.083   .     S
C691   C692    1.397   .     A
C691   C1653   1.398   1_554 S
C692   H719    1.082   .     S
C692   C800    1.398   .     S
C693   H720    1.083   .     S
C693   C1651   1.409   1_554 S
C693   C906    1.398   1_455 S
C694   O737    1.221   .     D
C694   H722    1.085   .     S
C695   C1659   1.413   .     S
C696   C697    1.410   .     A
C696   C1658   1.413   1_554 S
C697   C698    1.394   .     A
C697   H725    1.078   .     S
C698   C1650   1.417   1_554 S
H704   C31     1.085   1_565 S
H710   C14     1.086   1_565 S
H727   C774    1.083   .     S
O729   Zn747   1.931   .     S
O729   Zn748   1.913   .     S
O729   Zn746   1.958   .     S
O729   Zn749   1.947   .     S
O730   Zn747   1.910   .     S
O731   Zn749   1.920   .     S
O732   Zn748   1.919   .     S
O733   Zn746   1.914   .     S
O738   Zn746   1.922   .     S
O739   Zn749   1.919   .     S
O740   Zn747   1.940   .     S
O741   Zn748   1.947   .     S
O742   Zn749   1.932   .     S
O743   Zn746   1.925   .     S
O744   Zn747   1.935   .     S
O745   Zn748   1.936   .     S
C750   C760    1.438   .     S
C750   O849    1.277   .     A
C750   O847    1.256   .     A
C751   C802    1.427   .     A
C751   C801    1.491   .     S
C751   C752    1.412   .     A
C752   C788    1.487   .     S
C752   C1717   1.414   .     S
C753   O848    1.279   .     A
C753   O850    1.266   .     A
C753   C759    1.464   .     S
C754   C755    1.420   .     A
C754   C756    1.412   .     A
C754   C1715   1.414   1_554 S
C755   C758    1.411   .     A
C755   C803    1.420   .     A
C756   C757    1.397   .     A
C756   H806    1.083   .     S
C757   C769    1.407   .     A
C757   C781    1.480   .     S
C758   H828    1.079   .     S
C758   C769    1.391   .     A
C759   C867    1.361   .     S
C759   C880    1.491   .     S
C761   C770    1.403   .     A
C761   C768    1.397   .     A
C761   H830    1.084   .     S
C762   C765    1.462   .     S
C762   C121    1.345   1_565 S
C762   C138    1.499   1_565 S
C763   C764    1.436   .     S
C764   O845    1.275   .     A
C764   O851    1.272   .     A
C765   O846    1.276   .     A
C765   O852    1.268   .     A
C766   O837    1.274   .     A
C766   C769    1.460   .     S
C766   O839    1.263   .     A
C767   O840    1.294   .     A
C767   C768    1.474   .     S
C767   O838    1.288   .     A
C768   C772    1.390   .     A
C770   C794    1.429   .     A
C770   C795    1.490   .     S
C771   C805    1.484   .     S
C771   H833    1.086   .     S
C771   O841    1.221   .     D
C772   H831    1.079   .     S
C772   C783    1.406   .     A
C773   C778    1.406   .     A
C773   C774    1.405   .     A
C774   C775    1.399   .     A
C775   C776    1.398   .     A
C775   H835    1.082   .     S
C776   H807    1.082   .     S
C776   C777    1.397   .     A
C777   C778    1.398   .     A
C777   H808    1.081   .     S
C778   H809    1.083   .     S
C779   O842    1.222   .     D
C779   H810    1.085   .     S
C779   C867    1.493   .     S
C780   O843    1.221   .     D
C781   C787    1.405   .     A
C781   C782    1.404   .     A
C782   H812    1.083   .     S
C782   C784    1.399   .     A
C783   C794    1.428   .     A
C783   C802    1.429   .     A
C784   C785    1.398   .     A
C784   H813    1.083   .     S
C785   C786    1.398   .     A
C785   H814    1.082   .     S
C786   H815    1.083   .     S
C786   C787    1.398   .     A
C787   H816    1.083   .     S
C788   C789    1.404   .     A
C788   C793    1.404   .     A
C789   H818    1.081   .     S
C789   C897    1.398   .     S
C790   C791    1.398   .     A
C790   H819    1.081   .     S
C791   H820    1.082   .     S
C792   H821    1.082   .     S
C792   C793    1.398   .     A
C792   C898    1.398   .     S
C793   H822    1.083   .     S
C794   C1768   1.417   .     S
C795   C796    1.407   .     A
C795   C1763   1.409   .     S
C796   H823    1.083   .     S
C797   H824    1.083   .     S
C797   C903    1.399   .     S
C797   C1761   1.398   .     S
C798   H825    1.083   .     S
C798   C799    1.397   .     A
C798   C1760   1.398   1_554 S
C799   H826    1.082   .     S
C799   C907    1.398   .     S
C800   H827    1.083   .     S
C800   C1758   1.409   1_554 S
C801   O844    1.221   .     D
C801   H829    1.085   .     S
C802   C1766   1.413   .     S
C803   C804    1.410   .     A
C803   C1765   1.413   1_554 S
C804   C805    1.394   .     A
C804   H832    1.078   .     S
C805   C1757   1.417   1_554 S
H811   C138    1.085   1_565 S
H817   C121    1.086   1_565 S
H834   C881    1.083   .     S
O836   Zn854   1.931   .     S
O836   Zn855   1.913   .     S
O836   Zn853   1.958   .     S
O836   Zn856   1.947   .     S
O837   Zn854   1.910   .     S
O838   Zn856   1.920   .     S
O839   Zn855   1.919   .     S
O840   Zn853   1.914   .     S
O845   Zn853   1.922   .     S
O846   Zn856   1.919   .     S
O847   Zn854   1.940   .     S
O848   Zn855   1.947   .     S
O849   Zn856   1.932   .     S
O850   Zn853   1.925   .     S
O851   Zn854   1.935   .     S
O852   Zn855   1.936   .     S
C857   C867    1.438   .     S
C857   O956    1.277   .     A
C857   O954    1.256   .     A
C858   C909    1.427   .     A
C858   C908    1.491   .     S
C858   C859    1.412   .     A
C859   C895    1.487   .     S
C859   C1824   1.414   .     S
C860   O955    1.279   .     A
C860   O957    1.266   .     A
C860   C866    1.464   .     S
C861   C862    1.420   .     A
C861   C863    1.412   .     A
C861   C1822   1.414   1_554 S
C862   C865    1.411   .     A
C862   C910    1.420   .     A
C863   C864    1.397   .     A
C863   H913    1.083   .     S
C864   C876    1.407   .     A
C864   C888    1.480   .     S
C865   H935    1.079   .     S
C865   C876    1.391   .     A
C866   C653    1.361   1_655 S
C866   C666    1.491   1_655 S
C868   C877    1.403   .     A
C868   C875    1.397   .     A
C868   H937    1.084   .     S
C869   C872    1.462   .     S
C869   C228    1.345   1_565 S
C869   C245    1.499   1_565 S
C870   C871    1.436   .     S
C871   O952    1.275   .     A
C871   O958    1.272   .     A
C872   O953    1.276   .     A
C872   O959    1.268   .     A
C873   O944    1.274   .     A
C873   C876    1.460   .     S
C873   O946    1.263   .     A
C874   O947    1.294   .     A
C874   C875    1.474   .     S
C874   O945    1.288   .     A
C875   C879    1.390   .     A
C877   C901    1.429   .     A
C877   C902    1.490   .     S
C878   C912    1.484   .     S
C878   H940    1.086   .     S
C878   O948    1.221   .     D
C879   H938    1.079   .     S
C879   C890    1.406   .     A
C880   C885    1.406   .     A
C880   C881    1.405   .     A
C881   C882    1.399   .     A
C882   C883    1.398   .     A
C882   H942    1.082   .     S
C883   H914    1.082   .     S
C883   C884    1.397   .     A
C884   C885    1.398   .     A
C884   H915    1.081   .     S
C885   H916    1.083   .     S
C886   O949    1.222   .     D
C886   H917    1.085   .     S
C886   C653    1.493   1_655 S
C887   O950    1.221   .     D
C888   C894    1.405   .     A
C888   C889    1.404   .     A
C889   H919    1.083   .     S
C889   C891    1.399   .     A
C890   C901    1.428   .     A
C890   C909    1.429   .     A
C891   C892    1.398   .     A
C891   H920    1.083   .     S
C892   C893    1.398   .     A
C892   H921    1.082   .     S
C893   H922    1.083   .     S
C893   C894    1.398   .     A
C894   H923    1.083   .     S
C895   C896    1.404   .     A
C895   C900    1.404   .     A
C896   H925    1.081   .     S
C896   C683    1.398   1_655 S
C897   C898    1.398   .     A
C897   H926    1.081   .     S
C898   H927    1.082   .     S
C899   H928    1.082   .     S
C899   C900    1.398   .     A
C899   C684    1.398   1_655 S
C900   H929    1.083   .     S
C901   C1875   1.417   .     S
C902   C903    1.407   .     A
C902   C1870   1.409   .     S
C903   H930    1.083   .     S
C904   H931    1.083   .     S
C904   C689    1.399   1_655 S
C904   C1868   1.398   .     S
C905   H932    1.083   .     S
C905   C906    1.397   .     A
C905   C1867   1.398   1_554 S
C906   H933    1.082   .     S
C906   C693    1.398   1_655 S
C907   H934    1.083   .     S
C907   C1865   1.409   1_554 S
C908   O951    1.221   .     D
C908   H936    1.085   .     S
C909   C1873   1.413   .     S
C910   C911    1.410   .     A
C910   C1872   1.413   1_554 S
C911   C912    1.394   .     A
C911   H939    1.078   .     S
C912   C1864   1.417   1_554 S
H918   C245    1.085   1_565 S
H924   C228    1.086   1_565 S
H941   C667    1.083   1_655 S
O943   Zn961   1.931   .     S
O943   Zn962   1.913   .     S
O943   Zn960   1.958   .     S
O943   Zn963   1.947   .     S
O944   Zn961   1.910   .     S
O945   Zn963   1.920   .     S
O946   Zn962   1.919   .     S
O947   Zn960   1.914   .     S
O952   Zn960   1.922   .     S
O953   Zn963   1.919   .     S
O954   Zn961   1.940   .     S
O955   Zn962   1.947   .     S
O956   Zn963   1.932   .     S
O957   Zn960   1.925   .     S
O958   Zn961   1.935   .     S
O959   Zn962   1.936   .     S
C964   C974    1.438   .     S
C964   O1063   1.277   .     A
C964   O1061   1.256   .     A
C965   C1016   1.427   .     A
C965   C1015   1.491   .     S
C965   C966    1.412   .     A
C966   C1002   1.487   .     S
C966   C5      1.414   1_556 S
C967   O1062   1.279   .     A
C967   O1064   1.266   .     A
C967   C973    1.464   .     S
C968   C969    1.420   .     A
C968   C970    1.412   .     A
C969   C972    1.411   .     A
C969   C1017   1.420   .     A
C970   C971    1.397   .     A
C970   H1020   1.083   .     S
C971   C983    1.407   .     A
C971   C995    1.480   .     S
C972   H1042   1.079   .     S
C972   C983    1.391   .     A
C973   C1081   1.361   .     S
C973   C1094   1.491   .     S
C974   C1187   1.361   1_455 S
C974   C1207   1.493   1_455 S
C975   C984    1.403   .     A
C975   C982    1.397   .     A
C975   H1044   1.084   .     S
C976   C979    1.462   .     S
C976   C1298   1.345   .     S
C976   C1315   1.499   .     S
C977   C978    1.436   .     S
C977   C1618   1.345   1_545 S
C977   H1673   1.086   1_545 S
C978   O1059   1.275   .     A
C978   O1065   1.272   .     A
C979   O1060   1.276   .     A
C979   O1066   1.268   .     A
C980   O1051   1.274   .     A
C980   C983    1.460   .     S
C980   O1053   1.263   .     A
C981   O1054   1.294   .     A
C981   C982    1.474   .     S
C981   O1052   1.288   .     A
C982   C986    1.390   .     A
C984   C1008   1.429   .     A
C984   C1009   1.490   .     S
C985   C1019   1.484   .     S
C985   H1047   1.086   .     S
C985   O1055   1.221   .     D
C986   H1045   1.079   .     S
C986   C997    1.406   .     A
C987   C992    1.406   .     A
C987   C988    1.405   .     A
C987   C1187   1.491   1_455 S
C988   C989    1.399   .     A
C988   H1262   1.083   1_455 S
C989   C990    1.398   .     A
C989   H1049   1.082   .     S
C990   H1021   1.082   .     S
C990   C991    1.397   .     A
C991   C992    1.398   .     A
C991   H1022   1.081   .     S
C992   H1023   1.083   .     S
C993   O1056   1.222   .     D
C993   H1024   1.085   .     S
C993   C1081   1.493   .     S
C994   O1057   1.221   .     D
C994   C1618   1.499   1_545 S
C994   H1667   1.085   1_545 S
C995   C1001   1.405   .     A
C995   C996    1.404   .     A
C996   H1026   1.083   .     S
C996   C998    1.399   .     A
C997   C1008   1.428   .     A
C997   C1016   1.429   .     A
C998   C999    1.398   .     A
C998   H1027   1.083   .     S
C999   C1000   1.398   .     A
C999   H1028   1.082   .     S
C1000  H1029   1.083   .     S
C1000  C1001   1.398   .     A
C1001  H1030   1.083   .     S
C1002  C1003   1.404   .     A
C1002  C1007   1.404   .     A
C1003  H1032   1.081   .     S
C1003  C1111   1.398   .     S
C1004  C1005   1.398   .     A
C1004  H1033   1.081   .     S
C1004  C1217   1.398   1_455 S
C1005  H1034   1.082   .     S
C1005  C1220   1.398   1_455 S
C1006  H1035   1.082   .     S
C1006  C1007   1.398   .     A
C1006  C1112   1.398   .     S
C1007  H1036   1.083   .     S
C1008  C56     1.417   1_556 S
C1009  C1010   1.407   .     A
C1009  C51     1.409   1_556 S
C1010  H1037   1.083   .     S
C1010  C1225   1.399   1_455 S
C1011  H1038   1.083   .     S
C1011  C1117   1.399   .     S
C1011  C49     1.398   1_556 S
C1012  H1039   1.083   .     S
C1012  C1013   1.397   .     A
C1013  H1040   1.082   .     S
C1013  C1121   1.398   .     S
C1014  H1041   1.083   .     S
C1014  C1227   1.398   1_455 S
C1015  O1058   1.221   .     D
C1015  H1043   1.085   .     S
C1016  C54     1.413   1_556 S
C1017  C1018   1.410   .     A
C1018  C1019   1.394   .     A
C1018  H1046   1.078   .     S
H1025  C1315   1.085   .     S
H1031  C1298   1.086   .     S
H1048  C1095   1.083   .     S
O1050  Zn1068  1.931   .     S
O1050  Zn1069  1.913   .     S
O1050  Zn1067  1.958   .     S
O1050  Zn1070  1.947   .     S
O1051  Zn1068  1.910   .     S
O1052  Zn1070  1.920   .     S
O1053  Zn1069  1.919   .     S
O1054  Zn1067  1.914   .     S
O1059  Zn1067  1.922   .     S
O1060  Zn1070  1.919   .     S
O1061  Zn1068  1.940   .     S
O1062  Zn1069  1.947   .     S
O1063  Zn1070  1.932   .     S
O1064  Zn1067  1.925   .     S
O1065  Zn1068  1.935   .     S
O1066  Zn1069  1.936   .     S
C1071  C1081   1.438   .     S
C1071  O1170   1.277   .     A
C1071  O1168   1.256   .     A
C1072  C1123   1.427   .     A
C1072  C1122   1.491   .     S
C1072  C1073   1.412   .     A
C1073  C1109   1.487   .     S
C1073  C112    1.414   1_556 S
C1074  O1169   1.279   .     A
C1074  O1171   1.266   .     A
C1074  C1080   1.464   .     S
C1075  C1076   1.420   .     A
C1075  C1077   1.412   .     A
C1076  C1079   1.411   .     A
C1076  C1124   1.420   .     A
C1077  C1078   1.397   .     A
C1077  H1127   1.083   .     S
C1078  C1090   1.407   .     A
C1078  C1102   1.480   .     S
C1079  H1149   1.079   .     S
C1079  C1090   1.391   .     A
C1080  C1188   1.361   .     S
C1080  C1201   1.491   .     S
C1082  C1091   1.403   .     A
C1082  C1089   1.397   .     A
C1082  H1151   1.084   .     S
C1083  C1086   1.462   .     S
C1083  C1405   1.345   .     S
C1083  C1422   1.499   .     S
C1084  C1085   1.436   .     S
C1084  C1725   1.345   1_545 S
C1084  H1780   1.086   1_545 S
C1085  O1166   1.275   .     A
C1085  O1172   1.272   .     A
C1086  O1167   1.276   .     A
C1086  O1173   1.268   .     A
C1087  O1158   1.274   .     A
C1087  C1090   1.460   .     S
C1087  O1160   1.263   .     A
C1088  O1161   1.294   .     A
C1088  C1089   1.474   .     S
C1088  O1159   1.288   .     A
C1089  C1093   1.390   .     A
C1091  C1115   1.429   .     A
C1091  C1116   1.490   .     S
C1092  C1126   1.484   .     S
C1092  H1154   1.086   .     S
C1092  O1162   1.221   .     D
C1093  H1152   1.079   .     S
C1093  C1104   1.406   .     A
C1094  C1099   1.406   .     A
C1094  C1095   1.405   .     A
C1095  C1096   1.399   .     A
C1096  C1097   1.398   .     A
C1096  H1156   1.082   .     S
C1097  H1128   1.082   .     S
C1097  C1098   1.397   .     A
C1098  C1099   1.398   .     A
C1098  H1129   1.081   .     S
C1099  H1130   1.083   .     S
C1100  O1163   1.222   .     D
C1100  H1131   1.085   .     S
C1100  C1188   1.493   .     S
C1101  O1164   1.221   .     D
C1101  C1725   1.499   1_545 S
C1101  H1774   1.085   1_545 S
C1102  C1108   1.405   .     A
C1102  C1103   1.404   .     A
C1103  H1133   1.083   .     S
C1103  C1105   1.399   .     A
C1104  C1115   1.428   .     A
C1104  C1123   1.429   .     A
C1105  C1106   1.398   .     A
C1105  H1134   1.083   .     S
C1106  C1107   1.398   .     A
C1106  H1135   1.082   .     S
C1107  H1136   1.083   .     S
C1107  C1108   1.398   .     A
C1108  H1137   1.083   .     S
C1109  C1110   1.404   .     A
C1109  C1114   1.404   .     A
C1110  H1139   1.081   .     S
C1110  C1218   1.398   .     S
C1111  C1112   1.398   .     A
C1111  H1140   1.081   .     S
C1112  H1141   1.082   .     S
C1113  H1142   1.082   .     S
C1113  C1114   1.398   .     A
C1113  C1219   1.398   .     S
C1114  H1143   1.083   .     S
C1115  C163    1.417   1_556 S
C1116  C1117   1.407   .     A
C1116  C158    1.409   1_556 S
C1117  H1144   1.083   .     S
C1118  H1145   1.083   .     S
C1118  C1224   1.399   .     S
C1118  C156    1.398   1_556 S
C1119  H1146   1.083   .     S
C1119  C1120   1.397   .     A
C1120  H1147   1.082   .     S
C1120  C1228   1.398   .     S
C1121  H1148   1.083   .     S
C1122  O1165   1.221   .     D
C1122  H1150   1.085   .     S
C1123  C161    1.413   1_556 S
C1124  C1125   1.410   .     A
C1125  C1126   1.394   .     A
C1125  H1153   1.078   .     S
H1132  C1422   1.085   .     S
H1138  C1405   1.086   .     S
H1155  C1202   1.083   .     S
O1157  Zn1175  1.931   .     S
O1157  Zn1176  1.913   .     S
O1157  Zn1174  1.958   .     S
O1157  Zn1177  1.947   .     S
O1158  Zn1175  1.910   .     S
O1159  Zn1177  1.920   .     S
O1160  Zn1176  1.919   .     S
O1161  Zn1174  1.914   .     S
O1166  Zn1174  1.922   .     S
O1167  Zn1177  1.919   .     S
O1168  Zn1175  1.940   .     S
O1169  Zn1176  1.947   .     S
O1170  Zn1177  1.932   .     S
O1171  Zn1174  1.925   .     S
O1172  Zn1175  1.935   .     S
O1173  Zn1176  1.936   .     S
C1178  C1188   1.438   .     S
C1178  O1277   1.277   .     A
C1178  O1275   1.256   .     A
C1179  C1230   1.427   .     A
C1179  C1229   1.491   .     S
C1179  C1180   1.412   .     A
C1180  C1216   1.487   .     S
C1180  C219    1.414   1_556 S
C1181  O1276   1.279   .     A
C1181  O1278   1.266   .     A
C1181  C1187   1.464   .     S
C1182  C1183   1.420   .     A
C1182  C1184   1.412   .     A
C1183  C1186   1.411   .     A
C1183  C1231   1.420   .     A
C1184  C1185   1.397   .     A
C1184  H1234   1.083   .     S
C1185  C1197   1.407   .     A
C1185  C1209   1.480   .     S
C1186  H1256   1.079   .     S
C1186  C1197   1.391   .     A
C1187  C974    1.361   1_655 S
C1187  C987    1.491   1_655 S
C1189  C1198   1.403   .     A
C1189  C1196   1.397   .     A
C1189  H1258   1.084   .     S
C1190  C1193   1.462   .     S
C1190  C1512   1.345   .     S
C1190  C1529   1.499   .     S
C1191  C1192   1.436   .     S
C1191  C1832   1.345   1_545 S
C1191  H1887   1.086   1_545 S
C1192  O1273   1.275   .     A
C1192  O1279   1.272   .     A
C1193  O1274   1.276   .     A
C1193  O1280   1.268   .     A
C1194  O1265   1.274   .     A
C1194  C1197   1.460   .     S
C1194  O1267   1.263   .     A
C1195  O1268   1.294   .     A
C1195  C1196   1.474   .     S
C1195  O1266   1.288   .     A
C1196  C1200   1.390   .     A
C1198  C1222   1.429   .     A
C1198  C1223   1.490   .     S
C1199  C1233   1.484   .     S
C1199  H1261   1.086   .     S
C1199  O1269   1.221   .     D
C1200  H1259   1.079   .     S
C1200  C1211   1.406   .     A
C1201  C1206   1.406   .     A
C1201  C1202   1.405   .     A
C1202  C1203   1.399   .     A
C1203  C1204   1.398   .     A
C1203  H1263   1.082   .     S
C1204  H1235   1.082   .     S
C1204  C1205   1.397   .     A
C1205  C1206   1.398   .     A
C1205  H1236   1.081   .     S
C1206  H1237   1.083   .     S
C1207  O1270   1.222   .     D
C1207  H1238   1.085   .     S
C1207  C974    1.493   1_655 S
C1208  O1271   1.221   .     D
C1208  C1832   1.499   1_545 S
C1208  H1881   1.085   1_545 S
C1209  C1215   1.405   .     A
C1209  C1210   1.404   .     A
C1210  H1240   1.083   .     S
C1210  C1212   1.399   .     A
C1211  C1222   1.428   .     A
C1211  C1230   1.429   .     A
C1212  C1213   1.398   .     A
C1212  H1241   1.083   .     S
C1213  C1214   1.398   .     A
C1213  H1242   1.082   .     S
C1214  H1243   1.083   .     S
C1214  C1215   1.398   .     A
C1215  H1244   1.083   .     S
C1216  C1217   1.404   .     A
C1216  C1221   1.404   .     A
C1217  H1246   1.081   .     S
C1217  C1004   1.398   1_655 S
C1218  C1219   1.398   .     A
C1218  H1247   1.081   .     S
C1219  H1248   1.082   .     S
C1220  H1249   1.082   .     S
C1220  C1221   1.398   .     A
C1220  C1005   1.398   1_655 S
C1221  H1250   1.083   .     S
C1222  C270    1.417   1_556 S
C1223  C1224   1.407   .     A
C1223  C265    1.409   1_556 S
C1224  H1251   1.083   .     S
C1225  H1252   1.083   .     S
C1225  C1010   1.399   1_655 S
C1225  C263    1.398   1_556 S
C1226  H1253   1.083   .     S
C1226  C1227   1.397   .     A
C1227  H1254   1.082   .     S
C1227  C1014   1.398   1_655 S
C1228  H1255   1.083   .     S
C1229  O1272   1.221   .     D
C1229  H1257   1.085   .     S
C1230  C268    1.413   1_556 S
C1231  C1232   1.410   .     A
C1232  C1233   1.394   .     A
C1232  H1260   1.078   .     S
H1239  C1529   1.085   .     S
H1245  C1512   1.086   .     S
H1262  C988    1.083   1_655 S
O1264  Zn1282  1.931   .     S
O1264  Zn1283  1.913   .     S
O1264  Zn1281  1.958   .     S
O1264  Zn1284  1.947   .     S
O1265  Zn1282  1.910   .     S
O1266  Zn1284  1.920   .     S
O1267  Zn1283  1.919   .     S
O1268  Zn1281  1.914   .     S
O1273  Zn1281  1.922   .     S
O1274  Zn1284  1.919   .     S
O1275  Zn1282  1.940   .     S
O1276  Zn1283  1.947   .     S
O1277  Zn1284  1.932   .     S
O1278  Zn1281  1.925   .     S
O1279  Zn1282  1.935   .     S
O1280  Zn1283  1.936   .     S
C1285  C1295   1.438   .     S
C1285  O1384   1.277   .     A
C1285  O1382   1.256   .     A
C1286  C1337   1.427   .     A
C1286  C1336   1.491   .     S
C1286  C1287   1.412   .     A
C1287  C1323   1.487   .     S
C1287  C326    1.414   1_556 S
C1288  O1383   1.279   .     A
C1288  O1385   1.266   .     A
C1288  C1294   1.464   .     S
C1289  C1290   1.420   .     A
C1289  C1291   1.412   .     A
C1290  C1293   1.411   .     A
C1290  C1338   1.420   .     A
C1291  C1292   1.397   .     A
C1291  H1341   1.083   .     S
C1292  C1304   1.407   .     A
C1292  C1316   1.480   .     S
C1293  H1363   1.079   .     S
C1293  C1304   1.391   .     A
C1294  C1402   1.361   .     S
C1294  C1415   1.491   .     S
C1295  C1508   1.361   1_455 S
C1295  C1528   1.493   1_455 S
C1296  C1305   1.403   .     A
C1296  C1303   1.397   .     A
C1296  H1365   1.084   .     S
C1297  C1300   1.462   .     S
C1297  C1619   1.345   .     S
C1297  C1636   1.499   .     S
C1298  C1299   1.436   .     S
C1299  O1380   1.275   .     A
C1299  O1386   1.272   .     A
C1300  O1381   1.276   .     A
C1300  O1387   1.268   .     A
C1301  O1372   1.274   .     A
C1301  C1304   1.460   .     S
C1301  O1374   1.263   .     A
C1302  O1375   1.294   .     A
C1302  C1303   1.474   .     S
C1302  O1373   1.288   .     A
C1303  C1307   1.390   .     A
C1305  C1329   1.429   .     A
C1305  C1330   1.490   .     S
C1306  C1340   1.484   .     S
C1306  H1368   1.086   .     S
C1306  O1376   1.221   .     D
C1307  H1366   1.079   .     S
C1307  C1318   1.406   .     A
C1308  C1313   1.406   .     A
C1308  C1309   1.405   .     A
C1308  C1508   1.491   1_455 S
C1309  C1310   1.399   .     A
C1309  H1583   1.083   1_455 S
C1310  C1311   1.398   .     A
C1310  H1370   1.082   .     S
C1311  H1342   1.082   .     S
C1311  C1312   1.397   .     A
C1312  C1313   1.398   .     A
C1312  H1343   1.081   .     S
C1313  H1344   1.083   .     S
C1314  O1377   1.222   .     D
C1314  H1345   1.085   .     S
C1314  C1402   1.493   .     S
C1315  O1378   1.221   .     D
C1316  C1322   1.405   .     A
C1316  C1317   1.404   .     A
C1317  H1347   1.083   .     S
C1317  C1319   1.399   .     A
C1318  C1329   1.428   .     A
C1318  C1337   1.429   .     A
C1319  C1320   1.398   .     A
C1319  H1348   1.083   .     S
C1320  C1321   1.398   .     A
C1320  H1349   1.082   .     S
C1321  H1350   1.083   .     S
C1321  C1322   1.398   .     A
C1322  H1351   1.083   .     S
C1323  C1324   1.404   .     A
C1323  C1328   1.404   .     A
C1324  H1353   1.081   .     S
C1324  C1432   1.398   .     S
C1325  C1326   1.398   .     A
C1325  H1354   1.081   .     S
C1325  C1538   1.398   1_455 S
C1326  H1355   1.082   .     S
C1326  C1541   1.398   1_455 S
C1327  H1356   1.082   .     S
C1327  C1328   1.398   .     A
C1327  C1433   1.398   .     S
C1328  H1357   1.083   .     S
C1329  C377    1.417   1_556 S
C1330  C1331   1.407   .     A
C1330  C372    1.409   1_556 S
C1331  H1358   1.083   .     S
C1331  C1546   1.399   1_455 S
C1332  H1359   1.083   .     S
C1332  C1438   1.399   .     S
C1332  C370    1.398   1_556 S
C1333  H1360   1.083   .     S
C1333  C1334   1.397   .     A
C1334  H1361   1.082   .     S
C1334  C1442   1.398   .     S
C1335  H1362   1.083   .     S
C1335  C1548   1.398   1_455 S
C1336  O1379   1.221   .     D
C1336  H1364   1.085   .     S
C1337  C375    1.413   1_556 S
C1338  C1339   1.410   .     A
C1339  C1340   1.394   .     A
C1339  H1367   1.078   .     S
H1346  C1636   1.085   .     S
H1352  C1619   1.086   .     S
H1369  C1416   1.083   .     S
O1371  Zn1389  1.931   .     S
O1371  Zn1390  1.913   .     S
O1371  Zn1388  1.958   .     S
O1371  Zn1391  1.947   .     S
O1372  Zn1389  1.910   .     S
O1373  Zn1391  1.920   .     S
O1374  Zn1390  1.919   .     S
O1375  Zn1388  1.914   .     S
O1380  Zn1388  1.922   .     S
O1381  Zn1391  1.919   .     S
O1382  Zn1389  1.940   .     S
O1383  Zn1390  1.947   .     S
O1384  Zn1391  1.932   .     S
O1385  Zn1388  1.925   .     S
O1386  Zn1389  1.935   .     S
O1387  Zn1390  1.936   .     S
C1392  C1402   1.438   .     S
C1392  O1491   1.277   .     A
C1392  O1489   1.256   .     A
C1393  C1444   1.427   .     A
C1393  C1443   1.491   .     S
C1393  C1394   1.412   .     A
C1394  C1430   1.487   .     S
C1394  C433    1.414   1_556 S
C1395  O1490   1.279   .     A
C1395  O1492   1.266   .     A
C1395  C1401   1.464   .     S
C1396  C1397   1.420   .     A
C1396  C1398   1.412   .     A
C1397  C1400   1.411   .     A
C1397  C1445   1.420   .     A
C1398  C1399   1.397   .     A
C1398  H1448   1.083   .     S
C1399  C1411   1.407   .     A
C1399  C1423   1.480   .     S
C1400  H1470   1.079   .     S
C1400  C1411   1.391   .     A
C1401  C1509   1.361   .     S
C1401  C1522   1.491   .     S
C1403  C1412   1.403   .     A
C1403  C1410   1.397   .     A
C1403  H1472   1.084   .     S
C1404  C1407   1.462   .     S
C1404  C1726   1.345   .     S
C1404  C1743   1.499   .     S
C1405  C1406   1.436   .     S
C1406  O1487   1.275   .     A
C1406  O1493   1.272   .     A
C1407  O1488   1.276   .     A
C1407  O1494   1.268   .     A
C1408  O1479   1.274   .     A
C1408  C1411   1.460   .     S
C1408  O1481   1.263   .     A
C1409  O1482   1.294   .     A
C1409  C1410   1.474   .     S
C1409  O1480   1.288   .     A
C1410  C1414   1.390   .     A
C1412  C1436   1.429   .     A
C1412  C1437   1.490   .     S
C1413  C1447   1.484   .     S
C1413  H1475   1.086   .     S
C1413  O1483   1.221   .     D
C1414  H1473   1.079   .     S
C1414  C1425   1.406   .     A
C1415  C1420   1.406   .     A
C1415  C1416   1.405   .     A
C1416  C1417   1.399   .     A
C1417  C1418   1.398   .     A
C1417  H1477   1.082   .     S
C1418  H1449   1.082   .     S
C1418  C1419   1.397   .     A
C1419  C1420   1.398   .     A
C1419  H1450   1.081   .     S
C1420  H1451   1.083   .     S
C1421  O1484   1.222   .     D
C1421  H1452   1.085   .     S
C1421  C1509   1.493   .     S
C1422  O1485   1.221   .     D
C1423  C1429   1.405   .     A
C1423  C1424   1.404   .     A
C1424  H1454   1.083   .     S
C1424  C1426   1.399   .     A
C1425  C1436   1.428   .     A
C1425  C1444   1.429   .     A
C1426  C1427   1.398   .     A
C1426  H1455   1.083   .     S
C1427  C1428   1.398   .     A
C1427  H1456   1.082   .     S
C1428  H1457   1.083   .     S
C1428  C1429   1.398   .     A
C1429  H1458   1.083   .     S
C1430  C1431   1.404   .     A
C1430  C1435   1.404   .     A
C1431  H1460   1.081   .     S
C1431  C1539   1.398   .     S
C1432  C1433   1.398   .     A
C1432  H1461   1.081   .     S
C1433  H1462   1.082   .     S
C1434  H1463   1.082   .     S
C1434  C1435   1.398   .     A
C1434  C1540   1.398   .     S
C1435  H1464   1.083   .     S
C1436  C484    1.417   1_556 S
C1437  C1438   1.407   .     A
C1437  C479    1.409   1_556 S
C1438  H1465   1.083   .     S
C1439  H1466   1.083   .     S
C1439  C1545   1.399   .     S
C1439  C477    1.398   1_556 S
C1440  H1467   1.083   .     S
C1440  C1441   1.397   .     A
C1441  H1468   1.082   .     S
C1441  C1549   1.398   .     S
C1442  H1469   1.083   .     S
C1443  O1486   1.221   .     D
C1443  H1471   1.085   .     S
C1444  C482    1.413   1_556 S
C1445  C1446   1.410   .     A
C1446  C1447   1.394   .     A
C1446  H1474   1.078   .     S
H1453  C1743   1.085   .     S
H1459  C1726   1.086   .     S
H1476  C1523   1.083   .     S
O1478  Zn1496  1.931   .     S
O1478  Zn1497  1.913   .     S
O1478  Zn1495  1.958   .     S
O1478  Zn1498  1.947   .     S
O1479  Zn1496  1.910   .     S
O1480  Zn1498  1.920   .     S
O1481  Zn1497  1.919   .     S
O1482  Zn1495  1.914   .     S
O1487  Zn1495  1.922   .     S
O1488  Zn1498  1.919   .     S
O1489  Zn1496  1.940   .     S
O1490  Zn1497  1.947   .     S
O1491  Zn1498  1.932   .     S
O1492  Zn1495  1.925   .     S
O1493  Zn1496  1.935   .     S
O1494  Zn1497  1.936   .     S
C1499  C1509   1.438   .     S
C1499  O1598   1.277   .     A
C1499  O1596   1.256   .     A
C1500  C1551   1.427   .     A
C1500  C1550   1.491   .     S
C1500  C1501   1.412   .     A
C1501  C1537   1.487   .     S
C1501  C540    1.414   1_556 S
C1502  O1597   1.279   .     A
C1502  O1599   1.266   .     A
C1502  C1508   1.464   .     S
C1503  C1504   1.420   .     A
C1503  C1505   1.412   .     A
C1504  C1507   1.411   .     A
C1504  C1552   1.420   .     A
C1505  C1506   1.397   .     A
C1505  H1555   1.083   .     S
C1506  C1518   1.407   .     A
C1506  C1530   1.480   .     S
C1507  H1577   1.079   .     S
C1507  C1518   1.391   .     A
C1508  C1295   1.361   1_655 S
C1508  C1308   1.491   1_655 S
C1510  C1519   1.403   .     A
C1510  C1517   1.397   .     A
C1510  H1579   1.084   .     S
C1511  C1514   1.462   .     S
C1511  C1833   1.345   .     S
C1511  C1850   1.499   .     S
C1512  C1513   1.436   .     S
C1513  O1594   1.275   .     A
C1513  O1600   1.272   .     A
C1514  O1595   1.276   .     A
C1514  O1601   1.268   .     A
C1515  O1586   1.274   .     A
C1515  C1518   1.460   .     S
C1515  O1588   1.263   .     A
C1516  O1589   1.294   .     A
C1516  C1517   1.474   .     S
C1516  O1587   1.288   .     A
C1517  C1521   1.390   .     A
C1519  C1543   1.429   .     A
C1519  C1544   1.490   .     S
C1520  C1554   1.484   .     S
C1520  H1582   1.086   .     S
C1520  O1590   1.221   .     D
C1521  H1580   1.079   .     S
C1521  C1532   1.406   .     A
C1522  C1527   1.406   .     A
C1522  C1523   1.405   .     A
C1523  C1524   1.399   .     A
C1524  C1525   1.398   .     A
C1524  H1584   1.082   .     S
C1525  H1556   1.082   .     S
C1525  C1526   1.397   .     A
C1526  C1527   1.398   .     A
C1526  H1557   1.081   .     S
C1527  H1558   1.083   .     S
C1528  O1591   1.222   .     D
C1528  H1559   1.085   .     S
C1528  C1295   1.493   1_655 S
C1529  O1592   1.221   .     D
C1530  C1536   1.405   .     A
C1530  C1531   1.404   .     A
C1531  H1561   1.083   .     S
C1531  C1533   1.399   .     A
C1532  C1543   1.428   .     A
C1532  C1551   1.429   .     A
C1533  C1534   1.398   .     A
C1533  H1562   1.083   .     S
C1534  C1535   1.398   .     A
C1534  H1563   1.082   .     S
C1535  H1564   1.083   .     S
C1535  C1536   1.398   .     A
C1536  H1565   1.083   .     S
C1537  C1538   1.404   .     A
C1537  C1542   1.404   .     A
C1538  H1567   1.081   .     S
C1538  C1325   1.398   1_655 S
C1539  C1540   1.398   .     A
C1539  H1568   1.081   .     S
C1540  H1569   1.082   .     S
C1541  H1570   1.082   .     S
C1541  C1542   1.398   .     A
C1541  C1326   1.398   1_655 S
C1542  H1571   1.083   .     S
C1543  C591    1.417   1_556 S
C1544  C1545   1.407   .     A
C1544  C586    1.409   1_556 S
C1545  H1572   1.083   .     S
C1546  H1573   1.083   .     S
C1546  C1331   1.399   1_655 S
C1546  C584    1.398   1_556 S
C1547  H1574   1.083   .     S
C1547  C1548   1.397   .     A
C1548  H1575   1.082   .     S
C1548  C1335   1.398   1_655 S
C1549  H1576   1.083   .     S
C1550  O1593   1.221   .     D
C1550  H1578   1.085   .     S
C1551  C589    1.413   1_556 S
C1552  C1553   1.410   .     A
C1553  C1554   1.394   .     A
C1553  H1581   1.078   .     S
H1560  C1850   1.085   .     S
H1566  C1833   1.086   .     S
H1583  C1309   1.083   1_655 S
O1585  Zn1603  1.931   .     S
O1585  Zn1604  1.913   .     S
O1585  Zn1602  1.958   .     S
O1585  Zn1605  1.947   .     S
O1586  Zn1603  1.910   .     S
O1587  Zn1605  1.920   .     S
O1588  Zn1604  1.919   .     S
O1589  Zn1602  1.914   .     S
O1594  Zn1602  1.922   .     S
O1595  Zn1605  1.919   .     S
O1596  Zn1603  1.940   .     S
O1597  Zn1604  1.947   .     S
O1598  Zn1605  1.932   .     S
O1599  Zn1602  1.925   .     S
O1600  Zn1603  1.935   .     S
O1601  Zn1604  1.936   .     S
C1606  C1616   1.438   .     S
C1606  O1705   1.277   .     A
C1606  O1703   1.256   .     A
C1607  C1658   1.427   .     A
C1607  C1657   1.491   .     S
C1607  C1608   1.412   .     A
C1608  C1644   1.487   .     S
C1608  C647    1.414   1_556 S
C1609  O1704   1.279   .     A
C1609  O1706   1.266   .     A
C1609  C1615   1.464   .     S
C1610  C1611   1.420   .     A
C1610  C1612   1.412   .     A
C1611  C1614   1.411   .     A
C1611  C1659   1.420   .     A
C1612  C1613   1.397   .     A
C1612  H1662   1.083   .     S
C1613  C1625   1.407   .     A
C1613  C1637   1.480   .     S
C1614  H1684   1.079   .     S
C1614  C1625   1.391   .     A
C1615  C1723   1.361   .     S
C1615  C1736   1.491   .     S
C1616  C1829   1.361   1_455 S
C1616  C1849   1.493   1_455 S
C1617  C1626   1.403   .     A
C1617  C1624   1.397   .     A
C1617  H1686   1.084   .     S
C1618  C1621   1.462   .     S
C1618  C977    1.345   1_565 S
C1618  C994    1.499   1_565 S
C1619  C1620   1.436   .     S
C1620  O1701   1.275   .     A
C1620  O1707   1.272   .     A
C1621  O1702   1.276   .     A
C1621  O1708   1.268   .     A
C1622  O1693   1.274   .     A
C1622  C1625   1.460   .     S
C1622  O1695   1.263   .     A
C1623  O1696   1.294   .     A
C1623  C1624   1.474   .     S
C1623  O1694   1.288   .     A
C1624  C1628   1.390   .     A
C1626  C1650   1.429   .     A
C1626  C1651   1.490   .     S
C1627  C1661   1.484   .     S
C1627  H1689   1.086   .     S
C1627  O1697   1.221   .     D
C1628  H1687   1.079   .     S
C1628  C1639   1.406   .     A
C1629  C1634   1.406   .     A
C1629  C1630   1.405   .     A
C1629  C1829   1.491   1_455 S
C1630  C1631   1.399   .     A
C1630  H1904   1.083   1_455 S
C1631  C1632   1.398   .     A
C1631  H1691   1.082   .     S
C1632  H1663   1.082   .     S
C1632  C1633   1.397   .     A
C1633  C1634   1.398   .     A
C1633  H1664   1.081   .     S
C1634  H1665   1.083   .     S
C1635  O1698   1.222   .     D
C1635  H1666   1.085   .     S
C1635  C1723   1.493   .     S
C1636  O1699   1.221   .     D
C1637  C1643   1.405   .     A
C1637  C1638   1.404   .     A
C1638  H1668   1.083   .     S
C1638  C1640   1.399   .     A
C1639  C1650   1.428   .     A
C1639  C1658   1.429   .     A
C1640  C1641   1.398   .     A
C1640  H1669   1.083   .     S
C1641  C1642   1.398   .     A
C1641  H1670   1.082   .     S
C1642  H1671   1.083   .     S
C1642  C1643   1.398   .     A
C1643  H1672   1.083   .     S
C1644  C1645   1.404   .     A
C1644  C1649   1.404   .     A
C1645  H1674   1.081   .     S
C1645  C1753   1.398   .     S
C1646  C1647   1.398   .     A
C1646  H1675   1.081   .     S
C1646  C1859   1.398   1_455 S
C1647  H1676   1.082   .     S
C1647  C1862   1.398   1_455 S
C1648  H1677   1.082   .     S
C1648  C1649   1.398   .     A
C1648  C1754   1.398   .     S
C1649  H1678   1.083   .     S
C1650  C698    1.417   1_556 S
C1651  C1652   1.407   .     A
C1651  C693    1.409   1_556 S
C1652  H1679   1.083   .     S
C1652  C1867   1.399   1_455 S
C1653  H1680   1.083   .     S
C1653  C1759   1.399   .     S
C1653  C691    1.398   1_556 S
C1654  H1681   1.083   .     S
C1654  C1655   1.397   .     A
C1655  H1682   1.082   .     S
C1655  C1763   1.398   .     S
C1656  H1683   1.083   .     S
C1656  C1869   1.398   1_455 S
C1657  O1700   1.221   .     D
C1657  H1685   1.085   .     S
C1658  C696    1.413   1_556 S
C1659  C1660   1.410   .     A
C1660  C1661   1.394   .     A
C1660  H1688   1.078   .     S
H1667  C994    1.085   1_565 S
H1673  C977    1.086   1_565 S
H1690  C1737   1.083   .     S
O1692  Zn1710  1.931   .     S
O1692  Zn1711  1.913   .     S
O1692  Zn1709  1.958   .     S
O1692  Zn1712  1.947   .     S
O1693  Zn1710  1.910   .     S
O1694  Zn1712  1.920   .     S
O1695  Zn1711  1.919   .     S
O1696  Zn1709  1.914   .     S
O1701  Zn1709  1.922   .     S
O1702  Zn1712  1.919   .     S
O1703  Zn1710  1.940   .     S
O1704  Zn1711  1.947   .     S
O1705  Zn1712  1.932   .     S
O1706  Zn1709  1.925   .     S
O1707  Zn1710  1.935   .     S
O1708  Zn1711  1.936   .     S
C1713  C1723   1.438   .     S
C1713  O1812   1.277   .     A
C1713  O1810   1.256   .     A
C1714  C1765   1.427   .     A
C1714  C1764   1.491   .     S
C1714  C1715   1.412   .     A
C1715  C1751   1.487   .     S
C1715  C754    1.414   1_556 S
C1716  O1811   1.279   .     A
C1716  O1813   1.266   .     A
C1716  C1722   1.464   .     S
C1717  C1718   1.420   .     A
C1717  C1719   1.412   .     A
C1718  C1721   1.411   .     A
C1718  C1766   1.420   .     A
C1719  C1720   1.397   .     A
C1719  H1769   1.083   .     S
C1720  C1732   1.407   .     A
C1720  C1744   1.480   .     S
C1721  H1791   1.079   .     S
C1721  C1732   1.391   .     A
C1722  C1830   1.361   .     S
C1722  C1843   1.491   .     S
C1724  C1733   1.403   .     A
C1724  C1731   1.397   .     A
C1724  H1793   1.084   .     S
C1725  C1728   1.462   .     S
C1725  C1084   1.345   1_565 S
C1725  C1101   1.499   1_565 S
C1726  C1727   1.436   .     S
C1727  O1808   1.275   .     A
C1727  O1814   1.272   .     A
C1728  O1809   1.276   .     A
C1728  O1815   1.268   .     A
C1729  O1800   1.274   .     A
C1729  C1732   1.460   .     S
C1729  O1802   1.263   .     A
C1730  O1803   1.294   .     A
C1730  C1731   1.474   .     S
C1730  O1801   1.288   .     A
C1731  C1735   1.390   .     A
C1733  C1757   1.429   .     A
C1733  C1758   1.490   .     S
C1734  C1768   1.484   .     S
C1734  H1796   1.086   .     S
C1734  O1804   1.221   .     D
C1735  H1794   1.079   .     S
C1735  C1746   1.406   .     A
C1736  C1741   1.406   .     A
C1736  C1737   1.405   .     A
C1737  C1738   1.399   .     A
C1738  C1739   1.398   .     A
C1738  H1798   1.082   .     S
C1739  H1770   1.082   .     S
C1739  C1740   1.397   .     A
C1740  C1741   1.398   .     A
C1740  H1771   1.081   .     S
C1741  H1772   1.083   .     S
C1742  O1805   1.222   .     D
C1742  H1773   1.085   .     S
C1742  C1830   1.493   .     S
C1743  O1806   1.221   .     D
C1744  C1750   1.405   .     A
C1744  C1745   1.404   .     A
C1745  H1775   1.083   .     S
C1745  C1747   1.399   .     A
C1746  C1757   1.428   .     A
C1746  C1765   1.429   .     A
C1747  C1748   1.398   .     A
C1747  H1776   1.083   .     S
C1748  C1749   1.398   .     A
C1748  H1777   1.082   .     S
C1749  H1778   1.083   .     S
C1749  C1750   1.398   .     A
C1750  H1779   1.083   .     S
C1751  C1752   1.404   .     A
C1751  C1756   1.404   .     A
C1752  H1781   1.081   .     S
C1752  C1860   1.398   .     S
C1753  C1754   1.398   .     A
C1753  H1782   1.081   .     S
C1754  H1783   1.082   .     S
C1755  H1784   1.082   .     S
C1755  C1756   1.398   .     A
C1755  C1861   1.398   .     S
C1756  H1785   1.083   .     S
C1757  C805    1.417   1_556 S
C1758  C1759   1.407   .     A
C1758  C800    1.409   1_556 S
C1759  H1786   1.083   .     S
C1760  H1787   1.083   .     S
C1760  C1866   1.399   .     S
C1760  C798    1.398   1_556 S
C1761  H1788   1.083   .     S
C1761  C1762   1.397   .     A
C1762  H1789   1.082   .     S
C1762  C1870   1.398   .     S
C1763  H1790   1.083   .     S
C1764  O1807   1.221   .     D
C1764  H1792   1.085   .     S
C1765  C803    1.413   1_556 S
C1766  C1767   1.410   .     A
C1767  C1768   1.394   .     A
C1767  H1795   1.078   .     S
H1774  C1101   1.085   1_565 S
H1780  C1084   1.086   1_565 S
H1797  C1844   1.083   .     S
O1799  Zn1817  1.931   .     S
O1799  Zn1818  1.913   .     S
O1799  Zn1816  1.958   .     S
O1799  Zn1819  1.947   .     S
O1800  Zn1817  1.910   .     S
O1801  Zn1819  1.920   .     S
O1802  Zn1818  1.919   .     S
O1803  Zn1816  1.914   .     S
O1808  Zn1816  1.922   .     S
O1809  Zn1819  1.919   .     S
O1810  Zn1817  1.940   .     S
O1811  Zn1818  1.947   .     S
O1812  Zn1819  1.932   .     S
O1813  Zn1816  1.925   .     S
O1814  Zn1817  1.935   .     S
O1815  Zn1818  1.936   .     S
C1820  C1830   1.438   .     S
C1820  O1919   1.277   .     A
C1820  O1917   1.256   .     A
C1821  C1872   1.427   .     A
C1821  C1871   1.491   .     S
C1821  C1822   1.412   .     A
C1822  C1858   1.487   .     S
C1822  C861    1.414   1_556 S
C1823  O1918   1.279   .     A
C1823  O1920   1.266   .     A
C1823  C1829   1.464   .     S
C1824  C1825   1.420   .     A
C1824  C1826   1.412   .     A
C1825  C1828   1.411   .     A
C1825  C1873   1.420   .     A
C1826  C1827   1.397   .     A
C1826  H1876   1.083   .     S
C1827  C1839   1.407   .     A
C1827  C1851   1.480   .     S
C1828  H1898   1.079   .     S
C1828  C1839   1.391   .     A
C1829  C1616   1.361   1_655 S
C1829  C1629   1.491   1_655 S
C1831  C1840   1.403   .     A
C1831  C1838   1.397   .     A
C1831  H1900   1.084   .     S
C1832  C1835   1.462   .     S
C1832  C1191   1.345   1_565 S
C1832  C1208   1.499   1_565 S
C1833  C1834   1.436   .     S
C1834  O1915   1.275   .     A
C1834  O1921   1.272   .     A
C1835  O1916   1.276   .     A
C1835  O1922   1.268   .     A
C1836  O1907   1.274   .     A
C1836  C1839   1.460   .     S
C1836  O1909   1.263   .     A
C1837  O1910   1.294   .     A
C1837  C1838   1.474   .     S
C1837  O1908   1.288   .     A
C1838  C1842   1.390   .     A
C1840  C1864   1.429   .     A
C1840  C1865   1.490   .     S
C1841  C1875   1.484   .     S
C1841  H1903   1.086   .     S
C1841  O1911   1.221   .     D
C1842  H1901   1.079   .     S
C1842  C1853   1.406   .     A
C1843  C1848   1.406   .     A
C1843  C1844   1.405   .     A
C1844  C1845   1.399   .     A
C1845  C1846   1.398   .     A
C1845  H1905   1.082   .     S
C1846  H1877   1.082   .     S
C1846  C1847   1.397   .     A
C1847  C1848   1.398   .     A
C1847  H1878   1.081   .     S
C1848  H1879   1.083   .     S
C1849  O1912   1.222   .     D
C1849  H1880   1.085   .     S
C1849  C1616   1.493   1_655 S
C1850  O1913   1.221   .     D
C1851  C1857   1.405   .     A
C1851  C1852   1.404   .     A
C1852  H1882   1.083   .     S
C1852  C1854   1.399   .     A
C1853  C1864   1.428   .     A
C1853  C1872   1.429   .     A
C1854  C1855   1.398   .     A
C1854  H1883   1.083   .     S
C1855  C1856   1.398   .     A
C1855  H1884   1.082   .     S
C1856  H1885   1.083   .     S
C1856  C1857   1.398   .     A
C1857  H1886   1.083   .     S
C1858  C1859   1.404   .     A
C1858  C1863   1.404   .     A
C1859  H1888   1.081   .     S
C1859  C1646   1.398   1_655 S
C1860  C1861   1.398   .     A
C1860  H1889   1.081   .     S
C1861  H1890   1.082   .     S
C1862  H1891   1.082   .     S
C1862  C1863   1.398   .     A
C1862  C1647   1.398   1_655 S
C1863  H1892   1.083   .     S
C1864  C912    1.417   1_556 S
C1865  C1866   1.407   .     A
C1865  C907    1.409   1_556 S
C1866  H1893   1.083   .     S
C1867  H1894   1.083   .     S
C1867  C1652   1.399   1_655 S
C1867  C905    1.398   1_556 S
C1868  H1895   1.083   .     S
C1868  C1869   1.397   .     A
C1869  H1896   1.082   .     S
C1869  C1656   1.398   1_655 S
C1870  H1897   1.083   .     S
C1871  O1914   1.221   .     D
C1871  H1899   1.085   .     S
C1872  C910    1.413   1_556 S
C1873  C1874   1.410   .     A
C1874  C1875   1.394   .     A
C1874  H1902   1.078   .     S
H1881  C1208   1.085   1_565 S
H1887  C1191   1.086   1_565 S
H1904  C1630   1.083   1_655 S
O1906  Zn1924  1.931   .     S
O1906  Zn1925  1.913   .     S
O1906  Zn1923  1.958   .     S
O1906  Zn1926  1.947   .     S
O1907  Zn1924  1.910   .     S
O1908  Zn1926  1.920   .     S
O1909  Zn1925  1.919   .     S
O1910  Zn1923  1.914   .     S
O1915  Zn1923  1.922   .     S
O1916  Zn1926  1.919   .     S
O1917  Zn1924  1.940   .     S
O1918  Zn1925  1.947   .     S
O1919  Zn1926  1.932   .     S
O1920  Zn1923  1.925   .     S
O1921  Zn1924  1.935   .     S
O1922  Zn1925  1.936   .     S
