data_str_m3_o5_o17_pcu_sym.24
_audit_creation_date              2020-01-03
_audit_creation_method            'Materials Studio'
_symmetry_space_group_name_H-M    'P1'
_symmetry_Int_Tables_number       1
_symmetry_cell_setting            triclinic
loop_
_symmetry_equiv_pos_as_xyz
  x,y,z
_cell_length_a                    30.0364
_cell_length_b                    26.7629
_cell_length_c                    24.3598
_cell_angle_alpha                 90.0338
_cell_angle_beta                  90.0055
_cell_angle_gamma                 89.9995
loop_
_atom_site_label
_atom_site_type_symbol
_atom_site_fract_x
_atom_site_fract_y
_atom_site_fract_z
_atom_site_U_iso_or_equiv
_atom_site_adp_type
_atom_site_occupancy
C1     C     0.25000   0.07269   0.16665   0.00000  Uiso   1.00
C2     C     0.11599   0.16667   0.16666   0.00000  Uiso   1.00
C3     C     0.45315   0.12122   0.17464   0.00000  Uiso   1.00
C4     C     0.04685   0.21211   0.15870   0.00000  Uiso   1.00
C5     C     0.45315   0.21211   0.15871   0.00000  Uiso   1.00
C6     C     0.04685   0.12122   0.17462   0.00000  Uiso   1.00
C7     C     0.47652   0.16667   0.16667   0.00000  Uiso   1.00
C8     C     0.02348   0.16667   0.16666   0.00000  Uiso   1.00
C9     C     0.47707   0.07687   0.18323   0.00000  Uiso   1.00
C10    C     0.02293   0.25646   0.15011   0.00000  Uiso   1.00
C11    C     0.47707   0.25646   0.15012   0.00000  Uiso   1.00
C12    C     0.25000   0.26064   0.16668   0.00000  Uiso   1.00
C13    C     0.02293   0.07687   0.18322   0.00000  Uiso   1.00
C14    C     0.25000   0.02174   0.16665   0.00000  Uiso   1.00
C15    C     0.25000   0.31159   0.16669   0.00000  Uiso   1.00
C16    C     0.38112   0.26146   0.15375   0.00000  Uiso   1.00
C17    C     0.11888   0.07187   0.17958   0.00000  Uiso   1.00
C18    C     0.38112   0.07187   0.17963   0.00000  Uiso   1.00
C19    C     0.11888   0.26146   0.15371   0.00000  Uiso   1.00
C20    C     0.16348   0.16666   0.16666   0.00000  Uiso   1.00
C21    C     0.33652   0.16667   0.16667   0.00000  Uiso   1.00
C22    C     0.40647   0.21238   0.15961   0.00000  Uiso   1.00
C23    C     0.09353   0.12095   0.17372   0.00000  Uiso   1.00
C24    C     0.40647   0.12095   0.17375   0.00000  Uiso   1.00
C25    C     0.09353   0.21238   0.15959   0.00000  Uiso   1.00
C26    C     0.38400   0.16667   0.16668   0.00000  Uiso   1.00
H27    H     0.46087   0.04140   0.19031   0.00000  Uiso   1.00
H28    H     0.10852   0.04571   0.14657   0.00000  Uiso   1.00
H29    H     0.34456   0.07540   0.17634   0.00000  Uiso   1.00
H30    H     0.39147   0.04570   0.14662   0.00000  Uiso   1.00
H31    H     0.38819   0.05503   0.22035   0.00000  Uiso   1.00
H32    H     0.15544   0.25794   0.15700   0.00000  Uiso   1.00
H33    H     0.11181   0.27830   0.11298   0.00000  Uiso   1.00
H34    H     0.10853   0.28763   0.18671   0.00000  Uiso   1.00
H35    H     0.03913   0.29193   0.14302   0.00000  Uiso   1.00
H36    H     0.46087   0.29194   0.14304   0.00000  Uiso   1.00
H37    H     0.03913   0.04140   0.19029   0.00000  Uiso   1.00
H38    H     0.34456   0.25793   0.15706   0.00000  Uiso   1.00
H39    H     0.39148   0.28762   0.18676   0.00000  Uiso   1.00
H40    H     0.38818   0.27831   0.11304   0.00000  Uiso   1.00
H41    H     0.15544   0.07540   0.17628   0.00000  Uiso   1.00
H42    H     0.11182   0.05503   0.22030   0.00000  Uiso   1.00
N43    N     0.25000   0.16667   0.02455   0.00000  Uiso   1.00
N44    N     0.25000   0.16667   0.30879   0.00000  Uiso   1.00
O45    O     0.25000   0.09512   0.21228   0.00000  Uiso   1.00
O46    O     0.25000   0.23822   0.12105   0.00000  Uiso   1.00
O47    O     0.25000   0.23822   0.21228   0.00000  Uiso   1.00
O48    O     0.25000   0.09512   0.12105   0.00000  Uiso   1.00
O49    O     0.18392   0.16667   0.21230   0.00000  Uiso   1.00
O50    O     0.31607   0.16667   0.12104   0.00000  Uiso   1.00
O51    O     0.31607   0.16667   0.21230   0.00000  Uiso   1.00
O52    O     0.18392   0.16667   0.12104   0.00000  Uiso   1.00
Zn53   Zn    0.25000   0.16667   0.22759   0.00000  Uiso   1.00
Zn54   Zn    0.25000   0.16667   0.10574   0.00000  Uiso   1.00
C55    C     0.75000   0.07269   0.16665   0.00000  Uiso   1.00
C56    C     0.61599   0.16667   0.16666   0.00000  Uiso   1.00
C57    C     0.95315   0.12122   0.17464   0.00000  Uiso   1.00
C58    C     0.54685   0.21211   0.15870   0.00000  Uiso   1.00
C59    C     0.95315   0.21211   0.15871   0.00000  Uiso   1.00
C60    C     0.54685   0.12122   0.17462   0.00000  Uiso   1.00
C61    C     0.97652   0.16667   0.16667   0.00000  Uiso   1.00
C62    C     0.52348   0.16667   0.16666   0.00000  Uiso   1.00
C63    C     0.97707   0.07687   0.18323   0.00000  Uiso   1.00
C64    C     0.52293   0.25646   0.15011   0.00000  Uiso   1.00
C65    C     0.97707   0.25646   0.15012   0.00000  Uiso   1.00
C66    C     0.75000   0.26064   0.16668   0.00000  Uiso   1.00
C67    C     0.52293   0.07687   0.18322   0.00000  Uiso   1.00
C68    C     0.75000   0.02174   0.16665   0.00000  Uiso   1.00
C69    C     0.75000   0.31159   0.16669   0.00000  Uiso   1.00
C70    C     0.88112   0.26146   0.15375   0.00000  Uiso   1.00
C71    C     0.61888   0.07187   0.17958   0.00000  Uiso   1.00
C72    C     0.88112   0.07187   0.17963   0.00000  Uiso   1.00
C73    C     0.61888   0.26146   0.15371   0.00000  Uiso   1.00
C74    C     0.66348   0.16666   0.16666   0.00000  Uiso   1.00
C75    C     0.83652   0.16667   0.16667   0.00000  Uiso   1.00
C76    C     0.90647   0.21238   0.15961   0.00000  Uiso   1.00
C77    C     0.59353   0.12095   0.17372   0.00000  Uiso   1.00
C78    C     0.90647   0.12095   0.17375   0.00000  Uiso   1.00
C79    C     0.59353   0.21238   0.15959   0.00000  Uiso   1.00
C80    C     0.88400   0.16667   0.16668   0.00000  Uiso   1.00
H81    H     0.96087   0.04140   0.19031   0.00000  Uiso   1.00
H82    H     0.60852   0.04571   0.14657   0.00000  Uiso   1.00
H83    H     0.84456   0.07540   0.17634   0.00000  Uiso   1.00
H84    H     0.89147   0.04570   0.14662   0.00000  Uiso   1.00
H85    H     0.88819   0.05503   0.22035   0.00000  Uiso   1.00
H86    H     0.65544   0.25794   0.15700   0.00000  Uiso   1.00
H87    H     0.61181   0.27830   0.11298   0.00000  Uiso   1.00
H88    H     0.60853   0.28763   0.18671   0.00000  Uiso   1.00
H89    H     0.53913   0.29193   0.14302   0.00000  Uiso   1.00
H90    H     0.96087   0.29194   0.14304   0.00000  Uiso   1.00
H91    H     0.53913   0.04140   0.19029   0.00000  Uiso   1.00
H92    H     0.84456   0.25793   0.15706   0.00000  Uiso   1.00
H93    H     0.89148   0.28762   0.18676   0.00000  Uiso   1.00
H94    H     0.88818   0.27831   0.11304   0.00000  Uiso   1.00
H95    H     0.65544   0.07540   0.17628   0.00000  Uiso   1.00
H96    H     0.61182   0.05503   0.22030   0.00000  Uiso   1.00
N97    N     0.75000   0.16667   0.02455   0.00000  Uiso   1.00
N98    N     0.75000   0.16667   0.30879   0.00000  Uiso   1.00
O99    O     0.75000   0.09512   0.21228   0.00000  Uiso   1.00
O100   O     0.75000   0.23822   0.12105   0.00000  Uiso   1.00
O101   O     0.75000   0.23822   0.21228   0.00000  Uiso   1.00
O102   O     0.75000   0.09512   0.12105   0.00000  Uiso   1.00
O103   O     0.68392   0.16667   0.21230   0.00000  Uiso   1.00
O104   O     0.81607   0.16667   0.12104   0.00000  Uiso   1.00
O105   O     0.81607   0.16667   0.21230   0.00000  Uiso   1.00
O106   O     0.68392   0.16667   0.12104   0.00000  Uiso   1.00
Zn107  Zn    0.75000   0.16667   0.22759   0.00000  Uiso   1.00
Zn108  Zn    0.75000   0.16667   0.10574   0.00000  Uiso   1.00
C109   C     0.25000   0.40602   0.16665   0.00000  Uiso   1.00
C110   C     0.11599   0.50000   0.16666   0.00000  Uiso   1.00
C111   C     0.45315   0.45456   0.17464   0.00000  Uiso   1.00
C112   C     0.04685   0.54544   0.15870   0.00000  Uiso   1.00
C113   C     0.45315   0.54544   0.15871   0.00000  Uiso   1.00
C114   C     0.04685   0.45456   0.17462   0.00000  Uiso   1.00
C115   C     0.47652   0.50000   0.16667   0.00000  Uiso   1.00
C116   C     0.02348   0.50000   0.16666   0.00000  Uiso   1.00
C117   C     0.47707   0.41020   0.18323   0.00000  Uiso   1.00
C118   C     0.02293   0.58980   0.15011   0.00000  Uiso   1.00
C119   C     0.47707   0.58980   0.15012   0.00000  Uiso   1.00
C120   C     0.25000   0.59398   0.16668   0.00000  Uiso   1.00
C121   C     0.02293   0.41020   0.18322   0.00000  Uiso   1.00
C122   C     0.25000   0.35507   0.16665   0.00000  Uiso   1.00
C123   C     0.25000   0.64493   0.16669   0.00000  Uiso   1.00
C124   C     0.38112   0.59480   0.15375   0.00000  Uiso   1.00
C125   C     0.11888   0.40520   0.17958   0.00000  Uiso   1.00
C126   C     0.38112   0.40520   0.17963   0.00000  Uiso   1.00
C127   C     0.11888   0.59480   0.15371   0.00000  Uiso   1.00
C128   C     0.16348   0.50000   0.16666   0.00000  Uiso   1.00
C129   C     0.33652   0.50000   0.16667   0.00000  Uiso   1.00
C130   C     0.40647   0.54572   0.15961   0.00000  Uiso   1.00
C131   C     0.09353   0.45428   0.17372   0.00000  Uiso   1.00
C132   C     0.40647   0.45428   0.17375   0.00000  Uiso   1.00
C133   C     0.09353   0.54572   0.15959   0.00000  Uiso   1.00
C134   C     0.38400   0.50000   0.16668   0.00000  Uiso   1.00
H135   H     0.46087   0.37473   0.19031   0.00000  Uiso   1.00
H136   H     0.10852   0.37904   0.14657   0.00000  Uiso   1.00
H137   H     0.34456   0.40873   0.17634   0.00000  Uiso   1.00
H138   H     0.39147   0.37903   0.14662   0.00000  Uiso   1.00
H139   H     0.38819   0.38837   0.22035   0.00000  Uiso   1.00
H140   H     0.15544   0.59127   0.15700   0.00000  Uiso   1.00
H141   H     0.11181   0.61163   0.11298   0.00000  Uiso   1.00
H142   H     0.10853   0.62097   0.18671   0.00000  Uiso   1.00
H143   H     0.03913   0.62527   0.14302   0.00000  Uiso   1.00
H144   H     0.46087   0.62527   0.14304   0.00000  Uiso   1.00
H145   H     0.03913   0.37473   0.19029   0.00000  Uiso   1.00
H146   H     0.34456   0.59127   0.15706   0.00000  Uiso   1.00
H147   H     0.39148   0.62096   0.18676   0.00000  Uiso   1.00
H148   H     0.38818   0.61164   0.11304   0.00000  Uiso   1.00
H149   H     0.15544   0.40873   0.17628   0.00000  Uiso   1.00
H150   H     0.11182   0.38836   0.22030   0.00000  Uiso   1.00
N151   N     0.25000   0.50000   0.02455   0.00000  Uiso   1.00
N152   N     0.25000   0.50000   0.30879   0.00000  Uiso   1.00
O153   O     0.25000   0.42845   0.21228   0.00000  Uiso   1.00
O154   O     0.25000   0.57155   0.12105   0.00000  Uiso   1.00
O155   O     0.25000   0.57155   0.21228   0.00000  Uiso   1.00
O156   O     0.25000   0.42845   0.12105   0.00000  Uiso   1.00
O157   O     0.18392   0.50000   0.21230   0.00000  Uiso   1.00
O158   O     0.31607   0.50000   0.12104   0.00000  Uiso   1.00
O159   O     0.31607   0.50000   0.21230   0.00000  Uiso   1.00
O160   O     0.18392   0.50000   0.12104   0.00000  Uiso   1.00
Zn161  Zn    0.25000   0.50000   0.22759   0.00000  Uiso   1.00
Zn162  Zn    0.25000   0.50000   0.10574   0.00000  Uiso   1.00
C163   C     0.75000   0.40602   0.16665   0.00000  Uiso   1.00
C164   C     0.61599   0.50000   0.16666   0.00000  Uiso   1.00
C165   C     0.95315   0.45456   0.17464   0.00000  Uiso   1.00
C166   C     0.54685   0.54544   0.15870   0.00000  Uiso   1.00
C167   C     0.95315   0.54544   0.15871   0.00000  Uiso   1.00
C168   C     0.54685   0.45456   0.17462   0.00000  Uiso   1.00
C169   C     0.97652   0.50000   0.16667   0.00000  Uiso   1.00
C170   C     0.52348   0.50000   0.16666   0.00000  Uiso   1.00
C171   C     0.97707   0.41020   0.18323   0.00000  Uiso   1.00
C172   C     0.52293   0.58980   0.15011   0.00000  Uiso   1.00
C173   C     0.97707   0.58980   0.15012   0.00000  Uiso   1.00
C174   C     0.75000   0.59398   0.16668   0.00000  Uiso   1.00
C175   C     0.52293   0.41020   0.18322   0.00000  Uiso   1.00
C176   C     0.75000   0.35507   0.16665   0.00000  Uiso   1.00
C177   C     0.75000   0.64493   0.16669   0.00000  Uiso   1.00
C178   C     0.88112   0.59480   0.15375   0.00000  Uiso   1.00
C179   C     0.61888   0.40520   0.17958   0.00000  Uiso   1.00
C180   C     0.88112   0.40520   0.17963   0.00000  Uiso   1.00
C181   C     0.61888   0.59480   0.15371   0.00000  Uiso   1.00
C182   C     0.66348   0.50000   0.16666   0.00000  Uiso   1.00
C183   C     0.83652   0.50000   0.16667   0.00000  Uiso   1.00
C184   C     0.90647   0.54572   0.15961   0.00000  Uiso   1.00
C185   C     0.59353   0.45428   0.17372   0.00000  Uiso   1.00
C186   C     0.90647   0.45428   0.17375   0.00000  Uiso   1.00
C187   C     0.59353   0.54572   0.15959   0.00000  Uiso   1.00
C188   C     0.88400   0.50000   0.16668   0.00000  Uiso   1.00
H189   H     0.96087   0.37473   0.19031   0.00000  Uiso   1.00
H190   H     0.60852   0.37904   0.14657   0.00000  Uiso   1.00
H191   H     0.84456   0.40873   0.17634   0.00000  Uiso   1.00
H192   H     0.89147   0.37903   0.14662   0.00000  Uiso   1.00
H193   H     0.88819   0.38837   0.22035   0.00000  Uiso   1.00
H194   H     0.65544   0.59127   0.15700   0.00000  Uiso   1.00
H195   H     0.61181   0.61163   0.11298   0.00000  Uiso   1.00
H196   H     0.60853   0.62097   0.18671   0.00000  Uiso   1.00
H197   H     0.53913   0.62527   0.14302   0.00000  Uiso   1.00
H198   H     0.96087   0.62527   0.14304   0.00000  Uiso   1.00
H199   H     0.53913   0.37473   0.19029   0.00000  Uiso   1.00
H200   H     0.84456   0.59127   0.15706   0.00000  Uiso   1.00
H201   H     0.89148   0.62096   0.18676   0.00000  Uiso   1.00
H202   H     0.88818   0.61164   0.11304   0.00000  Uiso   1.00
H203   H     0.65544   0.40873   0.17628   0.00000  Uiso   1.00
H204   H     0.61182   0.38836   0.22030   0.00000  Uiso   1.00
N205   N     0.75000   0.50000   0.02455   0.00000  Uiso   1.00
N206   N     0.75000   0.50000   0.30879   0.00000  Uiso   1.00
O207   O     0.75000   0.42845   0.21228   0.00000  Uiso   1.00
O208   O     0.75000   0.57155   0.12105   0.00000  Uiso   1.00
O209   O     0.75000   0.57155   0.21228   0.00000  Uiso   1.00
O210   O     0.75000   0.42845   0.12105   0.00000  Uiso   1.00
O211   O     0.68392   0.50000   0.21230   0.00000  Uiso   1.00
O212   O     0.81607   0.50000   0.12104   0.00000  Uiso   1.00
O213   O     0.81607   0.50000   0.21230   0.00000  Uiso   1.00
O214   O     0.68392   0.50000   0.12104   0.00000  Uiso   1.00
Zn215  Zn    0.75000   0.50000   0.22759   0.00000  Uiso   1.00
Zn216  Zn    0.75000   0.50000   0.10574   0.00000  Uiso   1.00
C217   C     0.25000   0.73936   0.16665   0.00000  Uiso   1.00
C218   C     0.11599   0.83333   0.16666   0.00000  Uiso   1.00
C219   C     0.45315   0.78789   0.17464   0.00000  Uiso   1.00
C220   C     0.04685   0.87878   0.15870   0.00000  Uiso   1.00
C221   C     0.45315   0.87878   0.15871   0.00000  Uiso   1.00
C222   C     0.04685   0.78789   0.17462   0.00000  Uiso   1.00
C223   C     0.47652   0.83333   0.16667   0.00000  Uiso   1.00
C224   C     0.02348   0.83333   0.16666   0.00000  Uiso   1.00
C225   C     0.47707   0.74354   0.18323   0.00000  Uiso   1.00
C226   C     0.02293   0.92313   0.15011   0.00000  Uiso   1.00
C227   C     0.47707   0.92313   0.15012   0.00000  Uiso   1.00
C228   C     0.25000   0.92731   0.16668   0.00000  Uiso   1.00
C229   C     0.02293   0.74354   0.18322   0.00000  Uiso   1.00
C230   C     0.25000   0.68841   0.16665   0.00000  Uiso   1.00
C231   C     0.25000   0.97826   0.16669   0.00000  Uiso   1.00
C232   C     0.38112   0.92813   0.15375   0.00000  Uiso   1.00
C233   C     0.11888   0.73854   0.17958   0.00000  Uiso   1.00
C234   C     0.38112   0.73854   0.17963   0.00000  Uiso   1.00
C235   C     0.11888   0.92813   0.15371   0.00000  Uiso   1.00
C236   C     0.16348   0.83333   0.16666   0.00000  Uiso   1.00
C237   C     0.33652   0.83334   0.16667   0.00000  Uiso   1.00
C238   C     0.40647   0.87905   0.15961   0.00000  Uiso   1.00
C239   C     0.09353   0.78762   0.17372   0.00000  Uiso   1.00
C240   C     0.40647   0.78762   0.17375   0.00000  Uiso   1.00
C241   C     0.09353   0.87905   0.15959   0.00000  Uiso   1.00
C242   C     0.38400   0.83333   0.16668   0.00000  Uiso   1.00
H243   H     0.46087   0.70807   0.19031   0.00000  Uiso   1.00
H244   H     0.10852   0.71238   0.14657   0.00000  Uiso   1.00
H245   H     0.34456   0.74206   0.17634   0.00000  Uiso   1.00
H246   H     0.39147   0.71237   0.14662   0.00000  Uiso   1.00
H247   H     0.38819   0.72170   0.22035   0.00000  Uiso   1.00
H248   H     0.15544   0.92460   0.15700   0.00000  Uiso   1.00
H249   H     0.11181   0.94497   0.11298   0.00000  Uiso   1.00
H250   H     0.10853   0.95430   0.18671   0.00000  Uiso   1.00
H251   H     0.03913   0.95860   0.14302   0.00000  Uiso   1.00
H252   H     0.46087   0.95860   0.14304   0.00000  Uiso   1.00
H253   H     0.03913   0.70806   0.19029   0.00000  Uiso   1.00
H254   H     0.34456   0.92460   0.15706   0.00000  Uiso   1.00
H255   H     0.39148   0.95429   0.18676   0.00000  Uiso   1.00
H256   H     0.38818   0.94497   0.11304   0.00000  Uiso   1.00
H257   H     0.15544   0.74207   0.17628   0.00000  Uiso   1.00
H258   H     0.11182   0.72169   0.22030   0.00000  Uiso   1.00
N259   N     0.25000   0.83333   0.02455   0.00000  Uiso   1.00
N260   N     0.25000   0.83333   0.30879   0.00000  Uiso   1.00
O261   O     0.25000   0.76178   0.21228   0.00000  Uiso   1.00
O262   O     0.25000   0.90488   0.12105   0.00000  Uiso   1.00
O263   O     0.25000   0.90488   0.21228   0.00000  Uiso   1.00
O264   O     0.25000   0.76178   0.12105   0.00000  Uiso   1.00
O265   O     0.18392   0.83333   0.21230   0.00000  Uiso   1.00
O266   O     0.31607   0.83333   0.12104   0.00000  Uiso   1.00
O267   O     0.31607   0.83333   0.21230   0.00000  Uiso   1.00
O268   O     0.18392   0.83333   0.12104   0.00000  Uiso   1.00
Zn269  Zn    0.25000   0.83333   0.22759   0.00000  Uiso   1.00
Zn270  Zn    0.25000   0.83333   0.10574   0.00000  Uiso   1.00
C271   C     0.75000   0.73936   0.16665   0.00000  Uiso   1.00
C272   C     0.61599   0.83333   0.16666   0.00000  Uiso   1.00
C273   C     0.95315   0.78789   0.17464   0.00000  Uiso   1.00
C274   C     0.54685   0.87878   0.15870   0.00000  Uiso   1.00
C275   C     0.95315   0.87878   0.15871   0.00000  Uiso   1.00
C276   C     0.54685   0.78789   0.17462   0.00000  Uiso   1.00
C277   C     0.97652   0.83333   0.16667   0.00000  Uiso   1.00
C278   C     0.52348   0.83333   0.16666   0.00000  Uiso   1.00
C279   C     0.97707   0.74354   0.18323   0.00000  Uiso   1.00
C280   C     0.52293   0.92313   0.15011   0.00000  Uiso   1.00
C281   C     0.97707   0.92313   0.15012   0.00000  Uiso   1.00
C282   C     0.75000   0.92731   0.16668   0.00000  Uiso   1.00
C283   C     0.52293   0.74354   0.18322   0.00000  Uiso   1.00
C284   C     0.75000   0.68841   0.16665   0.00000  Uiso   1.00
C285   C     0.75000   0.97826   0.16669   0.00000  Uiso   1.00
C286   C     0.88112   0.92813   0.15375   0.00000  Uiso   1.00
C287   C     0.61888   0.73854   0.17958   0.00000  Uiso   1.00
C288   C     0.88112   0.73854   0.17963   0.00000  Uiso   1.00
C289   C     0.61888   0.92813   0.15371   0.00000  Uiso   1.00
C290   C     0.66348   0.83333   0.16666   0.00000  Uiso   1.00
C291   C     0.83652   0.83334   0.16667   0.00000  Uiso   1.00
C292   C     0.90647   0.87905   0.15961   0.00000  Uiso   1.00
C293   C     0.59353   0.78762   0.17372   0.00000  Uiso   1.00
C294   C     0.90647   0.78762   0.17375   0.00000  Uiso   1.00
C295   C     0.59353   0.87905   0.15959   0.00000  Uiso   1.00
C296   C     0.88400   0.83333   0.16668   0.00000  Uiso   1.00
H297   H     0.96087   0.70807   0.19031   0.00000  Uiso   1.00
H298   H     0.60852   0.71238   0.14657   0.00000  Uiso   1.00
H299   H     0.84456   0.74206   0.17634   0.00000  Uiso   1.00
H300   H     0.89147   0.71237   0.14662   0.00000  Uiso   1.00
H301   H     0.88819   0.72170   0.22035   0.00000  Uiso   1.00
H302   H     0.65544   0.92460   0.15700   0.00000  Uiso   1.00
H303   H     0.61181   0.94497   0.11298   0.00000  Uiso   1.00
H304   H     0.60853   0.95430   0.18671   0.00000  Uiso   1.00
H305   H     0.53913   0.95860   0.14302   0.00000  Uiso   1.00
H306   H     0.96087   0.95860   0.14304   0.00000  Uiso   1.00
H307   H     0.53913   0.70806   0.19029   0.00000  Uiso   1.00
H308   H     0.84456   0.92460   0.15706   0.00000  Uiso   1.00
H309   H     0.89148   0.95429   0.18676   0.00000  Uiso   1.00
H310   H     0.88818   0.94497   0.11304   0.00000  Uiso   1.00
H311   H     0.65544   0.74207   0.17628   0.00000  Uiso   1.00
H312   H     0.61182   0.72169   0.22030   0.00000  Uiso   1.00
N313   N     0.75000   0.83333   0.02455   0.00000  Uiso   1.00
N314   N     0.75000   0.83333   0.30879   0.00000  Uiso   1.00
O315   O     0.75000   0.76178   0.21228   0.00000  Uiso   1.00
O316   O     0.75000   0.90488   0.12105   0.00000  Uiso   1.00
O317   O     0.75000   0.90488   0.21228   0.00000  Uiso   1.00
O318   O     0.75000   0.76178   0.12105   0.00000  Uiso   1.00
O319   O     0.68392   0.83333   0.21230   0.00000  Uiso   1.00
O320   O     0.81607   0.83333   0.12104   0.00000  Uiso   1.00
O321   O     0.81607   0.83333   0.21230   0.00000  Uiso   1.00
O322   O     0.68392   0.83333   0.12104   0.00000  Uiso   1.00
Zn323  Zn    0.75000   0.83333   0.22759   0.00000  Uiso   1.00
Zn324  Zn    0.75000   0.83333   0.10574   0.00000  Uiso   1.00
C325   C     0.25000   0.07269   0.49999   0.00000  Uiso   1.00
C326   C     0.11599   0.16667   0.49999   0.00000  Uiso   1.00
C327   C     0.45315   0.12122   0.50797   0.00000  Uiso   1.00
C328   C     0.04685   0.21211   0.49203   0.00000  Uiso   1.00
C329   C     0.45315   0.21211   0.49205   0.00000  Uiso   1.00
C330   C     0.04685   0.12122   0.50795   0.00000  Uiso   1.00
C331   C     0.47652   0.16667   0.50000   0.00000  Uiso   1.00
C332   C     0.02348   0.16667   0.50000   0.00000  Uiso   1.00
C333   C     0.47707   0.07687   0.51656   0.00000  Uiso   1.00
C334   C     0.02293   0.25646   0.48344   0.00000  Uiso   1.00
C335   C     0.47707   0.25646   0.48345   0.00000  Uiso   1.00
C336   C     0.25000   0.26064   0.50001   0.00000  Uiso   1.00
C337   C     0.02293   0.07687   0.51655   0.00000  Uiso   1.00
C338   C     0.25000   0.02174   0.49998   0.00000  Uiso   1.00
C339   C     0.25000   0.31159   0.50002   0.00000  Uiso   1.00
C340   C     0.38112   0.26146   0.48709   0.00000  Uiso   1.00
C341   C     0.11888   0.07187   0.51291   0.00000  Uiso   1.00
C342   C     0.38112   0.07187   0.51296   0.00000  Uiso   1.00
C343   C     0.11888   0.26146   0.48704   0.00000  Uiso   1.00
C344   C     0.16348   0.16666   0.50000   0.00000  Uiso   1.00
C345   C     0.33652   0.16667   0.50000   0.00000  Uiso   1.00
C346   C     0.40647   0.21238   0.49295   0.00000  Uiso   1.00
C347   C     0.09353   0.12095   0.50705   0.00000  Uiso   1.00
C348   C     0.40647   0.12095   0.50708   0.00000  Uiso   1.00
C349   C     0.09353   0.21238   0.49292   0.00000  Uiso   1.00
C350   C     0.38400   0.16667   0.50001   0.00000  Uiso   1.00
H351   H     0.46087   0.04140   0.52364   0.00000  Uiso   1.00
H352   H     0.10852   0.04571   0.47991   0.00000  Uiso   1.00
H353   H     0.34456   0.07540   0.50967   0.00000  Uiso   1.00
H354   H     0.39147   0.04570   0.47996   0.00000  Uiso   1.00
H355   H     0.38819   0.05503   0.55368   0.00000  Uiso   1.00
H356   H     0.15544   0.25794   0.49033   0.00000  Uiso   1.00
H357   H     0.11181   0.27830   0.44632   0.00000  Uiso   1.00
H358   H     0.10853   0.28763   0.52004   0.00000  Uiso   1.00
H359   H     0.03913   0.29193   0.47636   0.00000  Uiso   1.00
H360   H     0.46087   0.29194   0.47638   0.00000  Uiso   1.00
H361   H     0.03913   0.04140   0.52362   0.00000  Uiso   1.00
H362   H     0.34456   0.25793   0.49039   0.00000  Uiso   1.00
H363   H     0.39148   0.28762   0.52009   0.00000  Uiso   1.00
H364   H     0.38818   0.27831   0.44637   0.00000  Uiso   1.00
H365   H     0.15544   0.07540   0.50961   0.00000  Uiso   1.00
H366   H     0.11182   0.05503   0.55363   0.00000  Uiso   1.00
N367   N     0.25000   0.16667   0.35788   0.00000  Uiso   1.00
N368   N     0.25000   0.16667   0.64212   0.00000  Uiso   1.00
O369   O     0.25000   0.09512   0.54562   0.00000  Uiso   1.00
O370   O     0.25000   0.23822   0.45438   0.00000  Uiso   1.00
O371   O     0.25000   0.23822   0.54562   0.00000  Uiso   1.00
O372   O     0.25000   0.09512   0.45438   0.00000  Uiso   1.00
O373   O     0.18392   0.16667   0.54563   0.00000  Uiso   1.00
O374   O     0.31607   0.16667   0.45437   0.00000  Uiso   1.00
O375   O     0.31607   0.16667   0.54563   0.00000  Uiso   1.00
O376   O     0.18392   0.16667   0.45437   0.00000  Uiso   1.00
Zn377  Zn    0.25000   0.16667   0.56093   0.00000  Uiso   1.00
Zn378  Zn    0.25000   0.16667   0.43907   0.00000  Uiso   1.00
C379   C     0.75000   0.07269   0.49999   0.00000  Uiso   1.00
C380   C     0.61599   0.16667   0.49999   0.00000  Uiso   1.00
C381   C     0.95315   0.12122   0.50797   0.00000  Uiso   1.00
C382   C     0.54685   0.21211   0.49203   0.00000  Uiso   1.00
C383   C     0.95315   0.21211   0.49205   0.00000  Uiso   1.00
C384   C     0.54685   0.12122   0.50795   0.00000  Uiso   1.00
C385   C     0.97652   0.16667   0.50000   0.00000  Uiso   1.00
C386   C     0.52348   0.16667   0.50000   0.00000  Uiso   1.00
C387   C     0.97707   0.07687   0.51656   0.00000  Uiso   1.00
C388   C     0.52293   0.25646   0.48344   0.00000  Uiso   1.00
C389   C     0.97707   0.25646   0.48345   0.00000  Uiso   1.00
C390   C     0.75000   0.26064   0.50001   0.00000  Uiso   1.00
C391   C     0.52293   0.07687   0.51655   0.00000  Uiso   1.00
C392   C     0.75000   0.02174   0.49998   0.00000  Uiso   1.00
C393   C     0.75000   0.31159   0.50002   0.00000  Uiso   1.00
C394   C     0.88112   0.26146   0.48709   0.00000  Uiso   1.00
C395   C     0.61888   0.07187   0.51291   0.00000  Uiso   1.00
C396   C     0.88112   0.07187   0.51296   0.00000  Uiso   1.00
C397   C     0.61888   0.26146   0.48704   0.00000  Uiso   1.00
C398   C     0.66348   0.16666   0.50000   0.00000  Uiso   1.00
C399   C     0.83652   0.16667   0.50000   0.00000  Uiso   1.00
C400   C     0.90647   0.21238   0.49295   0.00000  Uiso   1.00
C401   C     0.59353   0.12095   0.50705   0.00000  Uiso   1.00
C402   C     0.90647   0.12095   0.50708   0.00000  Uiso   1.00
C403   C     0.59353   0.21238   0.49292   0.00000  Uiso   1.00
C404   C     0.88400   0.16667   0.50001   0.00000  Uiso   1.00
H405   H     0.96087   0.04140   0.52364   0.00000  Uiso   1.00
H406   H     0.60852   0.04571   0.47991   0.00000  Uiso   1.00
H407   H     0.84456   0.07540   0.50967   0.00000  Uiso   1.00
H408   H     0.89147   0.04570   0.47996   0.00000  Uiso   1.00
H409   H     0.88819   0.05503   0.55368   0.00000  Uiso   1.00
H410   H     0.65544   0.25794   0.49033   0.00000  Uiso   1.00
H411   H     0.61181   0.27830   0.44632   0.00000  Uiso   1.00
H412   H     0.60853   0.28763   0.52004   0.00000  Uiso   1.00
H413   H     0.53913   0.29193   0.47636   0.00000  Uiso   1.00
H414   H     0.96087   0.29194   0.47638   0.00000  Uiso   1.00
H415   H     0.53913   0.04140   0.52362   0.00000  Uiso   1.00
H416   H     0.84456   0.25793   0.49039   0.00000  Uiso   1.00
H417   H     0.89148   0.28762   0.52009   0.00000  Uiso   1.00
H418   H     0.88818   0.27831   0.44637   0.00000  Uiso   1.00
H419   H     0.65544   0.07540   0.50961   0.00000  Uiso   1.00
H420   H     0.61182   0.05503   0.55363   0.00000  Uiso   1.00
N421   N     0.75000   0.16667   0.35788   0.00000  Uiso   1.00
N422   N     0.75000   0.16667   0.64212   0.00000  Uiso   1.00
O423   O     0.75000   0.09512   0.54562   0.00000  Uiso   1.00
O424   O     0.75000   0.23822   0.45438   0.00000  Uiso   1.00
O425   O     0.75000   0.23822   0.54562   0.00000  Uiso   1.00
O426   O     0.75000   0.09512   0.45438   0.00000  Uiso   1.00
O427   O     0.68392   0.16667   0.54563   0.00000  Uiso   1.00
O428   O     0.81607   0.16667   0.45437   0.00000  Uiso   1.00
O429   O     0.81607   0.16667   0.54563   0.00000  Uiso   1.00
O430   O     0.68392   0.16667   0.45437   0.00000  Uiso   1.00
Zn431  Zn    0.75000   0.16667   0.56093   0.00000  Uiso   1.00
Zn432  Zn    0.75000   0.16667   0.43907   0.00000  Uiso   1.00
C433   C     0.25000   0.40602   0.49999   0.00000  Uiso   1.00
C434   C     0.11599   0.50000   0.49999   0.00000  Uiso   1.00
C435   C     0.45315   0.45456   0.50797   0.00000  Uiso   1.00
C436   C     0.04685   0.54544   0.49203   0.00000  Uiso   1.00
C437   C     0.45315   0.54544   0.49205   0.00000  Uiso   1.00
C438   C     0.04685   0.45456   0.50795   0.00000  Uiso   1.00
C439   C     0.47652   0.50000   0.50000   0.00000  Uiso   1.00
C440   C     0.02348   0.50000   0.50000   0.00000  Uiso   1.00
C441   C     0.47707   0.41020   0.51656   0.00000  Uiso   1.00
C442   C     0.02293   0.58980   0.48344   0.00000  Uiso   1.00
C443   C     0.47707   0.58980   0.48345   0.00000  Uiso   1.00
C444   C     0.25000   0.59398   0.50001   0.00000  Uiso   1.00
C445   C     0.02293   0.41020   0.51655   0.00000  Uiso   1.00
C446   C     0.25000   0.35507   0.49998   0.00000  Uiso   1.00
C447   C     0.25000   0.64493   0.50002   0.00000  Uiso   1.00
C448   C     0.38112   0.59480   0.48709   0.00000  Uiso   1.00
C449   C     0.11888   0.40520   0.51291   0.00000  Uiso   1.00
C450   C     0.38112   0.40520   0.51296   0.00000  Uiso   1.00
C451   C     0.11888   0.59480   0.48704   0.00000  Uiso   1.00
C452   C     0.16348   0.50000   0.50000   0.00000  Uiso   1.00
C453   C     0.33652   0.50000   0.50000   0.00000  Uiso   1.00
C454   C     0.40647   0.54572   0.49295   0.00000  Uiso   1.00
C455   C     0.09353   0.45428   0.50705   0.00000  Uiso   1.00
C456   C     0.40647   0.45428   0.50708   0.00000  Uiso   1.00
C457   C     0.09353   0.54572   0.49292   0.00000  Uiso   1.00
C458   C     0.38400   0.50000   0.50001   0.00000  Uiso   1.00
H459   H     0.46087   0.37473   0.52364   0.00000  Uiso   1.00
H460   H     0.10852   0.37904   0.47991   0.00000  Uiso   1.00
H461   H     0.34456   0.40873   0.50967   0.00000  Uiso   1.00
H462   H     0.39147   0.37903   0.47996   0.00000  Uiso   1.00
H463   H     0.38819   0.38837   0.55368   0.00000  Uiso   1.00
H464   H     0.15544   0.59127   0.49033   0.00000  Uiso   1.00
H465   H     0.11181   0.61163   0.44632   0.00000  Uiso   1.00
H466   H     0.10853   0.62097   0.52004   0.00000  Uiso   1.00
H467   H     0.03913   0.62527   0.47636   0.00000  Uiso   1.00
H468   H     0.46087   0.62527   0.47638   0.00000  Uiso   1.00
H469   H     0.03913   0.37473   0.52362   0.00000  Uiso   1.00
H470   H     0.34456   0.59127   0.49039   0.00000  Uiso   1.00
H471   H     0.39148   0.62096   0.52009   0.00000  Uiso   1.00
H472   H     0.38818   0.61164   0.44637   0.00000  Uiso   1.00
H473   H     0.15544   0.40873   0.50961   0.00000  Uiso   1.00
H474   H     0.11182   0.38836   0.55363   0.00000  Uiso   1.00
N475   N     0.25000   0.50000   0.35788   0.00000  Uiso   1.00
N476   N     0.25000   0.50000   0.64212   0.00000  Uiso   1.00
O477   O     0.25000   0.42845   0.54562   0.00000  Uiso   1.00
O478   O     0.25000   0.57155   0.45438   0.00000  Uiso   1.00
O479   O     0.25000   0.57155   0.54562   0.00000  Uiso   1.00
O480   O     0.25000   0.42845   0.45438   0.00000  Uiso   1.00
O481   O     0.18392   0.50000   0.54563   0.00000  Uiso   1.00
O482   O     0.31607   0.50000   0.45437   0.00000  Uiso   1.00
O483   O     0.31607   0.50000   0.54563   0.00000  Uiso   1.00
O484   O     0.18392   0.50000   0.45437   0.00000  Uiso   1.00
Zn485  Zn    0.25000   0.50000   0.56093   0.00000  Uiso   1.00
Zn486  Zn    0.25000   0.50000   0.43907   0.00000  Uiso   1.00
C487   C     0.75000   0.40602   0.49999   0.00000  Uiso   1.00
C488   C     0.61599   0.50000   0.49999   0.00000  Uiso   1.00
C489   C     0.95315   0.45456   0.50797   0.00000  Uiso   1.00
C490   C     0.54685   0.54544   0.49203   0.00000  Uiso   1.00
C491   C     0.95315   0.54544   0.49205   0.00000  Uiso   1.00
C492   C     0.54685   0.45456   0.50795   0.00000  Uiso   1.00
C493   C     0.97652   0.50000   0.50000   0.00000  Uiso   1.00
C494   C     0.52348   0.50000   0.50000   0.00000  Uiso   1.00
C495   C     0.97707   0.41020   0.51656   0.00000  Uiso   1.00
C496   C     0.52293   0.58980   0.48344   0.00000  Uiso   1.00
C497   C     0.97707   0.58980   0.48345   0.00000  Uiso   1.00
C498   C     0.75000   0.59398   0.50001   0.00000  Uiso   1.00
C499   C     0.52293   0.41020   0.51655   0.00000  Uiso   1.00
C500   C     0.75000   0.35507   0.49998   0.00000  Uiso   1.00
C501   C     0.75000   0.64493   0.50002   0.00000  Uiso   1.00
C502   C     0.88112   0.59480   0.48709   0.00000  Uiso   1.00
C503   C     0.61888   0.40520   0.51291   0.00000  Uiso   1.00
C504   C     0.88112   0.40520   0.51296   0.00000  Uiso   1.00
C505   C     0.61888   0.59480   0.48704   0.00000  Uiso   1.00
C506   C     0.66348   0.50000   0.50000   0.00000  Uiso   1.00
C507   C     0.83652   0.50000   0.50000   0.00000  Uiso   1.00
C508   C     0.90647   0.54572   0.49295   0.00000  Uiso   1.00
C509   C     0.59353   0.45428   0.50705   0.00000  Uiso   1.00
C510   C     0.90647   0.45428   0.50708   0.00000  Uiso   1.00
C511   C     0.59353   0.54572   0.49292   0.00000  Uiso   1.00
C512   C     0.88400   0.50000   0.50001   0.00000  Uiso   1.00
H513   H     0.96087   0.37473   0.52364   0.00000  Uiso   1.00
H514   H     0.60852   0.37904   0.47991   0.00000  Uiso   1.00
H515   H     0.84456   0.40873   0.50967   0.00000  Uiso   1.00
H516   H     0.89147   0.37903   0.47996   0.00000  Uiso   1.00
H517   H     0.88819   0.38837   0.55368   0.00000  Uiso   1.00
H518   H     0.65544   0.59127   0.49033   0.00000  Uiso   1.00
H519   H     0.61181   0.61163   0.44632   0.00000  Uiso   1.00
H520   H     0.60853   0.62097   0.52004   0.00000  Uiso   1.00
H521   H     0.53913   0.62527   0.47636   0.00000  Uiso   1.00
H522   H     0.96087   0.62527   0.47638   0.00000  Uiso   1.00
H523   H     0.53913   0.37473   0.52362   0.00000  Uiso   1.00
H524   H     0.84456   0.59127   0.49039   0.00000  Uiso   1.00
H525   H     0.89148   0.62096   0.52009   0.00000  Uiso   1.00
H526   H     0.88818   0.61164   0.44637   0.00000  Uiso   1.00
H527   H     0.65544   0.40873   0.50961   0.00000  Uiso   1.00
H528   H     0.61182   0.38836   0.55363   0.00000  Uiso   1.00
N529   N     0.75000   0.50000   0.35788   0.00000  Uiso   1.00
N530   N     0.75000   0.50000   0.64212   0.00000  Uiso   1.00
O531   O     0.75000   0.42845   0.54562   0.00000  Uiso   1.00
O532   O     0.75000   0.57155   0.45438   0.00000  Uiso   1.00
O533   O     0.75000   0.57155   0.54562   0.00000  Uiso   1.00
O534   O     0.75000   0.42845   0.45438   0.00000  Uiso   1.00
O535   O     0.68392   0.50000   0.54563   0.00000  Uiso   1.00
O536   O     0.81607   0.50000   0.45437   0.00000  Uiso   1.00
O537   O     0.81607   0.50000   0.54563   0.00000  Uiso   1.00
O538   O     0.68392   0.50000   0.45437   0.00000  Uiso   1.00
Zn539  Zn    0.75000   0.50000   0.56093   0.00000  Uiso   1.00
Zn540  Zn    0.75000   0.50000   0.43907   0.00000  Uiso   1.00
C541   C     0.25000   0.73936   0.49999   0.00000  Uiso   1.00
C542   C     0.11599   0.83333   0.49999   0.00000  Uiso   1.00
C543   C     0.45315   0.78789   0.50797   0.00000  Uiso   1.00
C544   C     0.04685   0.87878   0.49203   0.00000  Uiso   1.00
C545   C     0.45315   0.87878   0.49205   0.00000  Uiso   1.00
C546   C     0.04685   0.78789   0.50795   0.00000  Uiso   1.00
C547   C     0.47652   0.83333   0.50000   0.00000  Uiso   1.00
C548   C     0.02348   0.83333   0.50000   0.00000  Uiso   1.00
C549   C     0.47707   0.74354   0.51656   0.00000  Uiso   1.00
C550   C     0.02293   0.92313   0.48344   0.00000  Uiso   1.00
C551   C     0.47707   0.92313   0.48345   0.00000  Uiso   1.00
C552   C     0.25000   0.92731   0.50001   0.00000  Uiso   1.00
C553   C     0.02293   0.74354   0.51655   0.00000  Uiso   1.00
C554   C     0.25000   0.68841   0.49998   0.00000  Uiso   1.00
C555   C     0.25000   0.97826   0.50002   0.00000  Uiso   1.00
C556   C     0.38112   0.92813   0.48709   0.00000  Uiso   1.00
C557   C     0.11888   0.73854   0.51291   0.00000  Uiso   1.00
C558   C     0.38112   0.73854   0.51296   0.00000  Uiso   1.00
C559   C     0.11888   0.92813   0.48704   0.00000  Uiso   1.00
C560   C     0.16348   0.83333   0.50000   0.00000  Uiso   1.00
C561   C     0.33652   0.83334   0.50000   0.00000  Uiso   1.00
C562   C     0.40647   0.87905   0.49295   0.00000  Uiso   1.00
C563   C     0.09353   0.78762   0.50705   0.00000  Uiso   1.00
C564   C     0.40647   0.78762   0.50708   0.00000  Uiso   1.00
C565   C     0.09353   0.87905   0.49292   0.00000  Uiso   1.00
C566   C     0.38400   0.83333   0.50001   0.00000  Uiso   1.00
H567   H     0.46087   0.70807   0.52364   0.00000  Uiso   1.00
H568   H     0.10852   0.71238   0.47991   0.00000  Uiso   1.00
H569   H     0.34456   0.74206   0.50967   0.00000  Uiso   1.00
H570   H     0.39147   0.71237   0.47996   0.00000  Uiso   1.00
H571   H     0.38819   0.72170   0.55368   0.00000  Uiso   1.00
H572   H     0.15544   0.92460   0.49033   0.00000  Uiso   1.00
H573   H     0.11181   0.94497   0.44632   0.00000  Uiso   1.00
H574   H     0.10853   0.95430   0.52004   0.00000  Uiso   1.00
H575   H     0.03913   0.95860   0.47636   0.00000  Uiso   1.00
H576   H     0.46087   0.95860   0.47638   0.00000  Uiso   1.00
H577   H     0.03913   0.70806   0.52362   0.00000  Uiso   1.00
H578   H     0.34456   0.92460   0.49039   0.00000  Uiso   1.00
H579   H     0.39148   0.95429   0.52009   0.00000  Uiso   1.00
H580   H     0.38818   0.94497   0.44637   0.00000  Uiso   1.00
H581   H     0.15544   0.74207   0.50961   0.00000  Uiso   1.00
H582   H     0.11182   0.72169   0.55363   0.00000  Uiso   1.00
N583   N     0.25000   0.83333   0.35788   0.00000  Uiso   1.00
N584   N     0.25000   0.83333   0.64212   0.00000  Uiso   1.00
O585   O     0.25000   0.76178   0.54562   0.00000  Uiso   1.00
O586   O     0.25000   0.90488   0.45438   0.00000  Uiso   1.00
O587   O     0.25000   0.90488   0.54562   0.00000  Uiso   1.00
O588   O     0.25000   0.76178   0.45438   0.00000  Uiso   1.00
O589   O     0.18392   0.83333   0.54563   0.00000  Uiso   1.00
O590   O     0.31607   0.83333   0.45437   0.00000  Uiso   1.00
O591   O     0.31607   0.83333   0.54563   0.00000  Uiso   1.00
O592   O     0.18392   0.83333   0.45437   0.00000  Uiso   1.00
Zn593  Zn    0.25000   0.83333   0.56093   0.00000  Uiso   1.00
Zn594  Zn    0.25000   0.83333   0.43907   0.00000  Uiso   1.00
C595   C     0.75000   0.73936   0.49999   0.00000  Uiso   1.00
C596   C     0.61599   0.83333   0.49999   0.00000  Uiso   1.00
C597   C     0.95315   0.78789   0.50797   0.00000  Uiso   1.00
C598   C     0.54685   0.87878   0.49203   0.00000  Uiso   1.00
C599   C     0.95315   0.87878   0.49205   0.00000  Uiso   1.00
C600   C     0.54685   0.78789   0.50795   0.00000  Uiso   1.00
C601   C     0.97652   0.83333   0.50000   0.00000  Uiso   1.00
C602   C     0.52348   0.83333   0.50000   0.00000  Uiso   1.00
C603   C     0.97707   0.74354   0.51656   0.00000  Uiso   1.00
C604   C     0.52293   0.92313   0.48344   0.00000  Uiso   1.00
C605   C     0.97707   0.92313   0.48345   0.00000  Uiso   1.00
C606   C     0.75000   0.92731   0.50001   0.00000  Uiso   1.00
C607   C     0.52293   0.74354   0.51655   0.00000  Uiso   1.00
C608   C     0.75000   0.68841   0.49998   0.00000  Uiso   1.00
C609   C     0.75000   0.97826   0.50002   0.00000  Uiso   1.00
C610   C     0.88112   0.92813   0.48709   0.00000  Uiso   1.00
C611   C     0.61888   0.73854   0.51291   0.00000  Uiso   1.00
C612   C     0.88112   0.73854   0.51296   0.00000  Uiso   1.00
C613   C     0.61888   0.92813   0.48704   0.00000  Uiso   1.00
C614   C     0.66348   0.83333   0.50000   0.00000  Uiso   1.00
C615   C     0.83652   0.83334   0.50000   0.00000  Uiso   1.00
C616   C     0.90647   0.87905   0.49295   0.00000  Uiso   1.00
C617   C     0.59353   0.78762   0.50705   0.00000  Uiso   1.00
C618   C     0.90647   0.78762   0.50708   0.00000  Uiso   1.00
C619   C     0.59353   0.87905   0.49292   0.00000  Uiso   1.00
C620   C     0.88400   0.83333   0.50001   0.00000  Uiso   1.00
H621   H     0.96087   0.70807   0.52364   0.00000  Uiso   1.00
H622   H     0.60852   0.71238   0.47991   0.00000  Uiso   1.00
H623   H     0.84456   0.74206   0.50967   0.00000  Uiso   1.00
H624   H     0.89147   0.71237   0.47996   0.00000  Uiso   1.00
H625   H     0.88819   0.72170   0.55368   0.00000  Uiso   1.00
H626   H     0.65544   0.92460   0.49033   0.00000  Uiso   1.00
H627   H     0.61181   0.94497   0.44632   0.00000  Uiso   1.00
H628   H     0.60853   0.95430   0.52004   0.00000  Uiso   1.00
H629   H     0.53913   0.95860   0.47636   0.00000  Uiso   1.00
H630   H     0.96087   0.95860   0.47638   0.00000  Uiso   1.00
H631   H     0.53913   0.70806   0.52362   0.00000  Uiso   1.00
H632   H     0.84456   0.92460   0.49039   0.00000  Uiso   1.00
H633   H     0.89148   0.95429   0.52009   0.00000  Uiso   1.00
H634   H     0.88818   0.94497   0.44637   0.00000  Uiso   1.00
H635   H     0.65544   0.74207   0.50961   0.00000  Uiso   1.00
H636   H     0.61182   0.72169   0.55363   0.00000  Uiso   1.00
N637   N     0.75000   0.83333   0.35788   0.00000  Uiso   1.00
N638   N     0.75000   0.83333   0.64212   0.00000  Uiso   1.00
O639   O     0.75000   0.76178   0.54562   0.00000  Uiso   1.00
O640   O     0.75000   0.90488   0.45438   0.00000  Uiso   1.00
O641   O     0.75000   0.90488   0.54562   0.00000  Uiso   1.00
O642   O     0.75000   0.76178   0.45438   0.00000  Uiso   1.00
O643   O     0.68392   0.83333   0.54563   0.00000  Uiso   1.00
O644   O     0.81607   0.83333   0.45437   0.00000  Uiso   1.00
O645   O     0.81607   0.83333   0.54563   0.00000  Uiso   1.00
O646   O     0.68392   0.83333   0.45437   0.00000  Uiso   1.00
Zn647  Zn    0.75000   0.83333   0.56093   0.00000  Uiso   1.00
Zn648  Zn    0.75000   0.83333   0.43907   0.00000  Uiso   1.00
C649   C     0.25000   0.07269   0.83332   0.00000  Uiso   1.00
C650   C     0.11599   0.16667   0.83332   0.00000  Uiso   1.00
C651   C     0.45315   0.12122   0.84130   0.00000  Uiso   1.00
C652   C     0.04685   0.21211   0.82536   0.00000  Uiso   1.00
C653   C     0.45315   0.21211   0.82538   0.00000  Uiso   1.00
C654   C     0.04685   0.12122   0.84129   0.00000  Uiso   1.00
C655   C     0.47652   0.16667   0.83334   0.00000  Uiso   1.00
C656   C     0.02348   0.16667   0.83333   0.00000  Uiso   1.00
C657   C     0.47707   0.07687   0.84989   0.00000  Uiso   1.00
C658   C     0.02293   0.25646   0.81677   0.00000  Uiso   1.00
C659   C     0.47707   0.25646   0.81678   0.00000  Uiso   1.00
C660   C     0.25000   0.26064   0.83335   0.00000  Uiso   1.00
C661   C     0.02293   0.07687   0.84988   0.00000  Uiso   1.00
C662   C     0.25000   0.02174   0.83332   0.00000  Uiso   1.00
C663   C     0.25000   0.31159   0.83335   0.00000  Uiso   1.00
C664   C     0.38112   0.26146   0.82042   0.00000  Uiso   1.00
C665   C     0.11888   0.07187   0.84625   0.00000  Uiso   1.00
C666   C     0.38112   0.07187   0.84629   0.00000  Uiso   1.00
C667   C     0.11888   0.26146   0.82037   0.00000  Uiso   1.00
C668   C     0.16348   0.16666   0.83333   0.00000  Uiso   1.00
C669   C     0.33652   0.16667   0.83334   0.00000  Uiso   1.00
C670   C     0.40647   0.21238   0.82628   0.00000  Uiso   1.00
C671   C     0.09353   0.12095   0.84039   0.00000  Uiso   1.00
C672   C     0.40647   0.12095   0.84041   0.00000  Uiso   1.00
C673   C     0.09353   0.21238   0.82625   0.00000  Uiso   1.00
C674   C     0.38400   0.16667   0.83334   0.00000  Uiso   1.00
H675   H     0.46087   0.04140   0.85698   0.00000  Uiso   1.00
H676   H     0.10852   0.04571   0.81324   0.00000  Uiso   1.00
H677   H     0.34456   0.07540   0.84300   0.00000  Uiso   1.00
H678   H     0.39147   0.04570   0.81329   0.00000  Uiso   1.00
H679   H     0.38819   0.05503   0.88702   0.00000  Uiso   1.00
H680   H     0.15544   0.25794   0.82366   0.00000  Uiso   1.00
H681   H     0.11181   0.27830   0.77965   0.00000  Uiso   1.00
H682   H     0.10853   0.28763   0.85338   0.00000  Uiso   1.00
H683   H     0.03913   0.29193   0.80969   0.00000  Uiso   1.00
H684   H     0.46087   0.29194   0.80971   0.00000  Uiso   1.00
H685   H     0.03913   0.04140   0.85696   0.00000  Uiso   1.00
H686   H     0.34456   0.25793   0.82372   0.00000  Uiso   1.00
H687   H     0.39148   0.28762   0.85343   0.00000  Uiso   1.00
H688   H     0.38818   0.27831   0.77970   0.00000  Uiso   1.00
H689   H     0.15544   0.07540   0.84294   0.00000  Uiso   1.00
H690   H     0.11182   0.05503   0.88696   0.00000  Uiso   1.00
N691   N     0.25000   0.16667   0.69121   0.00000  Uiso   1.00
N692   N     0.25000   0.16667   0.97545   0.00000  Uiso   1.00
O693   O     0.25000   0.09512   0.87895   0.00000  Uiso   1.00
O694   O     0.25000   0.23822   0.78772   0.00000  Uiso   1.00
O695   O     0.25000   0.23822   0.87895   0.00000  Uiso   1.00
O696   O     0.25000   0.09512   0.78772   0.00000  Uiso   1.00
O697   O     0.18392   0.16667   0.87896   0.00000  Uiso   1.00
O698   O     0.31607   0.16667   0.78770   0.00000  Uiso   1.00
O699   O     0.31607   0.16667   0.87896   0.00000  Uiso   1.00
O700   O     0.18392   0.16667   0.78770   0.00000  Uiso   1.00
Zn701  Zn    0.25000   0.16667   0.89426   0.00000  Uiso   1.00
Zn702  Zn    0.25000   0.16667   0.77241   0.00000  Uiso   1.00
C703   C     0.75000   0.07269   0.83332   0.00000  Uiso   1.00
C704   C     0.61599   0.16667   0.83332   0.00000  Uiso   1.00
C705   C     0.95315   0.12122   0.84130   0.00000  Uiso   1.00
C706   C     0.54685   0.21211   0.82536   0.00000  Uiso   1.00
C707   C     0.95315   0.21211   0.82538   0.00000  Uiso   1.00
C708   C     0.54685   0.12122   0.84129   0.00000  Uiso   1.00
C709   C     0.97652   0.16667   0.83334   0.00000  Uiso   1.00
C710   C     0.52348   0.16667   0.83333   0.00000  Uiso   1.00
C711   C     0.97707   0.07687   0.84989   0.00000  Uiso   1.00
C712   C     0.52293   0.25646   0.81677   0.00000  Uiso   1.00
C713   C     0.97707   0.25646   0.81678   0.00000  Uiso   1.00
C714   C     0.75000   0.26064   0.83335   0.00000  Uiso   1.00
C715   C     0.52293   0.07687   0.84988   0.00000  Uiso   1.00
C716   C     0.75000   0.02174   0.83332   0.00000  Uiso   1.00
C717   C     0.75000   0.31159   0.83335   0.00000  Uiso   1.00
C718   C     0.88112   0.26146   0.82042   0.00000  Uiso   1.00
C719   C     0.61888   0.07187   0.84625   0.00000  Uiso   1.00
C720   C     0.88112   0.07187   0.84629   0.00000  Uiso   1.00
C721   C     0.61888   0.26146   0.82037   0.00000  Uiso   1.00
C722   C     0.66348   0.16666   0.83333   0.00000  Uiso   1.00
C723   C     0.83652   0.16667   0.83334   0.00000  Uiso   1.00
C724   C     0.90647   0.21238   0.82628   0.00000  Uiso   1.00
C725   C     0.59353   0.12095   0.84039   0.00000  Uiso   1.00
C726   C     0.90647   0.12095   0.84041   0.00000  Uiso   1.00
C727   C     0.59353   0.21238   0.82625   0.00000  Uiso   1.00
C728   C     0.88400   0.16667   0.83334   0.00000  Uiso   1.00
H729   H     0.96087   0.04140   0.85698   0.00000  Uiso   1.00
H730   H     0.60852   0.04571   0.81324   0.00000  Uiso   1.00
H731   H     0.84456   0.07540   0.84300   0.00000  Uiso   1.00
H732   H     0.89147   0.04570   0.81329   0.00000  Uiso   1.00
H733   H     0.88819   0.05503   0.88702   0.00000  Uiso   1.00
H734   H     0.65544   0.25794   0.82366   0.00000  Uiso   1.00
H735   H     0.61181   0.27830   0.77965   0.00000  Uiso   1.00
H736   H     0.60853   0.28763   0.85338   0.00000  Uiso   1.00
H737   H     0.53913   0.29193   0.80969   0.00000  Uiso   1.00
H738   H     0.96087   0.29194   0.80971   0.00000  Uiso   1.00
H739   H     0.53913   0.04140   0.85696   0.00000  Uiso   1.00
H740   H     0.84456   0.25793   0.82372   0.00000  Uiso   1.00
H741   H     0.89148   0.28762   0.85343   0.00000  Uiso   1.00
H742   H     0.88818   0.27831   0.77970   0.00000  Uiso   1.00
H743   H     0.65544   0.07540   0.84294   0.00000  Uiso   1.00
H744   H     0.61182   0.05503   0.88696   0.00000  Uiso   1.00
N745   N     0.75000   0.16667   0.69121   0.00000  Uiso   1.00
N746   N     0.75000   0.16667   0.97545   0.00000  Uiso   1.00
O747   O     0.75000   0.09512   0.87895   0.00000  Uiso   1.00
O748   O     0.75000   0.23822   0.78772   0.00000  Uiso   1.00
O749   O     0.75000   0.23822   0.87895   0.00000  Uiso   1.00
O750   O     0.75000   0.09512   0.78772   0.00000  Uiso   1.00
O751   O     0.68392   0.16667   0.87896   0.00000  Uiso   1.00
O752   O     0.81607   0.16667   0.78770   0.00000  Uiso   1.00
O753   O     0.81607   0.16667   0.87896   0.00000  Uiso   1.00
O754   O     0.68392   0.16667   0.78770   0.00000  Uiso   1.00
Zn755  Zn    0.75000   0.16667   0.89426   0.00000  Uiso   1.00
Zn756  Zn    0.75000   0.16667   0.77241   0.00000  Uiso   1.00
C757   C     0.25000   0.40602   0.83332   0.00000  Uiso   1.00
C758   C     0.11599   0.50000   0.83332   0.00000  Uiso   1.00
C759   C     0.45315   0.45456   0.84130   0.00000  Uiso   1.00
C760   C     0.04685   0.54544   0.82536   0.00000  Uiso   1.00
C761   C     0.45315   0.54544   0.82538   0.00000  Uiso   1.00
C762   C     0.04685   0.45456   0.84129   0.00000  Uiso   1.00
C763   C     0.47652   0.50000   0.83334   0.00000  Uiso   1.00
C764   C     0.02348   0.50000   0.83333   0.00000  Uiso   1.00
C765   C     0.47707   0.41020   0.84989   0.00000  Uiso   1.00
C766   C     0.02293   0.58980   0.81677   0.00000  Uiso   1.00
C767   C     0.47707   0.58980   0.81678   0.00000  Uiso   1.00
C768   C     0.25000   0.59398   0.83335   0.00000  Uiso   1.00
C769   C     0.02293   0.41020   0.84988   0.00000  Uiso   1.00
C770   C     0.25000   0.35507   0.83332   0.00000  Uiso   1.00
C771   C     0.25000   0.64493   0.83335   0.00000  Uiso   1.00
C772   C     0.38112   0.59480   0.82042   0.00000  Uiso   1.00
C773   C     0.11888   0.40520   0.84625   0.00000  Uiso   1.00
C774   C     0.38112   0.40520   0.84629   0.00000  Uiso   1.00
C775   C     0.11888   0.59480   0.82037   0.00000  Uiso   1.00
C776   C     0.16348   0.50000   0.83333   0.00000  Uiso   1.00
C777   C     0.33652   0.50000   0.83334   0.00000  Uiso   1.00
C778   C     0.40647   0.54572   0.82628   0.00000  Uiso   1.00
C779   C     0.09353   0.45428   0.84039   0.00000  Uiso   1.00
C780   C     0.40647   0.45428   0.84041   0.00000  Uiso   1.00
C781   C     0.09353   0.54572   0.82625   0.00000  Uiso   1.00
C782   C     0.38400   0.50000   0.83334   0.00000  Uiso   1.00
H783   H     0.46087   0.37473   0.85698   0.00000  Uiso   1.00
H784   H     0.10852   0.37904   0.81324   0.00000  Uiso   1.00
H785   H     0.34456   0.40873   0.84300   0.00000  Uiso   1.00
H786   H     0.39147   0.37903   0.81329   0.00000  Uiso   1.00
H787   H     0.38819   0.38837   0.88702   0.00000  Uiso   1.00
H788   H     0.15544   0.59127   0.82366   0.00000  Uiso   1.00
H789   H     0.11181   0.61163   0.77965   0.00000  Uiso   1.00
H790   H     0.10853   0.62097   0.85338   0.00000  Uiso   1.00
H791   H     0.03913   0.62527   0.80969   0.00000  Uiso   1.00
H792   H     0.46087   0.62527   0.80971   0.00000  Uiso   1.00
H793   H     0.03913   0.37473   0.85696   0.00000  Uiso   1.00
H794   H     0.34456   0.59127   0.82372   0.00000  Uiso   1.00
H795   H     0.39148   0.62096   0.85343   0.00000  Uiso   1.00
H796   H     0.38818   0.61164   0.77970   0.00000  Uiso   1.00
H797   H     0.15544   0.40873   0.84294   0.00000  Uiso   1.00
H798   H     0.11182   0.38836   0.88696   0.00000  Uiso   1.00
N799   N     0.25000   0.50000   0.69121   0.00000  Uiso   1.00
N800   N     0.25000   0.50000   0.97545   0.00000  Uiso   1.00
O801   O     0.25000   0.42845   0.87895   0.00000  Uiso   1.00
O802   O     0.25000   0.57155   0.78772   0.00000  Uiso   1.00
O803   O     0.25000   0.57155   0.87895   0.00000  Uiso   1.00
O804   O     0.25000   0.42845   0.78772   0.00000  Uiso   1.00
O805   O     0.18392   0.50000   0.87896   0.00000  Uiso   1.00
O806   O     0.31607   0.50000   0.78770   0.00000  Uiso   1.00
O807   O     0.31607   0.50000   0.87896   0.00000  Uiso   1.00
O808   O     0.18392   0.50000   0.78770   0.00000  Uiso   1.00
Zn809  Zn    0.25000   0.50000   0.89426   0.00000  Uiso   1.00
Zn810  Zn    0.25000   0.50000   0.77241   0.00000  Uiso   1.00
C811   C     0.75000   0.40602   0.83332   0.00000  Uiso   1.00
C812   C     0.61599   0.50000   0.83332   0.00000  Uiso   1.00
C813   C     0.95315   0.45456   0.84130   0.00000  Uiso   1.00
C814   C     0.54685   0.54544   0.82536   0.00000  Uiso   1.00
C815   C     0.95315   0.54544   0.82538   0.00000  Uiso   1.00
C816   C     0.54685   0.45456   0.84129   0.00000  Uiso   1.00
C817   C     0.97652   0.50000   0.83334   0.00000  Uiso   1.00
C818   C     0.52348   0.50000   0.83333   0.00000  Uiso   1.00
C819   C     0.97707   0.41020   0.84989   0.00000  Uiso   1.00
C820   C     0.52293   0.58980   0.81677   0.00000  Uiso   1.00
C821   C     0.97707   0.58980   0.81678   0.00000  Uiso   1.00
C822   C     0.75000   0.59398   0.83335   0.00000  Uiso   1.00
C823   C     0.52293   0.41020   0.84988   0.00000  Uiso   1.00
C824   C     0.75000   0.35507   0.83332   0.00000  Uiso   1.00
C825   C     0.75000   0.64493   0.83335   0.00000  Uiso   1.00
C826   C     0.88112   0.59480   0.82042   0.00000  Uiso   1.00
C827   C     0.61888   0.40520   0.84625   0.00000  Uiso   1.00
C828   C     0.88112   0.40520   0.84629   0.00000  Uiso   1.00
C829   C     0.61888   0.59480   0.82037   0.00000  Uiso   1.00
C830   C     0.66348   0.50000   0.83333   0.00000  Uiso   1.00
C831   C     0.83652   0.50000   0.83334   0.00000  Uiso   1.00
C832   C     0.90647   0.54572   0.82628   0.00000  Uiso   1.00
C833   C     0.59353   0.45428   0.84039   0.00000  Uiso   1.00
C834   C     0.90647   0.45428   0.84041   0.00000  Uiso   1.00
C835   C     0.59353   0.54572   0.82625   0.00000  Uiso   1.00
C836   C     0.88400   0.50000   0.83334   0.00000  Uiso   1.00
H837   H     0.96087   0.37473   0.85698   0.00000  Uiso   1.00
H838   H     0.60852   0.37904   0.81324   0.00000  Uiso   1.00
H839   H     0.84456   0.40873   0.84300   0.00000  Uiso   1.00
H840   H     0.89147   0.37903   0.81329   0.00000  Uiso   1.00
H841   H     0.88819   0.38837   0.88702   0.00000  Uiso   1.00
H842   H     0.65544   0.59127   0.82366   0.00000  Uiso   1.00
H843   H     0.61181   0.61163   0.77965   0.00000  Uiso   1.00
H844   H     0.60853   0.62097   0.85338   0.00000  Uiso   1.00
H845   H     0.53913   0.62527   0.80969   0.00000  Uiso   1.00
H846   H     0.96087   0.62527   0.80971   0.00000  Uiso   1.00
H847   H     0.53913   0.37473   0.85696   0.00000  Uiso   1.00
H848   H     0.84456   0.59127   0.82372   0.00000  Uiso   1.00
H849   H     0.89148   0.62096   0.85343   0.00000  Uiso   1.00
H850   H     0.88818   0.61164   0.77970   0.00000  Uiso   1.00
H851   H     0.65544   0.40873   0.84294   0.00000  Uiso   1.00
H852   H     0.61182   0.38836   0.88696   0.00000  Uiso   1.00
N853   N     0.75000   0.50000   0.69121   0.00000  Uiso   1.00
N854   N     0.75000   0.50000   0.97545   0.00000  Uiso   1.00
O855   O     0.75000   0.42845   0.87895   0.00000  Uiso   1.00
O856   O     0.75000   0.57155   0.78772   0.00000  Uiso   1.00
O857   O     0.75000   0.57155   0.87895   0.00000  Uiso   1.00
O858   O     0.75000   0.42845   0.78772   0.00000  Uiso   1.00
O859   O     0.68392   0.50000   0.87896   0.00000  Uiso   1.00
O860   O     0.81607   0.50000   0.78770   0.00000  Uiso   1.00
O861   O     0.81607   0.50000   0.87896   0.00000  Uiso   1.00
O862   O     0.68392   0.50000   0.78770   0.00000  Uiso   1.00
Zn863  Zn    0.75000   0.50000   0.89426   0.00000  Uiso   1.00
Zn864  Zn    0.75000   0.50000   0.77241   0.00000  Uiso   1.00
C865   C     0.25000   0.73936   0.83332   0.00000  Uiso   1.00
C866   C     0.11599   0.83333   0.83332   0.00000  Uiso   1.00
C867   C     0.45315   0.78789   0.84130   0.00000  Uiso   1.00
C868   C     0.04685   0.87878   0.82536   0.00000  Uiso   1.00
C869   C     0.45315   0.87878   0.82538   0.00000  Uiso   1.00
C870   C     0.04685   0.78789   0.84129   0.00000  Uiso   1.00
C871   C     0.47652   0.83333   0.83334   0.00000  Uiso   1.00
C872   C     0.02348   0.83333   0.83333   0.00000  Uiso   1.00
C873   C     0.47707   0.74354   0.84989   0.00000  Uiso   1.00
C874   C     0.02293   0.92313   0.81677   0.00000  Uiso   1.00
C875   C     0.47707   0.92313   0.81678   0.00000  Uiso   1.00
C876   C     0.25000   0.92731   0.83335   0.00000  Uiso   1.00
C877   C     0.02293   0.74354   0.84988   0.00000  Uiso   1.00
C878   C     0.25000   0.68841   0.83332   0.00000  Uiso   1.00
C879   C     0.25000   0.97826   0.83335   0.00000  Uiso   1.00
C880   C     0.38112   0.92813   0.82042   0.00000  Uiso   1.00
C881   C     0.11888   0.73854   0.84625   0.00000  Uiso   1.00
C882   C     0.38112   0.73854   0.84629   0.00000  Uiso   1.00
C883   C     0.11888   0.92813   0.82037   0.00000  Uiso   1.00
C884   C     0.16348   0.83333   0.83333   0.00000  Uiso   1.00
C885   C     0.33652   0.83334   0.83334   0.00000  Uiso   1.00
C886   C     0.40647   0.87905   0.82628   0.00000  Uiso   1.00
C887   C     0.09353   0.78762   0.84039   0.00000  Uiso   1.00
C888   C     0.40647   0.78762   0.84041   0.00000  Uiso   1.00
C889   C     0.09353   0.87905   0.82625   0.00000  Uiso   1.00
C890   C     0.38400   0.83333   0.83334   0.00000  Uiso   1.00
H891   H     0.46087   0.70807   0.85698   0.00000  Uiso   1.00
H892   H     0.10852   0.71238   0.81324   0.00000  Uiso   1.00
H893   H     0.34456   0.74206   0.84300   0.00000  Uiso   1.00
H894   H     0.39147   0.71237   0.81329   0.00000  Uiso   1.00
H895   H     0.38819   0.72170   0.88702   0.00000  Uiso   1.00
H896   H     0.15544   0.92460   0.82366   0.00000  Uiso   1.00
H897   H     0.11181   0.94497   0.77965   0.00000  Uiso   1.00
H898   H     0.10853   0.95430   0.85338   0.00000  Uiso   1.00
H899   H     0.03913   0.95860   0.80969   0.00000  Uiso   1.00
H900   H     0.46087   0.95860   0.80971   0.00000  Uiso   1.00
H901   H     0.03913   0.70806   0.85696   0.00000  Uiso   1.00
H902   H     0.34456   0.92460   0.82372   0.00000  Uiso   1.00
H903   H     0.39148   0.95429   0.85343   0.00000  Uiso   1.00
H904   H     0.38818   0.94497   0.77970   0.00000  Uiso   1.00
H905   H     0.15544   0.74207   0.84294   0.00000  Uiso   1.00
H906   H     0.11182   0.72169   0.88696   0.00000  Uiso   1.00
N907   N     0.25000   0.83333   0.69121   0.00000  Uiso   1.00
N908   N     0.25000   0.83333   0.97545   0.00000  Uiso   1.00
O909   O     0.25000   0.76178   0.87895   0.00000  Uiso   1.00
O910   O     0.25000   0.90488   0.78772   0.00000  Uiso   1.00
O911   O     0.25000   0.90488   0.87895   0.00000  Uiso   1.00
O912   O     0.25000   0.76178   0.78772   0.00000  Uiso   1.00
O913   O     0.18392   0.83333   0.87896   0.00000  Uiso   1.00
O914   O     0.31607   0.83333   0.78770   0.00000  Uiso   1.00
O915   O     0.31607   0.83333   0.87896   0.00000  Uiso   1.00
O916   O     0.18392   0.83333   0.78770   0.00000  Uiso   1.00
Zn917  Zn    0.25000   0.83333   0.89426   0.00000  Uiso   1.00
Zn918  Zn    0.25000   0.83333   0.77241   0.00000  Uiso   1.00
C919   C     0.75000   0.73936   0.83332   0.00000  Uiso   1.00
C920   C     0.61599   0.83333   0.83332   0.00000  Uiso   1.00
C921   C     0.95315   0.78789   0.84130   0.00000  Uiso   1.00
C922   C     0.54685   0.87878   0.82536   0.00000  Uiso   1.00
C923   C     0.95315   0.87878   0.82538   0.00000  Uiso   1.00
C924   C     0.54685   0.78789   0.84129   0.00000  Uiso   1.00
C925   C     0.97652   0.83333   0.83334   0.00000  Uiso   1.00
C926   C     0.52348   0.83333   0.83333   0.00000  Uiso   1.00
C927   C     0.97707   0.74354   0.84989   0.00000  Uiso   1.00
C928   C     0.52293   0.92313   0.81677   0.00000  Uiso   1.00
C929   C     0.97707   0.92313   0.81678   0.00000  Uiso   1.00
C930   C     0.75000   0.92731   0.83335   0.00000  Uiso   1.00
C931   C     0.52293   0.74354   0.84988   0.00000  Uiso   1.00
C932   C     0.75000   0.68841   0.83332   0.00000  Uiso   1.00
C933   C     0.75000   0.97826   0.83335   0.00000  Uiso   1.00
C934   C     0.88112   0.92813   0.82042   0.00000  Uiso   1.00
C935   C     0.61888   0.73854   0.84625   0.00000  Uiso   1.00
C936   C     0.88112   0.73854   0.84629   0.00000  Uiso   1.00
C937   C     0.61888   0.92813   0.82037   0.00000  Uiso   1.00
C938   C     0.66348   0.83333   0.83333   0.00000  Uiso   1.00
C939   C     0.83652   0.83334   0.83334   0.00000  Uiso   1.00
C940   C     0.90647   0.87905   0.82628   0.00000  Uiso   1.00
C941   C     0.59353   0.78762   0.84039   0.00000  Uiso   1.00
C942   C     0.90647   0.78762   0.84041   0.00000  Uiso   1.00
C943   C     0.59353   0.87905   0.82625   0.00000  Uiso   1.00
C944   C     0.88400   0.83333   0.83334   0.00000  Uiso   1.00
H945   H     0.96087   0.70807   0.85698   0.00000  Uiso   1.00
H946   H     0.60852   0.71238   0.81324   0.00000  Uiso   1.00
H947   H     0.84456   0.74206   0.84300   0.00000  Uiso   1.00
H948   H     0.89147   0.71237   0.81329   0.00000  Uiso   1.00
H949   H     0.88819   0.72170   0.88702   0.00000  Uiso   1.00
H950   H     0.65544   0.92460   0.82366   0.00000  Uiso   1.00
H951   H     0.61181   0.94497   0.77965   0.00000  Uiso   1.00
H952   H     0.60853   0.95430   0.85338   0.00000  Uiso   1.00
H953   H     0.53913   0.95860   0.80969   0.00000  Uiso   1.00
H954   H     0.96087   0.95860   0.80971   0.00000  Uiso   1.00
H955   H     0.53913   0.70806   0.85696   0.00000  Uiso   1.00
H956   H     0.84456   0.92460   0.82372   0.00000  Uiso   1.00
H957   H     0.89148   0.95429   0.85343   0.00000  Uiso   1.00
H958   H     0.88818   0.94497   0.77970   0.00000  Uiso   1.00
H959   H     0.65544   0.74207   0.84294   0.00000  Uiso   1.00
H960   H     0.61182   0.72169   0.88696   0.00000  Uiso   1.00
N961   N     0.75000   0.83333   0.69121   0.00000  Uiso   1.00
N962   N     0.75000   0.83333   0.97545   0.00000  Uiso   1.00
O963   O     0.75000   0.76178   0.87895   0.00000  Uiso   1.00
O964   O     0.75000   0.90488   0.78772   0.00000  Uiso   1.00
O965   O     0.75000   0.90488   0.87895   0.00000  Uiso   1.00
O966   O     0.75000   0.76178   0.78772   0.00000  Uiso   1.00
O967   O     0.68392   0.83333   0.87896   0.00000  Uiso   1.00
O968   O     0.81607   0.83333   0.78770   0.00000  Uiso   1.00
O969   O     0.81607   0.83333   0.87896   0.00000  Uiso   1.00
O970   O     0.68392   0.83333   0.78770   0.00000  Uiso   1.00
Zn971  Zn    0.75000   0.83333   0.89426   0.00000  Uiso   1.00
Zn972  Zn    0.75000   0.83333   0.77241   0.00000  Uiso   1.00
loop_
_geom_bond_atom_site_label_1
_geom_bond_atom_site_label_2
_geom_bond_distance
_geom_bond_site_symmetry_2
_ccdc_geom_bond_type
C1     O48     1.263   .     A
C1     C14     1.364   .     S
C1     O45     1.263   .     A
C2     C25     1.408   .     A
C2     C20     1.426   .     S
C2     C23     1.408   .     A
C3     C9      1.403   .     A
C3     C24     1.402   .     A
C3     C7      1.418   .     A
C4     C8      1.418   .     A
C4     C25     1.402   .     A
C4     C10     1.403   .     A
C5     C11     1.403   .     A
C5     C7      1.418   .     A
C5     C22     1.402   .     A
C6     C13     1.403   .     A
C6     C23     1.402   .     A
C6     C8      1.418   .     A
C7     C62     1.411   .     S
C8     C61     1.411   1_455 S
C9     H27     1.081   .     S
C9     C67     1.377   .     S
C10    H35     1.081   .     S
C10    C65     1.377   1_455 S
C11    H36     1.081   .     S
C11    C64     1.377   .     S
C12    C15     1.364   .     S
C12    O47     1.263   .     A
C12    O46     1.263   .     A
C13    H37     1.081   .     S
C13    C63     1.377   1_455 S
C14    C231    1.164   1_545 S
C15    C122    1.164   .     S
C16    C22     1.525   .     S
C16    H40     1.110   .     S
C16    H39     1.110   .     S
C16    H38     1.105   .     S
C17    C23     1.525   .     S
C17    H41     1.105   .     S
C17    H42     1.110   .     S
C17    H28     1.110   .     S
C18    H29     1.105   .     S
C18    H30     1.110   .     S
C18    C24     1.525   .     S
C18    H31     1.110   .     S
C19    H33     1.110   .     S
C19    C25     1.525   .     S
C19    H32     1.105   .     S
C19    H34     1.110   .     S
C20    O49     1.270   .     A
C20    O52     1.270   .     A
C21    C26     1.426   .     S
C21    O51     1.270   .     A
C21    O50     1.270   .     A
C22    C26     1.408   .     A
C24    C26     1.408   .     A
N43    Zn54    1.978   .     S
N43    N692    1.196   1_554 S
N44    Zn53    1.978   .     S
N44    N367    1.196   .     S
O45    Zn53    1.951   .     S
O46    Zn54    1.951   .     S
O47    Zn53    1.951   .     S
O48    Zn54    1.951   .     S
O49    Zn53    2.019   .     S
O50    Zn54    2.019   .     S
O51    Zn53    2.019   .     S
O52    Zn54    2.019   .     S
C55    O102    1.263   .     A
C55    C68     1.364   .     S
C55    O99     1.263   .     A
C56    C79     1.408   .     A
C56    C74     1.426   .     S
C56    C77     1.408   .     A
C57    C63     1.403   .     A
C57    C78     1.402   .     A
C57    C61     1.418   .     A
C58    C62     1.418   .     A
C58    C79     1.402   .     A
C58    C64     1.403   .     A
C59    C65     1.403   .     A
C59    C61     1.418   .     A
C59    C76     1.402   .     A
C60    C67     1.403   .     A
C60    C77     1.402   .     A
C60    C62     1.418   .     A
C61    C8      1.411   1_655 S
C63    H81     1.081   .     S
C63    C13     1.377   1_655 S
C64    H89     1.081   .     S
C65    H90     1.081   .     S
C65    C10     1.377   1_655 S
C66    C69     1.364   .     S
C66    O101    1.263   .     A
C66    O100    1.263   .     A
C67    H91     1.081   .     S
C68    C285    1.164   1_545 S
C69    C176    1.164   .     S
C70    C76     1.525   .     S
C70    H94     1.110   .     S
C70    H93     1.110   .     S
C70    H92     1.105   .     S
C71    C77     1.525   .     S
C71    H95     1.105   .     S
C71    H96     1.110   .     S
C71    H82     1.110   .     S
C72    H83     1.105   .     S
C72    H84     1.110   .     S
C72    C78     1.525   .     S
C72    H85     1.110   .     S
C73    H87     1.110   .     S
C73    C79     1.525   .     S
C73    H86     1.105   .     S
C73    H88     1.110   .     S
C74    O103    1.270   .     A
C74    O106    1.270   .     A
C75    C80     1.426   .     S
C75    O105    1.270   .     A
C75    O104    1.270   .     A
C76    C80     1.408   .     A
C78    C80     1.408   .     A
N97    Zn108   1.978   .     S
N97    N746    1.196   1_554 S
N98    Zn107   1.978   .     S
N98    N421    1.196   .     S
O99    Zn107   1.951   .     S
O100   Zn108   1.951   .     S
O101   Zn107   1.951   .     S
O102   Zn108   1.951   .     S
O103   Zn107   2.019   .     S
O104   Zn108   2.019   .     S
O105   Zn107   2.019   .     S
O106   Zn108   2.019   .     S
C109   O156    1.263   .     A
C109   C122    1.364   .     S
C109   O153    1.263   .     A
C110   C133    1.408   .     A
C110   C128    1.426   .     S
C110   C131    1.408   .     A
C111   C117    1.403   .     A
C111   C132    1.402   .     A
C111   C115    1.418   .     A
C112   C116    1.418   .     A
C112   C133    1.402   .     A
C112   C118    1.403   .     A
C113   C119    1.403   .     A
C113   C115    1.418   .     A
C113   C130    1.402   .     A
C114   C121    1.403   .     A
C114   C131    1.402   .     A
C114   C116    1.418   .     A
C115   C170    1.411   .     S
C116   C169    1.411   1_455 S
C117   H135    1.081   .     S
C117   C175    1.377   .     S
C118   H143    1.081   .     S
C118   C173    1.377   1_455 S
C119   H144    1.081   .     S
C119   C172    1.377   .     S
C120   C123    1.364   .     S
C120   O155    1.263   .     A
C120   O154    1.263   .     A
C121   H145    1.081   .     S
C121   C171    1.377   1_455 S
C123   C230    1.164   .     S
C124   C130    1.525   .     S
C124   H148    1.110   .     S
C124   H147    1.110   .     S
C124   H146    1.105   .     S
C125   C131    1.525   .     S
C125   H149    1.105   .     S
C125   H150    1.110   .     S
C125   H136    1.110   .     S
C126   H137    1.105   .     S
C126   H138    1.110   .     S
C126   C132    1.525   .     S
C126   H139    1.110   .     S
C127   H141    1.110   .     S
C127   C133    1.525   .     S
C127   H140    1.105   .     S
C127   H142    1.110   .     S
C128   O157    1.270   .     A
C128   O160    1.270   .     A
C129   C134    1.426   .     S
C129   O159    1.270   .     A
C129   O158    1.270   .     A
C130   C134    1.408   .     A
C132   C134    1.408   .     A
N151   Zn162   1.978   .     S
N151   N800    1.196   1_554 S
N152   Zn161   1.978   .     S
N152   N475    1.196   .     S
O153   Zn161   1.951   .     S
O154   Zn162   1.951   .     S
O155   Zn161   1.951   .     S
O156   Zn162   1.951   .     S
O157   Zn161   2.019   .     S
O158   Zn162   2.019   .     S
O159   Zn161   2.019   .     S
O160   Zn162   2.019   .     S
C163   O210    1.263   .     A
C163   C176    1.364   .     S
C163   O207    1.263   .     A
C164   C187    1.408   .     A
C164   C182    1.426   .     S
C164   C185    1.408   .     A
C165   C171    1.403   .     A
C165   C186    1.402   .     A
C165   C169    1.418   .     A
C166   C170    1.418   .     A
C166   C187    1.402   .     A
C166   C172    1.403   .     A
C167   C173    1.403   .     A
C167   C169    1.418   .     A
C167   C184    1.402   .     A
C168   C175    1.403   .     A
C168   C185    1.402   .     A
C168   C170    1.418   .     A
C169   C116    1.411   1_655 S
C171   H189    1.081   .     S
C171   C121    1.377   1_655 S
C172   H197    1.081   .     S
C173   H198    1.081   .     S
C173   C118    1.377   1_655 S
C174   C177    1.364   .     S
C174   O209    1.263   .     A
C174   O208    1.263   .     A
C175   H199    1.081   .     S
C177   C284    1.164   .     S
C178   C184    1.525   .     S
C178   H202    1.110   .     S
C178   H201    1.110   .     S
C178   H200    1.105   .     S
C179   C185    1.525   .     S
C179   H203    1.105   .     S
C179   H204    1.110   .     S
C179   H190    1.110   .     S
C180   H191    1.105   .     S
C180   H192    1.110   .     S
C180   C186    1.525   .     S
C180   H193    1.110   .     S
C181   H195    1.110   .     S
C181   C187    1.525   .     S
C181   H194    1.105   .     S
C181   H196    1.110   .     S
C182   O211    1.270   .     A
C182   O214    1.270   .     A
C183   C188    1.426   .     S
C183   O213    1.270   .     A
C183   O212    1.270   .     A
C184   C188    1.408   .     A
C186   C188    1.408   .     A
N205   Zn216   1.978   .     S
N205   N854    1.196   1_554 S
N206   Zn215   1.978   .     S
N206   N529    1.196   .     S
O207   Zn215   1.951   .     S
O208   Zn216   1.951   .     S
O209   Zn215   1.951   .     S
O210   Zn216   1.951   .     S
O211   Zn215   2.019   .     S
O212   Zn216   2.019   .     S
O213   Zn215   2.019   .     S
O214   Zn216   2.019   .     S
C217   O264    1.263   .     A
C217   C230    1.364   .     S
C217   O261    1.263   .     A
C218   C241    1.408   .     A
C218   C236    1.426   .     S
C218   C239    1.408   .     A
C219   C225    1.403   .     A
C219   C240    1.402   .     A
C219   C223    1.418   .     A
C220   C224    1.418   .     A
C220   C241    1.402   .     A
C220   C226    1.403   .     A
C221   C227    1.403   .     A
C221   C223    1.418   .     A
C221   C238    1.402   .     A
C222   C229    1.403   .     A
C222   C239    1.402   .     A
C222   C224    1.418   .     A
C223   C278    1.411   .     S
C224   C277    1.411   1_455 S
C225   H243    1.081   .     S
C225   C283    1.377   .     S
C226   H251    1.081   .     S
C226   C281    1.377   1_455 S
C227   H252    1.081   .     S
C227   C280    1.377   .     S
C228   C231    1.364   .     S
C228   O263    1.263   .     A
C228   O262    1.263   .     A
C229   H253    1.081   .     S
C229   C279    1.377   1_455 S
C231   C14     1.164   1_565 S
C232   C238    1.525   .     S
C232   H256    1.110   .     S
C232   H255    1.110   .     S
C232   H254    1.105   .     S
C233   C239    1.525   .     S
C233   H257    1.105   .     S
C233   H258    1.110   .     S
C233   H244    1.110   .     S
C234   H245    1.105   .     S
C234   H246    1.110   .     S
C234   C240    1.525   .     S
C234   H247    1.110   .     S
C235   H249    1.110   .     S
C235   C241    1.525   .     S
C235   H248    1.105   .     S
C235   H250    1.110   .     S
C236   O265    1.270   .     A
C236   O268    1.270   .     A
C237   C242    1.426   .     S
C237   O267    1.270   .     A
C237   O266    1.270   .     A
C238   C242    1.408   .     A
C240   C242    1.408   .     A
N259   Zn270   1.978   .     S
N259   N908    1.196   1_554 S
N260   Zn269   1.978   .     S
N260   N583    1.196   .     S
O261   Zn269   1.951   .     S
O262   Zn270   1.951   .     S
O263   Zn269   1.951   .     S
O264   Zn270   1.951   .     S
O265   Zn269   2.019   .     S
O266   Zn270   2.019   .     S
O267   Zn269   2.019   .     S
O268   Zn270   2.019   .     S
C271   O318    1.263   .     A
C271   C284    1.364   .     S
C271   O315    1.263   .     A
C272   C295    1.408   .     A
C272   C290    1.426   .     S
C272   C293    1.408   .     A
C273   C279    1.403   .     A
C273   C294    1.402   .     A
C273   C277    1.418   .     A
C274   C278    1.418   .     A
C274   C295    1.402   .     A
C274   C280    1.403   .     A
C275   C281    1.403   .     A
C275   C277    1.418   .     A
C275   C292    1.402   .     A
C276   C283    1.403   .     A
C276   C293    1.402   .     A
C276   C278    1.418   .     A
C277   C224    1.411   1_655 S
C279   H297    1.081   .     S
C279   C229    1.377   1_655 S
C280   H305    1.081   .     S
C281   H306    1.081   .     S
C281   C226    1.377   1_655 S
C282   C285    1.364   .     S
C282   O317    1.263   .     A
C282   O316    1.263   .     A
C283   H307    1.081   .     S
C285   C68     1.164   1_565 S
C286   C292    1.525   .     S
C286   H310    1.110   .     S
C286   H309    1.110   .     S
C286   H308    1.105   .     S
C287   C293    1.525   .     S
C287   H311    1.105   .     S
C287   H312    1.110   .     S
C287   H298    1.110   .     S
C288   H299    1.105   .     S
C288   H300    1.110   .     S
C288   C294    1.525   .     S
C288   H301    1.110   .     S
C289   H303    1.110   .     S
C289   C295    1.525   .     S
C289   H302    1.105   .     S
C289   H304    1.110   .     S
C290   O319    1.270   .     A
C290   O322    1.270   .     A
C291   C296    1.426   .     S
C291   O321    1.270   .     A
C291   O320    1.270   .     A
C292   C296    1.408   .     A
C294   C296    1.408   .     A
N313   Zn324   1.978   .     S
N313   N962    1.196   1_554 S
N314   Zn323   1.978   .     S
N314   N637    1.196   .     S
O315   Zn323   1.951   .     S
O316   Zn324   1.951   .     S
O317   Zn323   1.951   .     S
O318   Zn324   1.951   .     S
O319   Zn323   2.019   .     S
O320   Zn324   2.019   .     S
O321   Zn323   2.019   .     S
O322   Zn324   2.019   .     S
C325   O372    1.263   .     A
C325   C338    1.364   .     S
C325   O369    1.263   .     A
C326   C349    1.408   .     A
C326   C344    1.426   .     S
C326   C347    1.408   .     A
C327   C333    1.403   .     A
C327   C348    1.402   .     A
C327   C331    1.418   .     A
C328   C332    1.418   .     A
C328   C349    1.402   .     A
C328   C334    1.403   .     A
C329   C335    1.403   .     A
C329   C331    1.418   .     A
C329   C346    1.402   .     A
C330   C337    1.403   .     A
C330   C347    1.402   .     A
C330   C332    1.418   .     A
C331   C386    1.411   .     S
C332   C385    1.411   1_455 S
C333   H351    1.081   .     S
C333   C391    1.377   .     S
C334   H359    1.081   .     S
C334   C389    1.377   1_455 S
C335   H360    1.081   .     S
C335   C388    1.377   .     S
C336   C339    1.364   .     S
C336   O371    1.263   .     A
C336   O370    1.263   .     A
C337   H361    1.081   .     S
C337   C387    1.377   1_455 S
C338   C555    1.164   1_545 S
C339   C446    1.164   .     S
C340   C346    1.525   .     S
C340   H364    1.110   .     S
C340   H363    1.110   .     S
C340   H362    1.105   .     S
C341   C347    1.525   .     S
C341   H365    1.105   .     S
C341   H366    1.110   .     S
C341   H352    1.110   .     S
C342   H353    1.105   .     S
C342   H354    1.110   .     S
C342   C348    1.525   .     S
C342   H355    1.110   .     S
C343   H357    1.110   .     S
C343   C349    1.525   .     S
C343   H356    1.105   .     S
C343   H358    1.110   .     S
C344   O373    1.270   .     A
C344   O376    1.270   .     A
C345   C350    1.426   .     S
C345   O375    1.270   .     A
C345   O374    1.270   .     A
C346   C350    1.408   .     A
C348   C350    1.408   .     A
N367   Zn378   1.978   .     S
N368   Zn377   1.978   .     S
N368   N691    1.196   .     S
O369   Zn377   1.951   .     S
O370   Zn378   1.951   .     S
O371   Zn377   1.951   .     S
O372   Zn378   1.951   .     S
O373   Zn377   2.019   .     S
O374   Zn378   2.019   .     S
O375   Zn377   2.019   .     S
O376   Zn378   2.019   .     S
C379   O426    1.263   .     A
C379   C392    1.364   .     S
C379   O423    1.263   .     A
C380   C403    1.408   .     A
C380   C398    1.426   .     S
C380   C401    1.408   .     A
C381   C387    1.403   .     A
C381   C402    1.402   .     A
C381   C385    1.418   .     A
C382   C386    1.418   .     A
C382   C403    1.402   .     A
C382   C388    1.403   .     A
C383   C389    1.403   .     A
C383   C385    1.418   .     A
C383   C400    1.402   .     A
C384   C391    1.403   .     A
C384   C401    1.402   .     A
C384   C386    1.418   .     A
C385   C332    1.411   1_655 S
C387   H405    1.081   .     S
C387   C337    1.377   1_655 S
C388   H413    1.081   .     S
C389   H414    1.081   .     S
C389   C334    1.377   1_655 S
C390   C393    1.364   .     S
C390   O425    1.263   .     A
C390   O424    1.263   .     A
C391   H415    1.081   .     S
C392   C609    1.164   1_545 S
C393   C500    1.164   .     S
C394   C400    1.525   .     S
C394   H418    1.110   .     S
C394   H417    1.110   .     S
C394   H416    1.105   .     S
C395   C401    1.525   .     S
C395   H419    1.105   .     S
C395   H420    1.110   .     S
C395   H406    1.110   .     S
C396   H407    1.105   .     S
C396   H408    1.110   .     S
C396   C402    1.525   .     S
C396   H409    1.110   .     S
C397   H411    1.110   .     S
C397   C403    1.525   .     S
C397   H410    1.105   .     S
C397   H412    1.110   .     S
C398   O427    1.270   .     A
C398   O430    1.270   .     A
C399   C404    1.426   .     S
C399   O429    1.270   .     A
C399   O428    1.270   .     A
C400   C404    1.408   .     A
C402   C404    1.408   .     A
N421   Zn432   1.978   .     S
N422   Zn431   1.978   .     S
N422   N745    1.196   .     S
O423   Zn431   1.951   .     S
O424   Zn432   1.951   .     S
O425   Zn431   1.951   .     S
O426   Zn432   1.951   .     S
O427   Zn431   2.019   .     S
O428   Zn432   2.019   .     S
O429   Zn431   2.019   .     S
O430   Zn432   2.019   .     S
C433   O480    1.263   .     A
C433   C446    1.364   .     S
C433   O477    1.263   .     A
C434   C457    1.408   .     A
C434   C452    1.426   .     S
C434   C455    1.408   .     A
C435   C441    1.403   .     A
C435   C456    1.402   .     A
C435   C439    1.418   .     A
C436   C440    1.418   .     A
C436   C457    1.402   .     A
C436   C442    1.403   .     A
C437   C443    1.403   .     A
C437   C439    1.418   .     A
C437   C454    1.402   .     A
C438   C445    1.403   .     A
C438   C455    1.402   .     A
C438   C440    1.418   .     A
C439   C494    1.411   .     S
C440   C493    1.411   1_455 S
C441   H459    1.081   .     S
C441   C499    1.377   .     S
C442   H467    1.081   .     S
C442   C497    1.377   1_455 S
C443   H468    1.081   .     S
C443   C496    1.377   .     S
C444   C447    1.364   .     S
C444   O479    1.263   .     A
C444   O478    1.263   .     A
C445   H469    1.081   .     S
C445   C495    1.377   1_455 S
C447   C554    1.164   .     S
C448   C454    1.525   .     S
C448   H472    1.110   .     S
C448   H471    1.110   .     S
C448   H470    1.105   .     S
C449   C455    1.525   .     S
C449   H473    1.105   .     S
C449   H474    1.110   .     S
C449   H460    1.110   .     S
C450   H461    1.105   .     S
C450   H462    1.110   .     S
C450   C456    1.525   .     S
C450   H463    1.110   .     S
C451   H465    1.110   .     S
C451   C457    1.525   .     S
C451   H464    1.105   .     S
C451   H466    1.110   .     S
C452   O481    1.270   .     A
C452   O484    1.270   .     A
C453   C458    1.426   .     S
C453   O483    1.270   .     A
C453   O482    1.270   .     A
C454   C458    1.408   .     A
C456   C458    1.408   .     A
N475   Zn486   1.978   .     S
N476   Zn485   1.978   .     S
N476   N799    1.196   .     S
O477   Zn485   1.951   .     S
O478   Zn486   1.951   .     S
O479   Zn485   1.951   .     S
O480   Zn486   1.951   .     S
O481   Zn485   2.019   .     S
O482   Zn486   2.019   .     S
O483   Zn485   2.019   .     S
O484   Zn486   2.019   .     S
C487   O534    1.263   .     A
C487   C500    1.364   .     S
C487   O531    1.263   .     A
C488   C511    1.408   .     A
C488   C506    1.426   .     S
C488   C509    1.408   .     A
C489   C495    1.403   .     A
C489   C510    1.402   .     A
C489   C493    1.418   .     A
C490   C494    1.418   .     A
C490   C511    1.402   .     A
C490   C496    1.403   .     A
C491   C497    1.403   .     A
C491   C493    1.418   .     A
C491   C508    1.402   .     A
C492   C499    1.403   .     A
C492   C509    1.402   .     A
C492   C494    1.418   .     A
C493   C440    1.411   1_655 S
C495   H513    1.081   .     S
C495   C445    1.377   1_655 S
C496   H521    1.081   .     S
C497   H522    1.081   .     S
C497   C442    1.377   1_655 S
C498   C501    1.364   .     S
C498   O533    1.263   .     A
C498   O532    1.263   .     A
C499   H523    1.081   .     S
C501   C608    1.164   .     S
C502   C508    1.525   .     S
C502   H526    1.110   .     S
C502   H525    1.110   .     S
C502   H524    1.105   .     S
C503   C509    1.525   .     S
C503   H527    1.105   .     S
C503   H528    1.110   .     S
C503   H514    1.110   .     S
C504   H515    1.105   .     S
C504   H516    1.110   .     S
C504   C510    1.525   .     S
C504   H517    1.110   .     S
C505   H519    1.110   .     S
C505   C511    1.525   .     S
C505   H518    1.105   .     S
C505   H520    1.110   .     S
C506   O535    1.270   .     A
C506   O538    1.270   .     A
C507   C512    1.426   .     S
C507   O537    1.270   .     A
C507   O536    1.270   .     A
C508   C512    1.408   .     A
C510   C512    1.408   .     A
N529   Zn540   1.978   .     S
N530   Zn539   1.978   .     S
N530   N853    1.196   .     S
O531   Zn539   1.951   .     S
O532   Zn540   1.951   .     S
O533   Zn539   1.951   .     S
O534   Zn540   1.951   .     S
O535   Zn539   2.019   .     S
O536   Zn540   2.019   .     S
O537   Zn539   2.019   .     S
O538   Zn540   2.019   .     S
C541   O588    1.263   .     A
C541   C554    1.364   .     S
C541   O585    1.263   .     A
C542   C565    1.408   .     A
C542   C560    1.426   .     S
C542   C563    1.408   .     A
C543   C549    1.403   .     A
C543   C564    1.402   .     A
C543   C547    1.418   .     A
C544   C548    1.418   .     A
C544   C565    1.402   .     A
C544   C550    1.403   .     A
C545   C551    1.403   .     A
C545   C547    1.418   .     A
C545   C562    1.402   .     A
C546   C553    1.403   .     A
C546   C563    1.402   .     A
C546   C548    1.418   .     A
C547   C602    1.411   .     S
C548   C601    1.411   1_455 S
C549   H567    1.081   .     S
C549   C607    1.377   .     S
C550   H575    1.081   .     S
C550   C605    1.377   1_455 S
C551   H576    1.081   .     S
C551   C604    1.377   .     S
C552   C555    1.364   .     S
C552   O587    1.263   .     A
C552   O586    1.263   .     A
C553   H577    1.081   .     S
C553   C603    1.377   1_455 S
C555   C338    1.164   1_565 S
C556   C562    1.525   .     S
C556   H580    1.110   .     S
C556   H579    1.110   .     S
C556   H578    1.105   .     S
C557   C563    1.525   .     S
C557   H581    1.105   .     S
C557   H582    1.110   .     S
C557   H568    1.110   .     S
C558   H569    1.105   .     S
C558   H570    1.110   .     S
C558   C564    1.525   .     S
C558   H571    1.110   .     S
C559   H573    1.110   .     S
C559   C565    1.525   .     S
C559   H572    1.105   .     S
C559   H574    1.110   .     S
C560   O589    1.270   .     A
C560   O592    1.270   .     A
C561   C566    1.426   .     S
C561   O591    1.270   .     A
C561   O590    1.270   .     A
C562   C566    1.408   .     A
C564   C566    1.408   .     A
N583   Zn594   1.978   .     S
N584   Zn593   1.978   .     S
N584   N907    1.196   .     S
O585   Zn593   1.951   .     S
O586   Zn594   1.951   .     S
O587   Zn593   1.951   .     S
O588   Zn594   1.951   .     S
O589   Zn593   2.019   .     S
O590   Zn594   2.019   .     S
O591   Zn593   2.019   .     S
O592   Zn594   2.019   .     S
C595   O642    1.263   .     A
C595   C608    1.364   .     S
C595   O639    1.263   .     A
C596   C619    1.408   .     A
C596   C614    1.426   .     S
C596   C617    1.408   .     A
C597   C603    1.403   .     A
C597   C618    1.402   .     A
C597   C601    1.418   .     A
C598   C602    1.418   .     A
C598   C619    1.402   .     A
C598   C604    1.403   .     A
C599   C605    1.403   .     A
C599   C601    1.418   .     A
C599   C616    1.402   .     A
C600   C607    1.403   .     A
C600   C617    1.402   .     A
C600   C602    1.418   .     A
C601   C548    1.411   1_655 S
C603   H621    1.081   .     S
C603   C553    1.377   1_655 S
C604   H629    1.081   .     S
C605   H630    1.081   .     S
C605   C550    1.377   1_655 S
C606   C609    1.364   .     S
C606   O641    1.263   .     A
C606   O640    1.263   .     A
C607   H631    1.081   .     S
C609   C392    1.164   1_565 S
C610   C616    1.525   .     S
C610   H634    1.110   .     S
C610   H633    1.110   .     S
C610   H632    1.105   .     S
C611   C617    1.525   .     S
C611   H635    1.105   .     S
C611   H636    1.110   .     S
C611   H622    1.110   .     S
C612   H623    1.105   .     S
C612   H624    1.110   .     S
C612   C618    1.525   .     S
C612   H625    1.110   .     S
C613   H627    1.110   .     S
C613   C619    1.525   .     S
C613   H626    1.105   .     S
C613   H628    1.110   .     S
C614   O643    1.270   .     A
C614   O646    1.270   .     A
C615   C620    1.426   .     S
C615   O645    1.270   .     A
C615   O644    1.270   .     A
C616   C620    1.408   .     A
C618   C620    1.408   .     A
N637   Zn648   1.978   .     S
N638   Zn647   1.978   .     S
N638   N961    1.196   .     S
O639   Zn647   1.951   .     S
O640   Zn648   1.951   .     S
O641   Zn647   1.951   .     S
O642   Zn648   1.951   .     S
O643   Zn647   2.019   .     S
O644   Zn648   2.019   .     S
O645   Zn647   2.019   .     S
O646   Zn648   2.019   .     S
C649   O696    1.263   .     A
C649   C662    1.364   .     S
C649   O693    1.263   .     A
C650   C673    1.408   .     A
C650   C668    1.426   .     S
C650   C671    1.408   .     A
C651   C657    1.403   .     A
C651   C672    1.402   .     A
C651   C655    1.418   .     A
C652   C656    1.418   .     A
C652   C673    1.402   .     A
C652   C658    1.403   .     A
C653   C659    1.403   .     A
C653   C655    1.418   .     A
C653   C670    1.402   .     A
C654   C661    1.403   .     A
C654   C671    1.402   .     A
C654   C656    1.418   .     A
C655   C710    1.411   .     S
C656   C709    1.411   1_455 S
C657   H675    1.081   .     S
C657   C715    1.377   .     S
C658   H683    1.081   .     S
C658   C713    1.377   1_455 S
C659   H684    1.081   .     S
C659   C712    1.377   .     S
C660   C663    1.364   .     S
C660   O695    1.263   .     A
C660   O694    1.263   .     A
C661   H685    1.081   .     S
C661   C711    1.377   1_455 S
C662   C879    1.164   1_545 S
C663   C770    1.164   .     S
C664   C670    1.525   .     S
C664   H688    1.110   .     S
C664   H687    1.110   .     S
C664   H686    1.105   .     S
C665   C671    1.525   .     S
C665   H689    1.105   .     S
C665   H690    1.110   .     S
C665   H676    1.110   .     S
C666   H677    1.105   .     S
C666   H678    1.110   .     S
C666   C672    1.525   .     S
C666   H679    1.110   .     S
C667   H681    1.110   .     S
C667   C673    1.525   .     S
C667   H680    1.105   .     S
C667   H682    1.110   .     S
C668   O697    1.270   .     A
C668   O700    1.270   .     A
C669   C674    1.426   .     S
C669   O699    1.270   .     A
C669   O698    1.270   .     A
C670   C674    1.408   .     A
C672   C674    1.408   .     A
N691   Zn702   1.978   .     S
N692   Zn701   1.978   .     S
N692   N43     1.196   1_556 S
O693   Zn701   1.951   .     S
O694   Zn702   1.951   .     S
O695   Zn701   1.951   .     S
O696   Zn702   1.951   .     S
O697   Zn701   2.019   .     S
O698   Zn702   2.019   .     S
O699   Zn701   2.019   .     S
O700   Zn702   2.019   .     S
C703   O750    1.263   .     A
C703   C716    1.364   .     S
C703   O747    1.263   .     A
C704   C727    1.408   .     A
C704   C722    1.426   .     S
C704   C725    1.408   .     A
C705   C711    1.403   .     A
C705   C726    1.402   .     A
C705   C709    1.418   .     A
C706   C710    1.418   .     A
C706   C727    1.402   .     A
C706   C712    1.403   .     A
C707   C713    1.403   .     A
C707   C709    1.418   .     A
C707   C724    1.402   .     A
C708   C715    1.403   .     A
C708   C725    1.402   .     A
C708   C710    1.418   .     A
C709   C656    1.411   1_655 S
C711   H729    1.081   .     S
C711   C661    1.377   1_655 S
C712   H737    1.081   .     S
C713   H738    1.081   .     S
C713   C658    1.377   1_655 S
C714   C717    1.364   .     S
C714   O749    1.263   .     A
C714   O748    1.263   .     A
C715   H739    1.081   .     S
C716   C933    1.164   1_545 S
C717   C824    1.164   .     S
C718   C724    1.525   .     S
C718   H742    1.110   .     S
C718   H741    1.110   .     S
C718   H740    1.105   .     S
C719   C725    1.525   .     S
C719   H743    1.105   .     S
C719   H744    1.110   .     S
C719   H730    1.110   .     S
C720   H731    1.105   .     S
C720   H732    1.110   .     S
C720   C726    1.525   .     S
C720   H733    1.110   .     S
C721   H735    1.110   .     S
C721   C727    1.525   .     S
C721   H734    1.105   .     S
C721   H736    1.110   .     S
C722   O751    1.270   .     A
C722   O754    1.270   .     A
C723   C728    1.426   .     S
C723   O753    1.270   .     A
C723   O752    1.270   .     A
C724   C728    1.408   .     A
C726   C728    1.408   .     A
N745   Zn756   1.978   .     S
N746   Zn755   1.978   .     S
N746   N97     1.196   1_556 S
O747   Zn755   1.951   .     S
O748   Zn756   1.951   .     S
O749   Zn755   1.951   .     S
O750   Zn756   1.951   .     S
O751   Zn755   2.019   .     S
O752   Zn756   2.019   .     S
O753   Zn755   2.019   .     S
O754   Zn756   2.019   .     S
C757   O804    1.263   .     A
C757   C770    1.364   .     S
C757   O801    1.263   .     A
C758   C781    1.408   .     A
C758   C776    1.426   .     S
C758   C779    1.408   .     A
C759   C765    1.403   .     A
C759   C780    1.402   .     A
C759   C763    1.418   .     A
C760   C764    1.418   .     A
C760   C781    1.402   .     A
C760   C766    1.403   .     A
C761   C767    1.403   .     A
C761   C763    1.418   .     A
C761   C778    1.402   .     A
C762   C769    1.403   .     A
C762   C779    1.402   .     A
C762   C764    1.418   .     A
C763   C818    1.411   .     S
C764   C817    1.411   1_455 S
C765   H783    1.081   .     S
C765   C823    1.377   .     S
C766   H791    1.081   .     S
C766   C821    1.377   1_455 S
C767   H792    1.081   .     S
C767   C820    1.377   .     S
C768   C771    1.364   .     S
C768   O803    1.263   .     A
C768   O802    1.263   .     A
C769   H793    1.081   .     S
C769   C819    1.377   1_455 S
C771   C878    1.164   .     S
C772   C778    1.525   .     S
C772   H796    1.110   .     S
C772   H795    1.110   .     S
C772   H794    1.105   .     S
C773   C779    1.525   .     S
C773   H797    1.105   .     S
C773   H798    1.110   .     S
C773   H784    1.110   .     S
C774   H785    1.105   .     S
C774   H786    1.110   .     S
C774   C780    1.525   .     S
C774   H787    1.110   .     S
C775   H789    1.110   .     S
C775   C781    1.525   .     S
C775   H788    1.105   .     S
C775   H790    1.110   .     S
C776   O805    1.270   .     A
C776   O808    1.270   .     A
C777   C782    1.426   .     S
C777   O807    1.270   .     A
C777   O806    1.270   .     A
C778   C782    1.408   .     A
C780   C782    1.408   .     A
N799   Zn810   1.978   .     S
N800   Zn809   1.978   .     S
N800   N151    1.196   1_556 S
O801   Zn809   1.951   .     S
O802   Zn810   1.951   .     S
O803   Zn809   1.951   .     S
O804   Zn810   1.951   .     S
O805   Zn809   2.019   .     S
O806   Zn810   2.019   .     S
O807   Zn809   2.019   .     S
O808   Zn810   2.019   .     S
C811   O858    1.263   .     A
C811   C824    1.364   .     S
C811   O855    1.263   .     A
C812   C835    1.408   .     A
C812   C830    1.426   .     S
C812   C833    1.408   .     A
C813   C819    1.403   .     A
C813   C834    1.402   .     A
C813   C817    1.418   .     A
C814   C818    1.418   .     A
C814   C835    1.402   .     A
C814   C820    1.403   .     A
C815   C821    1.403   .     A
C815   C817    1.418   .     A
C815   C832    1.402   .     A
C816   C823    1.403   .     A
C816   C833    1.402   .     A
C816   C818    1.418   .     A
C817   C764    1.411   1_655 S
C819   H837    1.081   .     S
C819   C769    1.377   1_655 S
C820   H845    1.081   .     S
C821   H846    1.081   .     S
C821   C766    1.377   1_655 S
C822   C825    1.364   .     S
C822   O857    1.263   .     A
C822   O856    1.263   .     A
C823   H847    1.081   .     S
C825   C932    1.164   .     S
C826   C832    1.525   .     S
C826   H850    1.110   .     S
C826   H849    1.110   .     S
C826   H848    1.105   .     S
C827   C833    1.525   .     S
C827   H851    1.105   .     S
C827   H852    1.110   .     S
C827   H838    1.110   .     S
C828   H839    1.105   .     S
C828   H840    1.110   .     S
C828   C834    1.525   .     S
C828   H841    1.110   .     S
C829   H843    1.110   .     S
C829   C835    1.525   .     S
C829   H842    1.105   .     S
C829   H844    1.110   .     S
C830   O859    1.270   .     A
C830   O862    1.270   .     A
C831   C836    1.426   .     S
C831   O861    1.270   .     A
C831   O860    1.270   .     A
C832   C836    1.408   .     A
C834   C836    1.408   .     A
N853   Zn864   1.978   .     S
N854   Zn863   1.978   .     S
N854   N205    1.196   1_556 S
O855   Zn863   1.951   .     S
O856   Zn864   1.951   .     S
O857   Zn863   1.951   .     S
O858   Zn864   1.951   .     S
O859   Zn863   2.019   .     S
O860   Zn864   2.019   .     S
O861   Zn863   2.019   .     S
O862   Zn864   2.019   .     S
C865   O912    1.263   .     A
C865   C878    1.364   .     S
C865   O909    1.263   .     A
C866   C889    1.408   .     A
C866   C884    1.426   .     S
C866   C887    1.408   .     A
C867   C873    1.403   .     A
C867   C888    1.402   .     A
C867   C871    1.418   .     A
C868   C872    1.418   .     A
C868   C889    1.402   .     A
C868   C874    1.403   .     A
C869   C875    1.403   .     A
C869   C871    1.418   .     A
C869   C886    1.402   .     A
C870   C877    1.403   .     A
C870   C887    1.402   .     A
C870   C872    1.418   .     A
C871   C926    1.411   .     S
C872   C925    1.411   1_455 S
C873   H891    1.081   .     S
C873   C931    1.377   .     S
C874   H899    1.081   .     S
C874   C929    1.377   1_455 S
C875   H900    1.081   .     S
C875   C928    1.377   .     S
C876   C879    1.364   .     S
C876   O911    1.263   .     A
C876   O910    1.263   .     A
C877   H901    1.081   .     S
C877   C927    1.377   1_455 S
C879   C662    1.164   1_565 S
C880   C886    1.525   .     S
C880   H904    1.110   .     S
C880   H903    1.110   .     S
C880   H902    1.105   .     S
C881   C887    1.525   .     S
C881   H905    1.105   .     S
C881   H906    1.110   .     S
C881   H892    1.110   .     S
C882   H893    1.105   .     S
C882   H894    1.110   .     S
C882   C888    1.525   .     S
C882   H895    1.110   .     S
C883   H897    1.110   .     S
C883   C889    1.525   .     S
C883   H896    1.105   .     S
C883   H898    1.110   .     S
C884   O913    1.270   .     A
C884   O916    1.270   .     A
C885   C890    1.426   .     S
C885   O915    1.270   .     A
C885   O914    1.270   .     A
C886   C890    1.408   .     A
C888   C890    1.408   .     A
N907   Zn918   1.978   .     S
N908   Zn917   1.978   .     S
N908   N259    1.196   1_556 S
O909   Zn917   1.951   .     S
O910   Zn918   1.951   .     S
O911   Zn917   1.951   .     S
O912   Zn918   1.951   .     S
O913   Zn917   2.019   .     S
O914   Zn918   2.019   .     S
O915   Zn917   2.019   .     S
O916   Zn918   2.019   .     S
C919   O966    1.263   .     A
C919   C932    1.364   .     S
C919   O963    1.263   .     A
C920   C943    1.408   .     A
C920   C938    1.426   .     S
C920   C941    1.408   .     A
C921   C927    1.403   .     A
C921   C942    1.402   .     A
C921   C925    1.418   .     A
C922   C926    1.418   .     A
C922   C943    1.402   .     A
C922   C928    1.403   .     A
C923   C929    1.403   .     A
C923   C925    1.418   .     A
C923   C940    1.402   .     A
C924   C931    1.403   .     A
C924   C941    1.402   .     A
C924   C926    1.418   .     A
C925   C872    1.411   1_655 S
C927   H945    1.081   .     S
C927   C877    1.377   1_655 S
C928   H953    1.081   .     S
C929   H954    1.081   .     S
C929   C874    1.377   1_655 S
C930   C933    1.364   .     S
C930   O965    1.263   .     A
C930   O964    1.263   .     A
C931   H955    1.081   .     S
C933   C716    1.164   1_565 S
C934   C940    1.525   .     S
C934   H958    1.110   .     S
C934   H957    1.110   .     S
C934   H956    1.105   .     S
C935   C941    1.525   .     S
C935   H959    1.105   .     S
C935   H960    1.110   .     S
C935   H946    1.110   .     S
C936   H947    1.105   .     S
C936   H948    1.110   .     S
C936   C942    1.525   .     S
C936   H949    1.110   .     S
C937   H951    1.110   .     S
C937   C943    1.525   .     S
C937   H950    1.105   .     S
C937   H952    1.110   .     S
C938   O967    1.270   .     A
C938   O970    1.270   .     A
C939   C944    1.426   .     S
C939   O969    1.270   .     A
C939   O968    1.270   .     A
C940   C944    1.408   .     A
C942   C944    1.408   .     A
N961   Zn972   1.978   .     S
N962   Zn971   1.978   .     S
N962   N313    1.196   1_556 S
O963   Zn971   1.951   .     S
O964   Zn972   1.951   .     S
O965   Zn971   1.951   .     S
O966   Zn972   1.951   .     S
O967   Zn971   2.019   .     S
O968   Zn972   2.019   .     S
O969   Zn971   2.019   .     S
O970   Zn972   2.019   .     S
