data_str_m3_o1_o17_pcu_sym.51
_audit_creation_date              2020-01-03
_audit_creation_method            'Materials Studio'
_symmetry_space_group_name_H-M    'P1'
_symmetry_Int_Tables_number       1
_symmetry_cell_setting            triclinic
loop_
_symmetry_equiv_pos_as_xyz
  x,y,z
_cell_length_a                    32.0841
_cell_length_b                    29.7617
_cell_length_c                    30.0068
_cell_angle_alpha                 89.3000
_cell_angle_beta                  91.2367
_cell_angle_gamma                 89.7961
loop_
_atom_site_label
_atom_site_type_symbol
_atom_site_fract_x
_atom_site_fract_y
_atom_site_fract_z
_atom_site_U_iso_or_equiv
_atom_site_adp_type
_atom_site_occupancy
C1     C     0.08672   0.16672   0.24987   0.00000  Uiso   1.00
C2     C     0.04254   0.16677   0.24984   0.00000  Uiso   1.00
C3     C     0.19480   0.02287   0.27597   0.00000  Uiso   1.00
C4     C     0.13854   0.31047   0.22403   0.00000  Uiso   1.00
C5     C     0.13917   0.02494   0.22360   0.00000  Uiso   1.00
C6     C     0.19417   0.30840   0.27640   0.00000  Uiso   1.00
C7     C     0.16676   0.16686   0.16344   0.00000  Uiso   1.00
C8     C     0.16657   0.16647   0.33656   0.00000  Uiso   1.00
C9     C     0.18018   0.12837   0.40801   0.00000  Uiso   1.00
C10    C     0.15312   0.20495   0.09199   0.00000  Uiso   1.00
C11    C     0.16624   0.16624   0.38446   0.00000  Uiso   1.00
C12    C     0.24661   0.16661   0.25013   0.00000  Uiso   1.00
C13    C     0.16709   0.16709   0.11554   0.00000  Uiso   1.00
C14    C     0.15229   0.20420   0.40638   0.00000  Uiso   1.00
C15    C     0.18107   0.12915   0.09362   0.00000  Uiso   1.00
C16    C     0.15210   0.20487   0.45261   0.00000  Uiso   1.00
C17    C     0.18124   0.12847   0.04739   0.00000  Uiso   1.00
C18    C     0.16655   0.16652   0.47678   0.00000  Uiso   1.00
C19    C     0.16677   0.16681   0.02323   0.00000  Uiso   1.00
C20    C     0.18081   0.12791   0.45433   0.00000  Uiso   1.00
C21    C     0.15250   0.20541   0.04567   0.00000  Uiso   1.00
C22    C     0.13770   0.24310   0.47482   0.00000  Uiso   1.00
C23    C     0.13781   0.24347   0.02140   0.00000  Uiso   1.00
C24    C     0.19565   0.09024   0.02518   0.00000  Uiso   1.00
C25    C     0.19551   0.08986   0.47860   0.00000  Uiso   1.00
C26    C     0.02114   0.12878   0.23509   0.00000  Uiso   1.00
C27    C     0.31219   0.20456   0.26490   0.00000  Uiso   1.00
C28    C     0.31177   0.12865   0.23523   0.00000  Uiso   1.00
C29    C     0.02156   0.20469   0.26476   0.00000  Uiso   1.00
C30    C     0.29080   0.16657   0.25015   0.00000  Uiso   1.00
H31    H     0.19101   0.09965   0.38982   0.00000  Uiso   1.00
H32    H     0.14049   0.30945   0.45940   0.00000  Uiso   1.00
H33    H     0.19293   0.02390   0.04062   0.00000  Uiso   1.00
H34    H     0.24159   0.04581   0.04165   0.00000  Uiso   1.00
H35    H     0.09730   0.27385   0.06263   0.00000  Uiso   1.00
H36    H     0.14641   0.29555   0.06374   0.00000  Uiso   1.00
H37    H     0.18690   0.03777   0.43627   0.00000  Uiso   1.00
H38    H     0.23601   0.05949   0.43736   0.00000  Uiso   1.00
H39    H     0.21395   0.06864   0.32180   0.00000  Uiso   1.00
H40    H     0.24849   0.05811   0.28042   0.00000  Uiso   1.00
H41    H     0.08487   0.27520   0.21954   0.00000  Uiso   1.00
H42    H     0.14225   0.23366   0.11018   0.00000  Uiso   1.00
H43    H     0.11942   0.26472   0.17815   0.00000  Uiso   1.00
H44    H     0.11654   0.04120   0.16226   0.00000  Uiso   1.00
H45    H     0.08058   0.04005   0.20260   0.00000  Uiso   1.00
H46    H     0.25275   0.29328   0.29740   0.00000  Uiso   1.00
H47    H     0.21679   0.29214   0.33774   0.00000  Uiso   1.00
H48    H     0.14127   0.23307   0.38711   0.00000  Uiso   1.00
H49    H     0.19213   0.10030   0.11289   0.00000  Uiso   1.00
H50    H     0.03727   0.09952   0.22310   0.00000  Uiso   1.00
H51    H     0.29607   0.23382   0.27689   0.00000  Uiso   1.00
H52    H     0.29527   0.09932   0.22324   0.00000  Uiso   1.00
H53    H     0.03806   0.23402   0.27674   0.00000  Uiso   1.00
H54    H     0.09181   0.28760   0.45834   0.00000  Uiso   1.00
N55    N     0.16667   0.28573   0.25000   0.00000  Uiso   1.00
N56    N     0.22242   0.28342   0.30476   0.00000  Uiso   1.00
N57    N     0.16667   0.04760   0.25000   0.00000  Uiso   1.00
N58    N     0.12278   0.28162   0.44989   0.00000  Uiso   1.00
N59    N     0.21062   0.05174   0.05011   0.00000  Uiso   1.00
N60    N     0.12266   0.28283   0.04317   0.00000  Uiso   1.00
N61    N     0.21065   0.05050   0.45683   0.00000  Uiso   1.00
N62    N     0.22678   0.04419   0.30186   0.00000  Uiso   1.00
N63    N     0.10657   0.28914   0.19812   0.00000  Uiso   1.00
N64    N     0.11091   0.04992   0.19524   0.00000  Uiso   1.00
O65    O     0.10559   0.20487   0.24999   0.00000  Uiso   1.00
O66    O     0.22774   0.12846   0.25000   0.00000  Uiso   1.00
O67    O     0.22774   0.20487   0.25000   0.00000  Uiso   1.00
O68    O     0.10559   0.12846   0.24999   0.00000  Uiso   1.00
O69    O     0.16666   0.20489   0.18392   0.00000  Uiso   1.00
O70    O     0.16667   0.12844   0.31607   0.00000  Uiso   1.00
O71    O     0.16667   0.20489   0.31607   0.00000  Uiso   1.00
O72    O     0.16666   0.12844   0.18392   0.00000  Uiso   1.00
Zn73   Zn    0.16667   0.21771   0.25000   0.00000  Uiso   1.00
Zn74   Zn    0.16667   0.11563   0.25000   0.00000  Uiso   1.00
C75    C     0.42006   0.16672   0.24987   0.00000  Uiso   1.00
C76    C     0.37587   0.16677   0.24984   0.00000  Uiso   1.00
C77    C     0.52813   0.02287   0.27597   0.00000  Uiso   1.00
C78    C     0.47187   0.31047   0.22403   0.00000  Uiso   1.00
C79    C     0.47250   0.02494   0.22360   0.00000  Uiso   1.00
C80    C     0.52750   0.30840   0.27640   0.00000  Uiso   1.00
C81    C     0.50010   0.16686   0.16344   0.00000  Uiso   1.00
C82    C     0.49990   0.16647   0.33656   0.00000  Uiso   1.00
C83    C     0.51351   0.12837   0.40801   0.00000  Uiso   1.00
C84    C     0.48645   0.20495   0.09199   0.00000  Uiso   1.00
C85    C     0.49957   0.16624   0.38446   0.00000  Uiso   1.00
C86    C     0.57994   0.16661   0.25013   0.00000  Uiso   1.00
C87    C     0.50042   0.16709   0.11554   0.00000  Uiso   1.00
C88    C     0.48563   0.20420   0.40638   0.00000  Uiso   1.00
C89    C     0.51440   0.12915   0.09362   0.00000  Uiso   1.00
C90    C     0.48543   0.20487   0.45261   0.00000  Uiso   1.00
C91    C     0.51458   0.12847   0.04739   0.00000  Uiso   1.00
C92    C     0.49989   0.16652   0.47678   0.00000  Uiso   1.00
C93    C     0.50010   0.16681   0.02323   0.00000  Uiso   1.00
C94    C     0.51415   0.12791   0.45433   0.00000  Uiso   1.00
C95    C     0.48583   0.20541   0.04567   0.00000  Uiso   1.00
C96    C     0.47103   0.24310   0.47482   0.00000  Uiso   1.00
C97    C     0.47115   0.24347   0.02140   0.00000  Uiso   1.00
C98    C     0.52899   0.09024   0.02518   0.00000  Uiso   1.00
C99    C     0.52884   0.08986   0.47860   0.00000  Uiso   1.00
C100   C     0.35447   0.12878   0.23509   0.00000  Uiso   1.00
C101   C     0.64553   0.20456   0.26490   0.00000  Uiso   1.00
C102   C     0.64510   0.12865   0.23523   0.00000  Uiso   1.00
C103   C     0.35490   0.20469   0.26476   0.00000  Uiso   1.00
C104   C     0.62413   0.16657   0.25015   0.00000  Uiso   1.00
H105   H     0.52434   0.09965   0.38982   0.00000  Uiso   1.00
H106   H     0.47383   0.30945   0.45940   0.00000  Uiso   1.00
H107   H     0.52626   0.02390   0.04062   0.00000  Uiso   1.00
H108   H     0.57492   0.04581   0.04165   0.00000  Uiso   1.00
H109   H     0.43063   0.27385   0.06263   0.00000  Uiso   1.00
H110   H     0.47974   0.29555   0.06374   0.00000  Uiso   1.00
H111   H     0.52024   0.03777   0.43627   0.00000  Uiso   1.00
H112   H     0.56934   0.05949   0.43736   0.00000  Uiso   1.00
H113   H     0.54728   0.06864   0.32180   0.00000  Uiso   1.00
H114   H     0.58182   0.05811   0.28042   0.00000  Uiso   1.00
H115   H     0.41820   0.27520   0.21954   0.00000  Uiso   1.00
H116   H     0.47559   0.23366   0.11018   0.00000  Uiso   1.00
H117   H     0.45275   0.26472   0.17815   0.00000  Uiso   1.00
H118   H     0.44987   0.04120   0.16226   0.00000  Uiso   1.00
H119   H     0.41391   0.04005   0.20260   0.00000  Uiso   1.00
H120   H     0.58608   0.29328   0.29740   0.00000  Uiso   1.00
H121   H     0.55013   0.29214   0.33774   0.00000  Uiso   1.00
H122   H     0.47460   0.23307   0.38711   0.00000  Uiso   1.00
H123   H     0.52547   0.10030   0.11289   0.00000  Uiso   1.00
H124   H     0.37060   0.09952   0.22310   0.00000  Uiso   1.00
H125   H     0.62940   0.23382   0.27689   0.00000  Uiso   1.00
H126   H     0.62861   0.09932   0.22324   0.00000  Uiso   1.00
H127   H     0.37139   0.23402   0.27674   0.00000  Uiso   1.00
H128   H     0.42515   0.28760   0.45834   0.00000  Uiso   1.00
N129   N     0.50000   0.28573   0.25000   0.00000  Uiso   1.00
N130   N     0.55576   0.28342   0.30476   0.00000  Uiso   1.00
N131   N     0.50000   0.04760   0.25000   0.00000  Uiso   1.00
N132   N     0.45611   0.28162   0.44989   0.00000  Uiso   1.00
N133   N     0.54396   0.05174   0.05011   0.00000  Uiso   1.00
N134   N     0.45600   0.28283   0.04317   0.00000  Uiso   1.00
N135   N     0.54399   0.05050   0.45683   0.00000  Uiso   1.00
N136   N     0.56012   0.04419   0.30186   0.00000  Uiso   1.00
N137   N     0.43990   0.28914   0.19812   0.00000  Uiso   1.00
N138   N     0.44424   0.04992   0.19524   0.00000  Uiso   1.00
O139   O     0.43892   0.20487   0.24999   0.00000  Uiso   1.00
O140   O     0.56108   0.12846   0.25000   0.00000  Uiso   1.00
O141   O     0.56108   0.20487   0.25000   0.00000  Uiso   1.00
O142   O     0.43892   0.12846   0.24999   0.00000  Uiso   1.00
O143   O     0.49999   0.20489   0.18392   0.00000  Uiso   1.00
O144   O     0.50001   0.12844   0.31607   0.00000  Uiso   1.00
O145   O     0.50001   0.20489   0.31607   0.00000  Uiso   1.00
O146   O     0.49999   0.12844   0.18392   0.00000  Uiso   1.00
Zn147  Zn    0.50000   0.21771   0.25000   0.00000  Uiso   1.00
Zn148  Zn    0.50000   0.11563   0.25000   0.00000  Uiso   1.00
C149   C     0.75339   0.16672   0.24987   0.00000  Uiso   1.00
C150   C     0.70920   0.16677   0.24984   0.00000  Uiso   1.00
C151   C     0.86147   0.02287   0.27597   0.00000  Uiso   1.00
C152   C     0.80520   0.31047   0.22403   0.00000  Uiso   1.00
C153   C     0.80583   0.02494   0.22360   0.00000  Uiso   1.00
C154   C     0.86083   0.30840   0.27640   0.00000  Uiso   1.00
C155   C     0.83343   0.16686   0.16344   0.00000  Uiso   1.00
C156   C     0.83324   0.16647   0.33656   0.00000  Uiso   1.00
C157   C     0.84684   0.12837   0.40801   0.00000  Uiso   1.00
C158   C     0.81978   0.20495   0.09199   0.00000  Uiso   1.00
C159   C     0.83291   0.16624   0.38446   0.00000  Uiso   1.00
C160   C     0.91328   0.16661   0.25013   0.00000  Uiso   1.00
C161   C     0.83376   0.16709   0.11554   0.00000  Uiso   1.00
C162   C     0.81896   0.20420   0.40638   0.00000  Uiso   1.00
C163   C     0.84774   0.12915   0.09362   0.00000  Uiso   1.00
C164   C     0.81877   0.20487   0.45261   0.00000  Uiso   1.00
C165   C     0.84791   0.12847   0.04739   0.00000  Uiso   1.00
C166   C     0.83322   0.16652   0.47678   0.00000  Uiso   1.00
C167   C     0.83344   0.16681   0.02323   0.00000  Uiso   1.00
C168   C     0.84748   0.12791   0.45433   0.00000  Uiso   1.00
C169   C     0.81916   0.20541   0.04567   0.00000  Uiso   1.00
C170   C     0.80437   0.24310   0.47482   0.00000  Uiso   1.00
C171   C     0.80448   0.24347   0.02140   0.00000  Uiso   1.00
C172   C     0.86232   0.09024   0.02518   0.00000  Uiso   1.00
C173   C     0.86218   0.08986   0.47860   0.00000  Uiso   1.00
C174   C     0.68781   0.12878   0.23509   0.00000  Uiso   1.00
C175   C     0.97886   0.20456   0.26490   0.00000  Uiso   1.00
C176   C     0.97843   0.12865   0.23523   0.00000  Uiso   1.00
C177   C     0.68823   0.20469   0.26476   0.00000  Uiso   1.00
C178   C     0.95746   0.16657   0.25015   0.00000  Uiso   1.00
H179   H     0.85767   0.09965   0.38982   0.00000  Uiso   1.00
H180   H     0.80716   0.30945   0.45940   0.00000  Uiso   1.00
H181   H     0.85959   0.02390   0.04062   0.00000  Uiso   1.00
H182   H     0.90825   0.04581   0.04165   0.00000  Uiso   1.00
H183   H     0.76397   0.27385   0.06263   0.00000  Uiso   1.00
H184   H     0.81308   0.29555   0.06374   0.00000  Uiso   1.00
H185   H     0.85357   0.03777   0.43627   0.00000  Uiso   1.00
H186   H     0.90268   0.05949   0.43736   0.00000  Uiso   1.00
H187   H     0.88062   0.06864   0.32180   0.00000  Uiso   1.00
H188   H     0.91516   0.05811   0.28042   0.00000  Uiso   1.00
H189   H     0.75153   0.27520   0.21954   0.00000  Uiso   1.00
H190   H     0.80892   0.23366   0.11018   0.00000  Uiso   1.00
H191   H     0.78608   0.26472   0.17815   0.00000  Uiso   1.00
H192   H     0.78320   0.04120   0.16226   0.00000  Uiso   1.00
H193   H     0.74725   0.04005   0.20260   0.00000  Uiso   1.00
H194   H     0.91942   0.29328   0.29740   0.00000  Uiso   1.00
H195   H     0.88346   0.29214   0.33774   0.00000  Uiso   1.00
H196   H     0.80793   0.23307   0.38711   0.00000  Uiso   1.00
H197   H     0.85880   0.10030   0.11289   0.00000  Uiso   1.00
H198   H     0.70393   0.09952   0.22310   0.00000  Uiso   1.00
H199   H     0.96273   0.23382   0.27689   0.00000  Uiso   1.00
H200   H     0.96194   0.09932   0.22324   0.00000  Uiso   1.00
H201   H     0.70473   0.23402   0.27674   0.00000  Uiso   1.00
H202   H     0.75848   0.28760   0.45834   0.00000  Uiso   1.00
N203   N     0.83333   0.28573   0.25000   0.00000  Uiso   1.00
N204   N     0.88909   0.28342   0.30476   0.00000  Uiso   1.00
N205   N     0.83333   0.04760   0.25000   0.00000  Uiso   1.00
N206   N     0.78944   0.28162   0.44989   0.00000  Uiso   1.00
N207   N     0.87729   0.05174   0.05011   0.00000  Uiso   1.00
N208   N     0.78933   0.28283   0.04317   0.00000  Uiso   1.00
N209   N     0.87732   0.05050   0.45683   0.00000  Uiso   1.00
N210   N     0.89345   0.04419   0.30186   0.00000  Uiso   1.00
N211   N     0.77323   0.28914   0.19812   0.00000  Uiso   1.00
N212   N     0.77757   0.04992   0.19524   0.00000  Uiso   1.00
O213   O     0.77226   0.20487   0.24999   0.00000  Uiso   1.00
O214   O     0.89441   0.12846   0.25000   0.00000  Uiso   1.00
O215   O     0.89441   0.20487   0.25000   0.00000  Uiso   1.00
O216   O     0.77226   0.12846   0.24999   0.00000  Uiso   1.00
O217   O     0.83333   0.20489   0.18392   0.00000  Uiso   1.00
O218   O     0.83334   0.12844   0.31607   0.00000  Uiso   1.00
O219   O     0.83334   0.20489   0.31607   0.00000  Uiso   1.00
O220   O     0.83333   0.12844   0.18392   0.00000  Uiso   1.00
Zn221  Zn    0.83333   0.21771   0.25000   0.00000  Uiso   1.00
Zn222  Zn    0.83333   0.11563   0.25000   0.00000  Uiso   1.00
C223   C     0.08672   0.50005   0.24987   0.00000  Uiso   1.00
C224   C     0.04254   0.50010   0.24984   0.00000  Uiso   1.00
C225   C     0.19480   0.35620   0.27597   0.00000  Uiso   1.00
C226   C     0.13854   0.64380   0.22403   0.00000  Uiso   1.00
C227   C     0.13917   0.35827   0.22360   0.00000  Uiso   1.00
C228   C     0.19417   0.64173   0.27640   0.00000  Uiso   1.00
C229   C     0.16676   0.50020   0.16344   0.00000  Uiso   1.00
C230   C     0.16657   0.49980   0.33656   0.00000  Uiso   1.00
C231   C     0.18018   0.46170   0.40801   0.00000  Uiso   1.00
C232   C     0.15312   0.53829   0.09199   0.00000  Uiso   1.00
C233   C     0.16624   0.49958   0.38446   0.00000  Uiso   1.00
C234   C     0.24661   0.49995   0.25013   0.00000  Uiso   1.00
C235   C     0.16709   0.50043   0.11554   0.00000  Uiso   1.00
C236   C     0.15229   0.53754   0.40638   0.00000  Uiso   1.00
C237   C     0.18107   0.46248   0.09362   0.00000  Uiso   1.00
C238   C     0.15210   0.53821   0.45261   0.00000  Uiso   1.00
C239   C     0.18124   0.46180   0.04739   0.00000  Uiso   1.00
C240   C     0.16655   0.49986   0.47678   0.00000  Uiso   1.00
C241   C     0.16677   0.50014   0.02323   0.00000  Uiso   1.00
C242   C     0.18081   0.46125   0.45433   0.00000  Uiso   1.00
C243   C     0.15250   0.53875   0.04567   0.00000  Uiso   1.00
C244   C     0.13770   0.57644   0.47482   0.00000  Uiso   1.00
C245   C     0.13781   0.57681   0.02140   0.00000  Uiso   1.00
C246   C     0.19565   0.42357   0.02518   0.00000  Uiso   1.00
C247   C     0.19551   0.42320   0.47860   0.00000  Uiso   1.00
C248   C     0.02114   0.46211   0.23509   0.00000  Uiso   1.00
C249   C     0.31219   0.53789   0.26490   0.00000  Uiso   1.00
C250   C     0.31177   0.46198   0.23523   0.00000  Uiso   1.00
C251   C     0.02156   0.53802   0.26476   0.00000  Uiso   1.00
C252   C     0.29080   0.49990   0.25015   0.00000  Uiso   1.00
H253   H     0.19101   0.43298   0.38982   0.00000  Uiso   1.00
H254   H     0.14049   0.64278   0.45940   0.00000  Uiso   1.00
H255   H     0.19293   0.35723   0.04062   0.00000  Uiso   1.00
H256   H     0.24159   0.37914   0.04165   0.00000  Uiso   1.00
H257   H     0.09730   0.60718   0.06263   0.00000  Uiso   1.00
H258   H     0.14641   0.62888   0.06374   0.00000  Uiso   1.00
H259   H     0.18690   0.37110   0.43627   0.00000  Uiso   1.00
H260   H     0.23601   0.39282   0.43736   0.00000  Uiso   1.00
H261   H     0.21395   0.40198   0.32180   0.00000  Uiso   1.00
H262   H     0.24849   0.39144   0.28042   0.00000  Uiso   1.00
H263   H     0.08487   0.60853   0.21954   0.00000  Uiso   1.00
H264   H     0.14225   0.56699   0.11018   0.00000  Uiso   1.00
H265   H     0.11942   0.59806   0.17815   0.00000  Uiso   1.00
H266   H     0.11654   0.37453   0.16226   0.00000  Uiso   1.00
H267   H     0.08058   0.37338   0.20260   0.00000  Uiso   1.00
H268   H     0.25275   0.62662   0.29740   0.00000  Uiso   1.00
H269   H     0.21679   0.62548   0.33774   0.00000  Uiso   1.00
H270   H     0.14127   0.56640   0.38711   0.00000  Uiso   1.00
H271   H     0.19213   0.43363   0.11289   0.00000  Uiso   1.00
H272   H     0.03727   0.43285   0.22310   0.00000  Uiso   1.00
H273   H     0.29607   0.56715   0.27689   0.00000  Uiso   1.00
H274   H     0.29527   0.43265   0.22324   0.00000  Uiso   1.00
H275   H     0.03806   0.56735   0.27674   0.00000  Uiso   1.00
H276   H     0.09181   0.62093   0.45834   0.00000  Uiso   1.00
N277   N     0.16667   0.61907   0.25000   0.00000  Uiso   1.00
N278   N     0.22242   0.61675   0.30476   0.00000  Uiso   1.00
N279   N     0.16667   0.38093   0.25000   0.00000  Uiso   1.00
N280   N     0.12278   0.61496   0.44989   0.00000  Uiso   1.00
N281   N     0.21062   0.38508   0.05011   0.00000  Uiso   1.00
N282   N     0.12266   0.61617   0.04317   0.00000  Uiso   1.00
N283   N     0.21065   0.38384   0.45683   0.00000  Uiso   1.00
N284   N     0.22678   0.37753   0.30186   0.00000  Uiso   1.00
N285   N     0.10657   0.62248   0.19812   0.00000  Uiso   1.00
N286   N     0.11091   0.38325   0.19524   0.00000  Uiso   1.00
O287   O     0.10559   0.53821   0.24999   0.00000  Uiso   1.00
O288   O     0.22774   0.46179   0.25000   0.00000  Uiso   1.00
O289   O     0.22774   0.53821   0.25000   0.00000  Uiso   1.00
O290   O     0.10559   0.46179   0.24999   0.00000  Uiso   1.00
O291   O     0.16666   0.53823   0.18392   0.00000  Uiso   1.00
O292   O     0.16667   0.46177   0.31607   0.00000  Uiso   1.00
O293   O     0.16667   0.53823   0.31607   0.00000  Uiso   1.00
O294   O     0.16666   0.46177   0.18392   0.00000  Uiso   1.00
Zn295  Zn    0.16667   0.55104   0.25000   0.00000  Uiso   1.00
Zn296  Zn    0.16667   0.44896   0.25000   0.00000  Uiso   1.00
C297   C     0.42006   0.50005   0.24987   0.00000  Uiso   1.00
C298   C     0.37587   0.50010   0.24984   0.00000  Uiso   1.00
C299   C     0.52813   0.35620   0.27597   0.00000  Uiso   1.00
C300   C     0.47187   0.64380   0.22403   0.00000  Uiso   1.00
C301   C     0.47250   0.35827   0.22360   0.00000  Uiso   1.00
C302   C     0.52750   0.64173   0.27640   0.00000  Uiso   1.00
C303   C     0.50010   0.50020   0.16344   0.00000  Uiso   1.00
C304   C     0.49990   0.49980   0.33656   0.00000  Uiso   1.00
C305   C     0.51351   0.46170   0.40801   0.00000  Uiso   1.00
C306   C     0.48645   0.53829   0.09199   0.00000  Uiso   1.00
C307   C     0.49957   0.49958   0.38446   0.00000  Uiso   1.00
C308   C     0.57994   0.49995   0.25013   0.00000  Uiso   1.00
C309   C     0.50042   0.50043   0.11554   0.00000  Uiso   1.00
C310   C     0.48563   0.53754   0.40638   0.00000  Uiso   1.00
C311   C     0.51440   0.46248   0.09362   0.00000  Uiso   1.00
C312   C     0.48543   0.53821   0.45261   0.00000  Uiso   1.00
C313   C     0.51458   0.46180   0.04739   0.00000  Uiso   1.00
C314   C     0.49989   0.49986   0.47678   0.00000  Uiso   1.00
C315   C     0.50010   0.50014   0.02323   0.00000  Uiso   1.00
C316   C     0.51415   0.46125   0.45433   0.00000  Uiso   1.00
C317   C     0.48583   0.53875   0.04567   0.00000  Uiso   1.00
C318   C     0.47103   0.57644   0.47482   0.00000  Uiso   1.00
C319   C     0.47115   0.57681   0.02140   0.00000  Uiso   1.00
C320   C     0.52899   0.42357   0.02518   0.00000  Uiso   1.00
C321   C     0.52884   0.42320   0.47860   0.00000  Uiso   1.00
C322   C     0.35447   0.46211   0.23509   0.00000  Uiso   1.00
C323   C     0.64553   0.53789   0.26490   0.00000  Uiso   1.00
C324   C     0.64510   0.46198   0.23523   0.00000  Uiso   1.00
C325   C     0.35490   0.53802   0.26476   0.00000  Uiso   1.00
C326   C     0.62413   0.49990   0.25015   0.00000  Uiso   1.00
H327   H     0.52434   0.43298   0.38982   0.00000  Uiso   1.00
H328   H     0.47383   0.64278   0.45940   0.00000  Uiso   1.00
H329   H     0.52626   0.35723   0.04062   0.00000  Uiso   1.00
H330   H     0.57492   0.37914   0.04165   0.00000  Uiso   1.00
H331   H     0.43063   0.60718   0.06263   0.00000  Uiso   1.00
H332   H     0.47974   0.62888   0.06374   0.00000  Uiso   1.00
H333   H     0.52024   0.37110   0.43627   0.00000  Uiso   1.00
H334   H     0.56934   0.39282   0.43736   0.00000  Uiso   1.00
H335   H     0.54728   0.40198   0.32180   0.00000  Uiso   1.00
H336   H     0.58182   0.39144   0.28042   0.00000  Uiso   1.00
H337   H     0.41820   0.60853   0.21954   0.00000  Uiso   1.00
H338   H     0.47559   0.56699   0.11018   0.00000  Uiso   1.00
H339   H     0.45275   0.59806   0.17815   0.00000  Uiso   1.00
H340   H     0.44987   0.37453   0.16226   0.00000  Uiso   1.00
H341   H     0.41391   0.37338   0.20260   0.00000  Uiso   1.00
H342   H     0.58608   0.62662   0.29740   0.00000  Uiso   1.00
H343   H     0.55013   0.62548   0.33774   0.00000  Uiso   1.00
H344   H     0.47460   0.56640   0.38711   0.00000  Uiso   1.00
H345   H     0.52547   0.43363   0.11289   0.00000  Uiso   1.00
H346   H     0.37060   0.43285   0.22310   0.00000  Uiso   1.00
H347   H     0.62940   0.56715   0.27689   0.00000  Uiso   1.00
H348   H     0.62861   0.43265   0.22324   0.00000  Uiso   1.00
H349   H     0.37139   0.56735   0.27674   0.00000  Uiso   1.00
H350   H     0.42515   0.62093   0.45834   0.00000  Uiso   1.00
N351   N     0.50000   0.61907   0.25000   0.00000  Uiso   1.00
N352   N     0.55576   0.61675   0.30476   0.00000  Uiso   1.00
N353   N     0.50000   0.38093   0.25000   0.00000  Uiso   1.00
N354   N     0.45611   0.61496   0.44989   0.00000  Uiso   1.00
N355   N     0.54396   0.38508   0.05011   0.00000  Uiso   1.00
N356   N     0.45600   0.61617   0.04317   0.00000  Uiso   1.00
N357   N     0.54399   0.38384   0.45683   0.00000  Uiso   1.00
N358   N     0.56012   0.37753   0.30186   0.00000  Uiso   1.00
N359   N     0.43990   0.62248   0.19812   0.00000  Uiso   1.00
N360   N     0.44424   0.38325   0.19524   0.00000  Uiso   1.00
O361   O     0.43892   0.53821   0.24999   0.00000  Uiso   1.00
O362   O     0.56108   0.46179   0.25000   0.00000  Uiso   1.00
O363   O     0.56108   0.53821   0.25000   0.00000  Uiso   1.00
O364   O     0.43892   0.46179   0.24999   0.00000  Uiso   1.00
O365   O     0.49999   0.53823   0.18392   0.00000  Uiso   1.00
O366   O     0.50001   0.46177   0.31607   0.00000  Uiso   1.00
O367   O     0.50001   0.53823   0.31607   0.00000  Uiso   1.00
O368   O     0.49999   0.46177   0.18392   0.00000  Uiso   1.00
Zn369  Zn    0.50000   0.55104   0.25000   0.00000  Uiso   1.00
Zn370  Zn    0.50000   0.44896   0.25000   0.00000  Uiso   1.00
C371   C     0.75339   0.50005   0.24987   0.00000  Uiso   1.00
C372   C     0.70920   0.50010   0.24984   0.00000  Uiso   1.00
C373   C     0.86147   0.35620   0.27597   0.00000  Uiso   1.00
C374   C     0.80520   0.64380   0.22403   0.00000  Uiso   1.00
C375   C     0.80583   0.35827   0.22360   0.00000  Uiso   1.00
C376   C     0.86083   0.64173   0.27640   0.00000  Uiso   1.00
C377   C     0.83343   0.50020   0.16344   0.00000  Uiso   1.00
C378   C     0.83324   0.49980   0.33656   0.00000  Uiso   1.00
C379   C     0.84684   0.46170   0.40801   0.00000  Uiso   1.00
C380   C     0.81978   0.53829   0.09199   0.00000  Uiso   1.00
C381   C     0.83291   0.49958   0.38446   0.00000  Uiso   1.00
C382   C     0.91328   0.49995   0.25013   0.00000  Uiso   1.00
C383   C     0.83376   0.50043   0.11554   0.00000  Uiso   1.00
C384   C     0.81896   0.53754   0.40638   0.00000  Uiso   1.00
C385   C     0.84774   0.46248   0.09362   0.00000  Uiso   1.00
C386   C     0.81877   0.53821   0.45261   0.00000  Uiso   1.00
C387   C     0.84791   0.46180   0.04739   0.00000  Uiso   1.00
C388   C     0.83322   0.49986   0.47678   0.00000  Uiso   1.00
C389   C     0.83344   0.50014   0.02323   0.00000  Uiso   1.00
C390   C     0.84748   0.46125   0.45433   0.00000  Uiso   1.00
C391   C     0.81916   0.53875   0.04567   0.00000  Uiso   1.00
C392   C     0.80437   0.57644   0.47482   0.00000  Uiso   1.00
C393   C     0.80448   0.57681   0.02140   0.00000  Uiso   1.00
C394   C     0.86232   0.42357   0.02518   0.00000  Uiso   1.00
C395   C     0.86218   0.42320   0.47860   0.00000  Uiso   1.00
C396   C     0.68781   0.46211   0.23509   0.00000  Uiso   1.00
C397   C     0.97886   0.53789   0.26490   0.00000  Uiso   1.00
C398   C     0.97843   0.46198   0.23523   0.00000  Uiso   1.00
C399   C     0.68823   0.53802   0.26476   0.00000  Uiso   1.00
C400   C     0.95746   0.49990   0.25015   0.00000  Uiso   1.00
H401   H     0.85767   0.43298   0.38982   0.00000  Uiso   1.00
H402   H     0.80716   0.64278   0.45940   0.00000  Uiso   1.00
H403   H     0.85959   0.35723   0.04062   0.00000  Uiso   1.00
H404   H     0.90825   0.37914   0.04165   0.00000  Uiso   1.00
H405   H     0.76397   0.60718   0.06263   0.00000  Uiso   1.00
H406   H     0.81308   0.62888   0.06374   0.00000  Uiso   1.00
H407   H     0.85357   0.37110   0.43627   0.00000  Uiso   1.00
H408   H     0.90268   0.39282   0.43736   0.00000  Uiso   1.00
H409   H     0.88062   0.40198   0.32180   0.00000  Uiso   1.00
H410   H     0.91516   0.39144   0.28042   0.00000  Uiso   1.00
H411   H     0.75153   0.60853   0.21954   0.00000  Uiso   1.00
H412   H     0.80892   0.56699   0.11018   0.00000  Uiso   1.00
H413   H     0.78608   0.59806   0.17815   0.00000  Uiso   1.00
H414   H     0.78320   0.37453   0.16226   0.00000  Uiso   1.00
H415   H     0.74725   0.37338   0.20260   0.00000  Uiso   1.00
H416   H     0.91942   0.62662   0.29740   0.00000  Uiso   1.00
H417   H     0.88346   0.62548   0.33774   0.00000  Uiso   1.00
H418   H     0.80793   0.56640   0.38711   0.00000  Uiso   1.00
H419   H     0.85880   0.43363   0.11289   0.00000  Uiso   1.00
H420   H     0.70393   0.43285   0.22310   0.00000  Uiso   1.00
H421   H     0.96273   0.56715   0.27689   0.00000  Uiso   1.00
H422   H     0.96194   0.43265   0.22324   0.00000  Uiso   1.00
H423   H     0.70473   0.56735   0.27674   0.00000  Uiso   1.00
H424   H     0.75848   0.62093   0.45834   0.00000  Uiso   1.00
N425   N     0.83333   0.61907   0.25000   0.00000  Uiso   1.00
N426   N     0.88909   0.61675   0.30476   0.00000  Uiso   1.00
N427   N     0.83333   0.38093   0.25000   0.00000  Uiso   1.00
N428   N     0.78944   0.61496   0.44989   0.00000  Uiso   1.00
N429   N     0.87729   0.38508   0.05011   0.00000  Uiso   1.00
N430   N     0.78933   0.61617   0.04317   0.00000  Uiso   1.00
N431   N     0.87732   0.38384   0.45683   0.00000  Uiso   1.00
N432   N     0.89345   0.37753   0.30186   0.00000  Uiso   1.00
N433   N     0.77323   0.62248   0.19812   0.00000  Uiso   1.00
N434   N     0.77757   0.38325   0.19524   0.00000  Uiso   1.00
O435   O     0.77226   0.53821   0.24999   0.00000  Uiso   1.00
O436   O     0.89441   0.46179   0.25000   0.00000  Uiso   1.00
O437   O     0.89441   0.53821   0.25000   0.00000  Uiso   1.00
O438   O     0.77226   0.46179   0.24999   0.00000  Uiso   1.00
O439   O     0.83333   0.53823   0.18392   0.00000  Uiso   1.00
O440   O     0.83334   0.46177   0.31607   0.00000  Uiso   1.00
O441   O     0.83334   0.53823   0.31607   0.00000  Uiso   1.00
O442   O     0.83333   0.46177   0.18392   0.00000  Uiso   1.00
Zn443  Zn    0.83333   0.55104   0.25000   0.00000  Uiso   1.00
Zn444  Zn    0.83333   0.44896   0.25000   0.00000  Uiso   1.00
C445   C     0.08672   0.83339   0.24987   0.00000  Uiso   1.00
C446   C     0.04254   0.83344   0.24984   0.00000  Uiso   1.00
C447   C     0.19480   0.68953   0.27597   0.00000  Uiso   1.00
C448   C     0.13854   0.97714   0.22403   0.00000  Uiso   1.00
C449   C     0.13917   0.69160   0.22360   0.00000  Uiso   1.00
C450   C     0.19417   0.97506   0.27640   0.00000  Uiso   1.00
C451   C     0.16676   0.83353   0.16344   0.00000  Uiso   1.00
C452   C     0.16657   0.83314   0.33656   0.00000  Uiso   1.00
C453   C     0.18018   0.79504   0.40801   0.00000  Uiso   1.00
C454   C     0.15312   0.87162   0.09199   0.00000  Uiso   1.00
C455   C     0.16624   0.83291   0.38446   0.00000  Uiso   1.00
C456   C     0.24661   0.83328   0.25013   0.00000  Uiso   1.00
C457   C     0.16709   0.83376   0.11554   0.00000  Uiso   1.00
C458   C     0.15229   0.87087   0.40638   0.00000  Uiso   1.00
C459   C     0.18107   0.79581   0.09362   0.00000  Uiso   1.00
C460   C     0.15210   0.87154   0.45261   0.00000  Uiso   1.00
C461   C     0.18124   0.79513   0.04739   0.00000  Uiso   1.00
C462   C     0.16655   0.83319   0.47678   0.00000  Uiso   1.00
C463   C     0.16677   0.83348   0.02323   0.00000  Uiso   1.00
C464   C     0.18081   0.79458   0.45433   0.00000  Uiso   1.00
C465   C     0.15250   0.87208   0.04567   0.00000  Uiso   1.00
C466   C     0.13770   0.90977   0.47482   0.00000  Uiso   1.00
C467   C     0.13781   0.91014   0.02140   0.00000  Uiso   1.00
C468   C     0.19565   0.75691   0.02518   0.00000  Uiso   1.00
C469   C     0.19551   0.75653   0.47860   0.00000  Uiso   1.00
C470   C     0.02114   0.79544   0.23509   0.00000  Uiso   1.00
C471   C     0.31219   0.87123   0.26490   0.00000  Uiso   1.00
C472   C     0.31177   0.79532   0.23523   0.00000  Uiso   1.00
C473   C     0.02156   0.87135   0.26476   0.00000  Uiso   1.00
C474   C     0.29080   0.83323   0.25015   0.00000  Uiso   1.00
H475   H     0.19101   0.76632   0.38982   0.00000  Uiso   1.00
H476   H     0.14049   0.97611   0.45940   0.00000  Uiso   1.00
H477   H     0.19293   0.69056   0.04062   0.00000  Uiso   1.00
H478   H     0.24159   0.71247   0.04165   0.00000  Uiso   1.00
H479   H     0.09730   0.94052   0.06263   0.00000  Uiso   1.00
H480   H     0.14641   0.96222   0.06374   0.00000  Uiso   1.00
H481   H     0.18690   0.70444   0.43627   0.00000  Uiso   1.00
H482   H     0.23601   0.72615   0.43736   0.00000  Uiso   1.00
H483   H     0.21395   0.73531   0.32180   0.00000  Uiso   1.00
H484   H     0.24849   0.72477   0.28042   0.00000  Uiso   1.00
H485   H     0.08487   0.94186   0.21954   0.00000  Uiso   1.00
H486   H     0.14225   0.90032   0.11018   0.00000  Uiso   1.00
H487   H     0.11942   0.93139   0.17815   0.00000  Uiso   1.00
H488   H     0.11654   0.70786   0.16226   0.00000  Uiso   1.00
H489   H     0.08058   0.70671   0.20260   0.00000  Uiso   1.00
H490   H     0.25275   0.95995   0.29740   0.00000  Uiso   1.00
H491   H     0.21679   0.95881   0.33774   0.00000  Uiso   1.00
H492   H     0.14127   0.89973   0.38711   0.00000  Uiso   1.00
H493   H     0.19213   0.76696   0.11289   0.00000  Uiso   1.00
H494   H     0.03727   0.76619   0.22310   0.00000  Uiso   1.00
H495   H     0.29607   0.90049   0.27689   0.00000  Uiso   1.00
H496   H     0.29527   0.76598   0.22324   0.00000  Uiso   1.00
H497   H     0.03806   0.90069   0.27674   0.00000  Uiso   1.00
H498   H     0.09181   0.95426   0.45834   0.00000  Uiso   1.00
N499   N     0.16667   0.95240   0.25000   0.00000  Uiso   1.00
N500   N     0.22242   0.95008   0.30476   0.00000  Uiso   1.00
N501   N     0.16667   0.71427   0.25000   0.00000  Uiso   1.00
N502   N     0.12278   0.94829   0.44989   0.00000  Uiso   1.00
N503   N     0.21062   0.71841   0.05011   0.00000  Uiso   1.00
N504   N     0.12266   0.94950   0.04317   0.00000  Uiso   1.00
N505   N     0.21065   0.71717   0.45683   0.00000  Uiso   1.00
N506   N     0.22678   0.71086   0.30186   0.00000  Uiso   1.00
N507   N     0.10657   0.95581   0.19812   0.00000  Uiso   1.00
N508   N     0.11091   0.71658   0.19524   0.00000  Uiso   1.00
O509   O     0.10559   0.87154   0.24999   0.00000  Uiso   1.00
O510   O     0.22774   0.79513   0.25000   0.00000  Uiso   1.00
O511   O     0.22774   0.87154   0.25000   0.00000  Uiso   1.00
O512   O     0.10559   0.79513   0.24999   0.00000  Uiso   1.00
O513   O     0.16666   0.87156   0.18392   0.00000  Uiso   1.00
O514   O     0.16667   0.79511   0.31607   0.00000  Uiso   1.00
O515   O     0.16667   0.87156   0.31607   0.00000  Uiso   1.00
O516   O     0.16666   0.79511   0.18392   0.00000  Uiso   1.00
Zn517  Zn    0.16667   0.88437   0.25000   0.00000  Uiso   1.00
Zn518  Zn    0.16667   0.78229   0.25000   0.00000  Uiso   1.00
C519   C     0.42006   0.83339   0.24987   0.00000  Uiso   1.00
C520   C     0.37587   0.83344   0.24984   0.00000  Uiso   1.00
C521   C     0.52813   0.68953   0.27597   0.00000  Uiso   1.00
C522   C     0.47187   0.97714   0.22403   0.00000  Uiso   1.00
C523   C     0.47250   0.69160   0.22360   0.00000  Uiso   1.00
C524   C     0.52750   0.97506   0.27640   0.00000  Uiso   1.00
C525   C     0.50010   0.83353   0.16344   0.00000  Uiso   1.00
C526   C     0.49990   0.83314   0.33656   0.00000  Uiso   1.00
C527   C     0.51351   0.79504   0.40801   0.00000  Uiso   1.00
C528   C     0.48645   0.87162   0.09199   0.00000  Uiso   1.00
C529   C     0.49957   0.83291   0.38446   0.00000  Uiso   1.00
C530   C     0.57994   0.83328   0.25013   0.00000  Uiso   1.00
C531   C     0.50042   0.83376   0.11554   0.00000  Uiso   1.00
C532   C     0.48563   0.87087   0.40638   0.00000  Uiso   1.00
C533   C     0.51440   0.79581   0.09362   0.00000  Uiso   1.00
C534   C     0.48543   0.87154   0.45261   0.00000  Uiso   1.00
C535   C     0.51458   0.79513   0.04739   0.00000  Uiso   1.00
C536   C     0.49989   0.83319   0.47678   0.00000  Uiso   1.00
C537   C     0.50010   0.83348   0.02323   0.00000  Uiso   1.00
C538   C     0.51415   0.79458   0.45433   0.00000  Uiso   1.00
C539   C     0.48583   0.87208   0.04567   0.00000  Uiso   1.00
C540   C     0.47103   0.90977   0.47482   0.00000  Uiso   1.00
C541   C     0.47115   0.91014   0.02140   0.00000  Uiso   1.00
C542   C     0.52899   0.75691   0.02518   0.00000  Uiso   1.00
C543   C     0.52884   0.75653   0.47860   0.00000  Uiso   1.00
C544   C     0.35447   0.79544   0.23509   0.00000  Uiso   1.00
C545   C     0.64553   0.87123   0.26490   0.00000  Uiso   1.00
C546   C     0.64510   0.79532   0.23523   0.00000  Uiso   1.00
C547   C     0.35490   0.87135   0.26476   0.00000  Uiso   1.00
C548   C     0.62413   0.83323   0.25015   0.00000  Uiso   1.00
H549   H     0.52434   0.76632   0.38982   0.00000  Uiso   1.00
H550   H     0.47383   0.97611   0.45940   0.00000  Uiso   1.00
H551   H     0.52626   0.69056   0.04062   0.00000  Uiso   1.00
H552   H     0.57492   0.71247   0.04165   0.00000  Uiso   1.00
H553   H     0.43063   0.94052   0.06263   0.00000  Uiso   1.00
H554   H     0.47974   0.96222   0.06374   0.00000  Uiso   1.00
H555   H     0.52024   0.70444   0.43627   0.00000  Uiso   1.00
H556   H     0.56934   0.72615   0.43736   0.00000  Uiso   1.00
H557   H     0.54728   0.73531   0.32180   0.00000  Uiso   1.00
H558   H     0.58182   0.72477   0.28042   0.00000  Uiso   1.00
H559   H     0.41820   0.94186   0.21954   0.00000  Uiso   1.00
H560   H     0.47559   0.90032   0.11018   0.00000  Uiso   1.00
H561   H     0.45275   0.93139   0.17815   0.00000  Uiso   1.00
H562   H     0.44987   0.70786   0.16226   0.00000  Uiso   1.00
H563   H     0.41391   0.70671   0.20260   0.00000  Uiso   1.00
H564   H     0.58608   0.95995   0.29740   0.00000  Uiso   1.00
H565   H     0.55013   0.95881   0.33774   0.00000  Uiso   1.00
H566   H     0.47460   0.89973   0.38711   0.00000  Uiso   1.00
H567   H     0.52547   0.76696   0.11289   0.00000  Uiso   1.00
H568   H     0.37060   0.76619   0.22310   0.00000  Uiso   1.00
H569   H     0.62940   0.90049   0.27689   0.00000  Uiso   1.00
H570   H     0.62861   0.76598   0.22324   0.00000  Uiso   1.00
H571   H     0.37139   0.90069   0.27674   0.00000  Uiso   1.00
H572   H     0.42515   0.95426   0.45834   0.00000  Uiso   1.00
N573   N     0.50000   0.95240   0.25000   0.00000  Uiso   1.00
N574   N     0.55576   0.95008   0.30476   0.00000  Uiso   1.00
N575   N     0.50000   0.71427   0.25000   0.00000  Uiso   1.00
N576   N     0.45611   0.94829   0.44989   0.00000  Uiso   1.00
N577   N     0.54396   0.71841   0.05011   0.00000  Uiso   1.00
N578   N     0.45600   0.94950   0.04317   0.00000  Uiso   1.00
N579   N     0.54399   0.71717   0.45683   0.00000  Uiso   1.00
N580   N     0.56012   0.71086   0.30186   0.00000  Uiso   1.00
N581   N     0.43990   0.95581   0.19812   0.00000  Uiso   1.00
N582   N     0.44424   0.71658   0.19524   0.00000  Uiso   1.00
O583   O     0.43892   0.87154   0.24999   0.00000  Uiso   1.00
O584   O     0.56108   0.79513   0.25000   0.00000  Uiso   1.00
O585   O     0.56108   0.87154   0.25000   0.00000  Uiso   1.00
O586   O     0.43892   0.79513   0.24999   0.00000  Uiso   1.00
O587   O     0.49999   0.87156   0.18392   0.00000  Uiso   1.00
O588   O     0.50001   0.79511   0.31607   0.00000  Uiso   1.00
O589   O     0.50001   0.87156   0.31607   0.00000  Uiso   1.00
O590   O     0.49999   0.79511   0.18392   0.00000  Uiso   1.00
Zn591  Zn    0.50000   0.88437   0.25000   0.00000  Uiso   1.00
Zn592  Zn    0.50000   0.78229   0.25000   0.00000  Uiso   1.00
C593   C     0.75339   0.83339   0.24987   0.00000  Uiso   1.00
C594   C     0.70920   0.83344   0.24984   0.00000  Uiso   1.00
C595   C     0.86147   0.68953   0.27597   0.00000  Uiso   1.00
C596   C     0.80520   0.97714   0.22403   0.00000  Uiso   1.00
C597   C     0.80583   0.69160   0.22360   0.00000  Uiso   1.00
C598   C     0.86083   0.97506   0.27640   0.00000  Uiso   1.00
C599   C     0.83343   0.83353   0.16344   0.00000  Uiso   1.00
C600   C     0.83324   0.83314   0.33656   0.00000  Uiso   1.00
C601   C     0.84684   0.79504   0.40801   0.00000  Uiso   1.00
C602   C     0.81978   0.87162   0.09199   0.00000  Uiso   1.00
C603   C     0.83291   0.83291   0.38446   0.00000  Uiso   1.00
C604   C     0.91328   0.83328   0.25013   0.00000  Uiso   1.00
C605   C     0.83376   0.83376   0.11554   0.00000  Uiso   1.00
C606   C     0.81896   0.87087   0.40638   0.00000  Uiso   1.00
C607   C     0.84774   0.79581   0.09362   0.00000  Uiso   1.00
C608   C     0.81877   0.87154   0.45261   0.00000  Uiso   1.00
C609   C     0.84791   0.79513   0.04739   0.00000  Uiso   1.00
C610   C     0.83322   0.83319   0.47678   0.00000  Uiso   1.00
C611   C     0.83344   0.83348   0.02323   0.00000  Uiso   1.00
C612   C     0.84748   0.79458   0.45433   0.00000  Uiso   1.00
C613   C     0.81916   0.87208   0.04567   0.00000  Uiso   1.00
C614   C     0.80437   0.90977   0.47482   0.00000  Uiso   1.00
C615   C     0.80448   0.91014   0.02140   0.00000  Uiso   1.00
C616   C     0.86232   0.75691   0.02518   0.00000  Uiso   1.00
C617   C     0.86218   0.75653   0.47860   0.00000  Uiso   1.00
C618   C     0.68781   0.79544   0.23509   0.00000  Uiso   1.00
C619   C     0.97886   0.87123   0.26490   0.00000  Uiso   1.00
C620   C     0.97843   0.79532   0.23523   0.00000  Uiso   1.00
C621   C     0.68823   0.87135   0.26476   0.00000  Uiso   1.00
C622   C     0.95746   0.83323   0.25015   0.00000  Uiso   1.00
H623   H     0.85767   0.76632   0.38982   0.00000  Uiso   1.00
H624   H     0.80716   0.97611   0.45940   0.00000  Uiso   1.00
H625   H     0.85959   0.69056   0.04062   0.00000  Uiso   1.00
H626   H     0.90825   0.71247   0.04165   0.00000  Uiso   1.00
H627   H     0.76397   0.94052   0.06263   0.00000  Uiso   1.00
H628   H     0.81308   0.96222   0.06374   0.00000  Uiso   1.00
H629   H     0.85357   0.70444   0.43627   0.00000  Uiso   1.00
H630   H     0.90268   0.72615   0.43736   0.00000  Uiso   1.00
H631   H     0.88062   0.73531   0.32180   0.00000  Uiso   1.00
H632   H     0.91516   0.72477   0.28042   0.00000  Uiso   1.00
H633   H     0.75153   0.94186   0.21954   0.00000  Uiso   1.00
H634   H     0.80892   0.90032   0.11018   0.00000  Uiso   1.00
H635   H     0.78608   0.93139   0.17815   0.00000  Uiso   1.00
H636   H     0.78320   0.70786   0.16226   0.00000  Uiso   1.00
H637   H     0.74725   0.70671   0.20260   0.00000  Uiso   1.00
H638   H     0.91942   0.95995   0.29740   0.00000  Uiso   1.00
H639   H     0.88346   0.95881   0.33774   0.00000  Uiso   1.00
H640   H     0.80793   0.89973   0.38711   0.00000  Uiso   1.00
H641   H     0.85880   0.76696   0.11289   0.00000  Uiso   1.00
H642   H     0.70393   0.76619   0.22310   0.00000  Uiso   1.00
H643   H     0.96273   0.90049   0.27689   0.00000  Uiso   1.00
H644   H     0.96194   0.76598   0.22324   0.00000  Uiso   1.00
H645   H     0.70473   0.90069   0.27674   0.00000  Uiso   1.00
H646   H     0.75848   0.95426   0.45834   0.00000  Uiso   1.00
N647   N     0.83333   0.95240   0.25000   0.00000  Uiso   1.00
N648   N     0.88909   0.95008   0.30476   0.00000  Uiso   1.00
N649   N     0.83333   0.71427   0.25000   0.00000  Uiso   1.00
N650   N     0.78944   0.94829   0.44989   0.00000  Uiso   1.00
N651   N     0.87729   0.71841   0.05011   0.00000  Uiso   1.00
N652   N     0.78933   0.94950   0.04317   0.00000  Uiso   1.00
N653   N     0.87732   0.71717   0.45683   0.00000  Uiso   1.00
N654   N     0.89345   0.71086   0.30186   0.00000  Uiso   1.00
N655   N     0.77323   0.95581   0.19812   0.00000  Uiso   1.00
N656   N     0.77757   0.71658   0.19524   0.00000  Uiso   1.00
O657   O     0.77226   0.87154   0.24999   0.00000  Uiso   1.00
O658   O     0.89441   0.79513   0.25000   0.00000  Uiso   1.00
O659   O     0.89441   0.87154   0.25000   0.00000  Uiso   1.00
O660   O     0.77226   0.79513   0.24999   0.00000  Uiso   1.00
O661   O     0.83333   0.87156   0.18392   0.00000  Uiso   1.00
O662   O     0.83334   0.79511   0.31607   0.00000  Uiso   1.00
O663   O     0.83334   0.87156   0.31607   0.00000  Uiso   1.00
O664   O     0.83333   0.79511   0.18392   0.00000  Uiso   1.00
Zn665  Zn    0.83333   0.88437   0.25000   0.00000  Uiso   1.00
Zn666  Zn    0.83333   0.78229   0.25000   0.00000  Uiso   1.00
C667   C     0.08672   0.16672   0.74987   0.00000  Uiso   1.00
C668   C     0.04254   0.16677   0.74984   0.00000  Uiso   1.00
C669   C     0.19480   0.02287   0.77597   0.00000  Uiso   1.00
C670   C     0.13854   0.31047   0.72403   0.00000  Uiso   1.00
C671   C     0.13917   0.02494   0.72360   0.00000  Uiso   1.00
C672   C     0.19417   0.30840   0.77640   0.00000  Uiso   1.00
C673   C     0.16676   0.16686   0.66344   0.00000  Uiso   1.00
C674   C     0.16657   0.16647   0.83656   0.00000  Uiso   1.00
C675   C     0.18018   0.12837   0.90801   0.00000  Uiso   1.00
C676   C     0.15312   0.20495   0.59199   0.00000  Uiso   1.00
C677   C     0.16624   0.16624   0.88446   0.00000  Uiso   1.00
C678   C     0.24661   0.16661   0.75013   0.00000  Uiso   1.00
C679   C     0.16709   0.16709   0.61554   0.00000  Uiso   1.00
C680   C     0.15229   0.20420   0.90638   0.00000  Uiso   1.00
C681   C     0.18107   0.12915   0.59362   0.00000  Uiso   1.00
C682   C     0.15210   0.20487   0.95261   0.00000  Uiso   1.00
C683   C     0.18124   0.12847   0.54739   0.00000  Uiso   1.00
C684   C     0.16655   0.16652   0.97678   0.00000  Uiso   1.00
C685   C     0.16677   0.16681   0.52323   0.00000  Uiso   1.00
C686   C     0.18081   0.12791   0.95433   0.00000  Uiso   1.00
C687   C     0.15250   0.20541   0.54567   0.00000  Uiso   1.00
C688   C     0.13770   0.24310   0.97482   0.00000  Uiso   1.00
C689   C     0.13781   0.24347   0.52140   0.00000  Uiso   1.00
C690   C     0.19565   0.09024   0.52518   0.00000  Uiso   1.00
C691   C     0.19551   0.08986   0.97860   0.00000  Uiso   1.00
C692   C     0.02114   0.12878   0.73509   0.00000  Uiso   1.00
C693   C     0.31219   0.20456   0.76490   0.00000  Uiso   1.00
C694   C     0.31177   0.12865   0.73523   0.00000  Uiso   1.00
C695   C     0.02156   0.20469   0.76476   0.00000  Uiso   1.00
C696   C     0.29080   0.16657   0.75015   0.00000  Uiso   1.00
H697   H     0.19101   0.09965   0.88982   0.00000  Uiso   1.00
H698   H     0.14049   0.30945   0.95940   0.00000  Uiso   1.00
H699   H     0.19293   0.02390   0.54062   0.00000  Uiso   1.00
H700   H     0.24159   0.04581   0.54165   0.00000  Uiso   1.00
H701   H     0.09730   0.27385   0.56263   0.00000  Uiso   1.00
H702   H     0.14641   0.29555   0.56374   0.00000  Uiso   1.00
H703   H     0.18690   0.03777   0.93627   0.00000  Uiso   1.00
H704   H     0.23601   0.05949   0.93736   0.00000  Uiso   1.00
H705   H     0.21395   0.06864   0.82180   0.00000  Uiso   1.00
H706   H     0.24849   0.05811   0.78042   0.00000  Uiso   1.00
H707   H     0.08487   0.27520   0.71954   0.00000  Uiso   1.00
H708   H     0.14225   0.23366   0.61018   0.00000  Uiso   1.00
H709   H     0.11942   0.26472   0.67815   0.00000  Uiso   1.00
H710   H     0.11654   0.04120   0.66226   0.00000  Uiso   1.00
H711   H     0.08058   0.04005   0.70260   0.00000  Uiso   1.00
H712   H     0.25275   0.29328   0.79740   0.00000  Uiso   1.00
H713   H     0.21679   0.29214   0.83774   0.00000  Uiso   1.00
H714   H     0.14127   0.23307   0.88711   0.00000  Uiso   1.00
H715   H     0.19213   0.10030   0.61289   0.00000  Uiso   1.00
H716   H     0.03727   0.09952   0.72310   0.00000  Uiso   1.00
H717   H     0.29607   0.23382   0.77689   0.00000  Uiso   1.00
H718   H     0.29527   0.09932   0.72324   0.00000  Uiso   1.00
H719   H     0.03806   0.23402   0.77674   0.00000  Uiso   1.00
H720   H     0.09181   0.28760   0.95834   0.00000  Uiso   1.00
N721   N     0.16667   0.28573   0.75000   0.00000  Uiso   1.00
N722   N     0.22242   0.28342   0.80476   0.00000  Uiso   1.00
N723   N     0.16667   0.04760   0.75000   0.00000  Uiso   1.00
N724   N     0.12278   0.28162   0.94989   0.00000  Uiso   1.00
N725   N     0.21062   0.05174   0.55011   0.00000  Uiso   1.00
N726   N     0.12266   0.28283   0.54317   0.00000  Uiso   1.00
N727   N     0.21065   0.05050   0.95683   0.00000  Uiso   1.00
N728   N     0.22678   0.04419   0.80186   0.00000  Uiso   1.00
N729   N     0.10657   0.28914   0.69812   0.00000  Uiso   1.00
N730   N     0.11091   0.04992   0.69524   0.00000  Uiso   1.00
O731   O     0.10559   0.20487   0.74999   0.00000  Uiso   1.00
O732   O     0.22774   0.12846   0.75000   0.00000  Uiso   1.00
O733   O     0.22774   0.20487   0.75000   0.00000  Uiso   1.00
O734   O     0.10559   0.12846   0.74999   0.00000  Uiso   1.00
O735   O     0.16666   0.20489   0.68392   0.00000  Uiso   1.00
O736   O     0.16667   0.12844   0.81607   0.00000  Uiso   1.00
O737   O     0.16667   0.20489   0.81607   0.00000  Uiso   1.00
O738   O     0.16666   0.12844   0.68392   0.00000  Uiso   1.00
Zn739  Zn    0.16667   0.21771   0.75000   0.00000  Uiso   1.00
Zn740  Zn    0.16667   0.11563   0.75000   0.00000  Uiso   1.00
C741   C     0.42006   0.16672   0.74987   0.00000  Uiso   1.00
C742   C     0.37587   0.16677   0.74984   0.00000  Uiso   1.00
C743   C     0.52813   0.02287   0.77597   0.00000  Uiso   1.00
C744   C     0.47187   0.31047   0.72403   0.00000  Uiso   1.00
C745   C     0.47250   0.02494   0.72360   0.00000  Uiso   1.00
C746   C     0.52750   0.30840   0.77640   0.00000  Uiso   1.00
C747   C     0.50010   0.16686   0.66344   0.00000  Uiso   1.00
C748   C     0.49990   0.16647   0.83656   0.00000  Uiso   1.00
C749   C     0.51351   0.12837   0.90801   0.00000  Uiso   1.00
C750   C     0.48645   0.20495   0.59199   0.00000  Uiso   1.00
C751   C     0.49957   0.16624   0.88446   0.00000  Uiso   1.00
C752   C     0.57994   0.16661   0.75013   0.00000  Uiso   1.00
C753   C     0.50042   0.16709   0.61554   0.00000  Uiso   1.00
C754   C     0.48563   0.20420   0.90638   0.00000  Uiso   1.00
C755   C     0.51440   0.12915   0.59362   0.00000  Uiso   1.00
C756   C     0.48543   0.20487   0.95261   0.00000  Uiso   1.00
C757   C     0.51458   0.12847   0.54739   0.00000  Uiso   1.00
C758   C     0.49989   0.16652   0.97678   0.00000  Uiso   1.00
C759   C     0.50010   0.16681   0.52323   0.00000  Uiso   1.00
C760   C     0.51415   0.12791   0.95433   0.00000  Uiso   1.00
C761   C     0.48583   0.20541   0.54567   0.00000  Uiso   1.00
C762   C     0.47103   0.24310   0.97482   0.00000  Uiso   1.00
C763   C     0.47115   0.24347   0.52140   0.00000  Uiso   1.00
C764   C     0.52899   0.09024   0.52518   0.00000  Uiso   1.00
C765   C     0.52884   0.08986   0.97860   0.00000  Uiso   1.00
C766   C     0.35447   0.12878   0.73509   0.00000  Uiso   1.00
C767   C     0.64553   0.20456   0.76490   0.00000  Uiso   1.00
C768   C     0.64510   0.12865   0.73523   0.00000  Uiso   1.00
C769   C     0.35490   0.20469   0.76476   0.00000  Uiso   1.00
C770   C     0.62413   0.16657   0.75015   0.00000  Uiso   1.00
H771   H     0.52434   0.09965   0.88982   0.00000  Uiso   1.00
H772   H     0.47383   0.30945   0.95940   0.00000  Uiso   1.00
H773   H     0.52626   0.02390   0.54062   0.00000  Uiso   1.00
H774   H     0.57492   0.04581   0.54165   0.00000  Uiso   1.00
H775   H     0.43063   0.27385   0.56263   0.00000  Uiso   1.00
H776   H     0.47974   0.29555   0.56374   0.00000  Uiso   1.00
H777   H     0.52024   0.03777   0.93627   0.00000  Uiso   1.00
H778   H     0.56934   0.05949   0.93736   0.00000  Uiso   1.00
H779   H     0.54728   0.06864   0.82180   0.00000  Uiso   1.00
H780   H     0.58182   0.05811   0.78042   0.00000  Uiso   1.00
H781   H     0.41820   0.27520   0.71954   0.00000  Uiso   1.00
H782   H     0.47559   0.23366   0.61018   0.00000  Uiso   1.00
H783   H     0.45275   0.26472   0.67815   0.00000  Uiso   1.00
H784   H     0.44987   0.04120   0.66226   0.00000  Uiso   1.00
H785   H     0.41391   0.04005   0.70260   0.00000  Uiso   1.00
H786   H     0.58608   0.29328   0.79740   0.00000  Uiso   1.00
H787   H     0.55013   0.29214   0.83774   0.00000  Uiso   1.00
H788   H     0.47460   0.23307   0.88711   0.00000  Uiso   1.00
H789   H     0.52547   0.10030   0.61289   0.00000  Uiso   1.00
H790   H     0.37060   0.09952   0.72310   0.00000  Uiso   1.00
H791   H     0.62940   0.23382   0.77689   0.00000  Uiso   1.00
H792   H     0.62861   0.09932   0.72324   0.00000  Uiso   1.00
H793   H     0.37139   0.23402   0.77674   0.00000  Uiso   1.00
H794   H     0.42515   0.28760   0.95834   0.00000  Uiso   1.00
N795   N     0.50000   0.28573   0.75000   0.00000  Uiso   1.00
N796   N     0.55576   0.28342   0.80476   0.00000  Uiso   1.00
N797   N     0.50000   0.04760   0.75000   0.00000  Uiso   1.00
N798   N     0.45611   0.28162   0.94989   0.00000  Uiso   1.00
N799   N     0.54396   0.05174   0.55011   0.00000  Uiso   1.00
N800   N     0.45600   0.28283   0.54317   0.00000  Uiso   1.00
N801   N     0.54399   0.05050   0.95683   0.00000  Uiso   1.00
N802   N     0.56012   0.04419   0.80186   0.00000  Uiso   1.00
N803   N     0.43990   0.28914   0.69812   0.00000  Uiso   1.00
N804   N     0.44424   0.04992   0.69524   0.00000  Uiso   1.00
O805   O     0.43892   0.20487   0.74999   0.00000  Uiso   1.00
O806   O     0.56108   0.12846   0.75000   0.00000  Uiso   1.00
O807   O     0.56108   0.20487   0.75000   0.00000  Uiso   1.00
O808   O     0.43892   0.12846   0.74999   0.00000  Uiso   1.00
O809   O     0.49999   0.20489   0.68392   0.00000  Uiso   1.00
O810   O     0.50001   0.12844   0.81607   0.00000  Uiso   1.00
O811   O     0.50001   0.20489   0.81607   0.00000  Uiso   1.00
O812   O     0.49999   0.12844   0.68392   0.00000  Uiso   1.00
Zn813  Zn    0.50000   0.21771   0.75000   0.00000  Uiso   1.00
Zn814  Zn    0.50000   0.11563   0.75000   0.00000  Uiso   1.00
C815   C     0.75339   0.16672   0.74987   0.00000  Uiso   1.00
C816   C     0.70920   0.16677   0.74984   0.00000  Uiso   1.00
C817   C     0.86147   0.02287   0.77597   0.00000  Uiso   1.00
C818   C     0.80520   0.31047   0.72403   0.00000  Uiso   1.00
C819   C     0.80583   0.02494   0.72360   0.00000  Uiso   1.00
C820   C     0.86083   0.30840   0.77640   0.00000  Uiso   1.00
C821   C     0.83343   0.16686   0.66344   0.00000  Uiso   1.00
C822   C     0.83324   0.16647   0.83656   0.00000  Uiso   1.00
C823   C     0.84684   0.12837   0.90801   0.00000  Uiso   1.00
C824   C     0.81978   0.20495   0.59199   0.00000  Uiso   1.00
C825   C     0.83291   0.16624   0.88446   0.00000  Uiso   1.00
C826   C     0.91328   0.16661   0.75013   0.00000  Uiso   1.00
C827   C     0.83376   0.16709   0.61554   0.00000  Uiso   1.00
C828   C     0.81896   0.20420   0.90638   0.00000  Uiso   1.00
C829   C     0.84774   0.12915   0.59362   0.00000  Uiso   1.00
C830   C     0.81877   0.20487   0.95261   0.00000  Uiso   1.00
C831   C     0.84791   0.12847   0.54739   0.00000  Uiso   1.00
C832   C     0.83322   0.16652   0.97678   0.00000  Uiso   1.00
C833   C     0.83344   0.16681   0.52323   0.00000  Uiso   1.00
C834   C     0.84748   0.12791   0.95433   0.00000  Uiso   1.00
C835   C     0.81916   0.20541   0.54567   0.00000  Uiso   1.00
C836   C     0.80437   0.24310   0.97482   0.00000  Uiso   1.00
C837   C     0.80448   0.24347   0.52140   0.00000  Uiso   1.00
C838   C     0.86232   0.09024   0.52518   0.00000  Uiso   1.00
C839   C     0.86218   0.08986   0.97860   0.00000  Uiso   1.00
C840   C     0.68781   0.12878   0.73509   0.00000  Uiso   1.00
C841   C     0.97886   0.20456   0.76490   0.00000  Uiso   1.00
C842   C     0.97843   0.12865   0.73523   0.00000  Uiso   1.00
C843   C     0.68823   0.20469   0.76476   0.00000  Uiso   1.00
C844   C     0.95746   0.16657   0.75015   0.00000  Uiso   1.00
H845   H     0.85767   0.09965   0.88982   0.00000  Uiso   1.00
H846   H     0.80716   0.30945   0.95940   0.00000  Uiso   1.00
H847   H     0.85959   0.02390   0.54062   0.00000  Uiso   1.00
H848   H     0.90825   0.04581   0.54165   0.00000  Uiso   1.00
H849   H     0.76397   0.27385   0.56263   0.00000  Uiso   1.00
H850   H     0.81308   0.29555   0.56374   0.00000  Uiso   1.00
H851   H     0.85357   0.03777   0.93627   0.00000  Uiso   1.00
H852   H     0.90268   0.05949   0.93736   0.00000  Uiso   1.00
H853   H     0.88062   0.06864   0.82180   0.00000  Uiso   1.00
H854   H     0.91516   0.05811   0.78042   0.00000  Uiso   1.00
H855   H     0.75153   0.27520   0.71954   0.00000  Uiso   1.00
H856   H     0.80892   0.23366   0.61018   0.00000  Uiso   1.00
H857   H     0.78608   0.26472   0.67815   0.00000  Uiso   1.00
H858   H     0.78320   0.04120   0.66226   0.00000  Uiso   1.00
H859   H     0.74725   0.04005   0.70260   0.00000  Uiso   1.00
H860   H     0.91942   0.29328   0.79740   0.00000  Uiso   1.00
H861   H     0.88346   0.29214   0.83774   0.00000  Uiso   1.00
H862   H     0.80793   0.23307   0.88711   0.00000  Uiso   1.00
H863   H     0.85880   0.10030   0.61289   0.00000  Uiso   1.00
H864   H     0.70393   0.09952   0.72310   0.00000  Uiso   1.00
H865   H     0.96273   0.23382   0.77689   0.00000  Uiso   1.00
H866   H     0.96194   0.09932   0.72324   0.00000  Uiso   1.00
H867   H     0.70473   0.23402   0.77674   0.00000  Uiso   1.00
H868   H     0.75848   0.28760   0.95834   0.00000  Uiso   1.00
N869   N     0.83333   0.28573   0.75000   0.00000  Uiso   1.00
N870   N     0.88909   0.28342   0.80476   0.00000  Uiso   1.00
N871   N     0.83333   0.04760   0.75000   0.00000  Uiso   1.00
N872   N     0.78944   0.28162   0.94989   0.00000  Uiso   1.00
N873   N     0.87729   0.05174   0.55011   0.00000  Uiso   1.00
N874   N     0.78933   0.28283   0.54317   0.00000  Uiso   1.00
N875   N     0.87732   0.05050   0.95683   0.00000  Uiso   1.00
N876   N     0.89345   0.04419   0.80186   0.00000  Uiso   1.00
N877   N     0.77323   0.28914   0.69812   0.00000  Uiso   1.00
N878   N     0.77757   0.04992   0.69524   0.00000  Uiso   1.00
O879   O     0.77226   0.20487   0.74999   0.00000  Uiso   1.00
O880   O     0.89441   0.12846   0.75000   0.00000  Uiso   1.00
O881   O     0.89441   0.20487   0.75000   0.00000  Uiso   1.00
O882   O     0.77226   0.12846   0.74999   0.00000  Uiso   1.00
O883   O     0.83333   0.20489   0.68392   0.00000  Uiso   1.00
O884   O     0.83334   0.12844   0.81607   0.00000  Uiso   1.00
O885   O     0.83334   0.20489   0.81607   0.00000  Uiso   1.00
O886   O     0.83333   0.12844   0.68392   0.00000  Uiso   1.00
Zn887  Zn    0.83333   0.21771   0.75000   0.00000  Uiso   1.00
Zn888  Zn    0.83333   0.11563   0.75000   0.00000  Uiso   1.00
C889   C     0.08672   0.50005   0.74987   0.00000  Uiso   1.00
C890   C     0.04254   0.50010   0.74984   0.00000  Uiso   1.00
C891   C     0.19480   0.35620   0.77597   0.00000  Uiso   1.00
C892   C     0.13854   0.64380   0.72403   0.00000  Uiso   1.00
C893   C     0.13917   0.35827   0.72360   0.00000  Uiso   1.00
C894   C     0.19417   0.64173   0.77640   0.00000  Uiso   1.00
C895   C     0.16676   0.50020   0.66344   0.00000  Uiso   1.00
C896   C     0.16657   0.49980   0.83656   0.00000  Uiso   1.00
C897   C     0.18018   0.46170   0.90801   0.00000  Uiso   1.00
C898   C     0.15312   0.53829   0.59199   0.00000  Uiso   1.00
C899   C     0.16624   0.49958   0.88446   0.00000  Uiso   1.00
C900   C     0.24661   0.49995   0.75013   0.00000  Uiso   1.00
C901   C     0.16709   0.50043   0.61554   0.00000  Uiso   1.00
C902   C     0.15229   0.53754   0.90638   0.00000  Uiso   1.00
C903   C     0.18107   0.46248   0.59362   0.00000  Uiso   1.00
C904   C     0.15210   0.53821   0.95261   0.00000  Uiso   1.00
C905   C     0.18124   0.46180   0.54739   0.00000  Uiso   1.00
C906   C     0.16655   0.49986   0.97678   0.00000  Uiso   1.00
C907   C     0.16677   0.50014   0.52323   0.00000  Uiso   1.00
C908   C     0.18081   0.46125   0.95433   0.00000  Uiso   1.00
C909   C     0.15250   0.53875   0.54567   0.00000  Uiso   1.00
C910   C     0.13770   0.57644   0.97482   0.00000  Uiso   1.00
C911   C     0.13781   0.57681   0.52140   0.00000  Uiso   1.00
C912   C     0.19565   0.42357   0.52518   0.00000  Uiso   1.00
C913   C     0.19551   0.42320   0.97860   0.00000  Uiso   1.00
C914   C     0.02114   0.46211   0.73509   0.00000  Uiso   1.00
C915   C     0.31219   0.53789   0.76490   0.00000  Uiso   1.00
C916   C     0.31177   0.46198   0.73523   0.00000  Uiso   1.00
C917   C     0.02156   0.53802   0.76476   0.00000  Uiso   1.00
C918   C     0.29080   0.49990   0.75015   0.00000  Uiso   1.00
H919   H     0.19101   0.43298   0.88982   0.00000  Uiso   1.00
H920   H     0.14049   0.64278   0.95940   0.00000  Uiso   1.00
H921   H     0.19293   0.35723   0.54062   0.00000  Uiso   1.00
H922   H     0.24159   0.37914   0.54165   0.00000  Uiso   1.00
H923   H     0.09730   0.60718   0.56263   0.00000  Uiso   1.00
H924   H     0.14641   0.62888   0.56374   0.00000  Uiso   1.00
H925   H     0.18690   0.37110   0.93627   0.00000  Uiso   1.00
H926   H     0.23601   0.39282   0.93736   0.00000  Uiso   1.00
H927   H     0.21395   0.40198   0.82180   0.00000  Uiso   1.00
H928   H     0.24849   0.39144   0.78042   0.00000  Uiso   1.00
H929   H     0.08487   0.60853   0.71954   0.00000  Uiso   1.00
H930   H     0.14225   0.56699   0.61018   0.00000  Uiso   1.00
H931   H     0.11942   0.59806   0.67815   0.00000  Uiso   1.00
H932   H     0.11654   0.37453   0.66226   0.00000  Uiso   1.00
H933   H     0.08058   0.37338   0.70260   0.00000  Uiso   1.00
H934   H     0.25275   0.62662   0.79740   0.00000  Uiso   1.00
H935   H     0.21679   0.62548   0.83774   0.00000  Uiso   1.00
H936   H     0.14127   0.56640   0.88711   0.00000  Uiso   1.00
H937   H     0.19213   0.43363   0.61289   0.00000  Uiso   1.00
H938   H     0.03727   0.43285   0.72310   0.00000  Uiso   1.00
H939   H     0.29607   0.56715   0.77689   0.00000  Uiso   1.00
H940   H     0.29527   0.43265   0.72324   0.00000  Uiso   1.00
H941   H     0.03806   0.56735   0.77674   0.00000  Uiso   1.00
H942   H     0.09181   0.62093   0.95834   0.00000  Uiso   1.00
N943   N     0.16667   0.61907   0.75000   0.00000  Uiso   1.00
N944   N     0.22242   0.61675   0.80476   0.00000  Uiso   1.00
N945   N     0.16667   0.38093   0.75000   0.00000  Uiso   1.00
N946   N     0.12278   0.61496   0.94989   0.00000  Uiso   1.00
N947   N     0.21062   0.38508   0.55011   0.00000  Uiso   1.00
N948   N     0.12266   0.61617   0.54317   0.00000  Uiso   1.00
N949   N     0.21065   0.38384   0.95683   0.00000  Uiso   1.00
N950   N     0.22678   0.37753   0.80186   0.00000  Uiso   1.00
N951   N     0.10657   0.62248   0.69812   0.00000  Uiso   1.00
N952   N     0.11091   0.38325   0.69524   0.00000  Uiso   1.00
O953   O     0.10559   0.53821   0.74999   0.00000  Uiso   1.00
O954   O     0.22774   0.46179   0.75000   0.00000  Uiso   1.00
O955   O     0.22774   0.53821   0.75000   0.00000  Uiso   1.00
O956   O     0.10559   0.46179   0.74999   0.00000  Uiso   1.00
O957   O     0.16666   0.53823   0.68392   0.00000  Uiso   1.00
O958   O     0.16667   0.46177   0.81607   0.00000  Uiso   1.00
O959   O     0.16667   0.53823   0.81607   0.00000  Uiso   1.00
O960   O     0.16666   0.46177   0.68392   0.00000  Uiso   1.00
Zn961  Zn    0.16667   0.55104   0.75000   0.00000  Uiso   1.00
Zn962  Zn    0.16667   0.44896   0.75000   0.00000  Uiso   1.00
C963   C     0.42006   0.50005   0.74987   0.00000  Uiso   1.00
C964   C     0.37587   0.50010   0.74984   0.00000  Uiso   1.00
C965   C     0.52813   0.35620   0.77597   0.00000  Uiso   1.00
C966   C     0.47187   0.64380   0.72403   0.00000  Uiso   1.00
C967   C     0.47250   0.35827   0.72360   0.00000  Uiso   1.00
C968   C     0.52750   0.64173   0.77640   0.00000  Uiso   1.00
C969   C     0.50010   0.50020   0.66344   0.00000  Uiso   1.00
C970   C     0.49990   0.49980   0.83656   0.00000  Uiso   1.00
C971   C     0.51351   0.46170   0.90801   0.00000  Uiso   1.00
C972   C     0.48645   0.53829   0.59199   0.00000  Uiso   1.00
C973   C     0.49957   0.49958   0.88446   0.00000  Uiso   1.00
C974   C     0.57994   0.49995   0.75013   0.00000  Uiso   1.00
C975   C     0.50042   0.50043   0.61554   0.00000  Uiso   1.00
C976   C     0.48563   0.53754   0.90638   0.00000  Uiso   1.00
C977   C     0.51440   0.46248   0.59362   0.00000  Uiso   1.00
C978   C     0.48543   0.53821   0.95261   0.00000  Uiso   1.00
C979   C     0.51458   0.46180   0.54739   0.00000  Uiso   1.00
C980   C     0.49989   0.49986   0.97678   0.00000  Uiso   1.00
C981   C     0.50010   0.50014   0.52323   0.00000  Uiso   1.00
C982   C     0.51415   0.46125   0.95433   0.00000  Uiso   1.00
C983   C     0.48583   0.53875   0.54567   0.00000  Uiso   1.00
C984   C     0.47103   0.57644   0.97482   0.00000  Uiso   1.00
C985   C     0.47115   0.57681   0.52140   0.00000  Uiso   1.00
C986   C     0.52899   0.42357   0.52518   0.00000  Uiso   1.00
C987   C     0.52884   0.42320   0.97860   0.00000  Uiso   1.00
C988   C     0.35447   0.46211   0.73509   0.00000  Uiso   1.00
C989   C     0.64553   0.53789   0.76490   0.00000  Uiso   1.00
C990   C     0.64510   0.46198   0.73523   0.00000  Uiso   1.00
C991   C     0.35490   0.53802   0.76476   0.00000  Uiso   1.00
C992   C     0.62413   0.49990   0.75015   0.00000  Uiso   1.00
H993   H     0.52434   0.43298   0.88982   0.00000  Uiso   1.00
H994   H     0.47383   0.64278   0.95940   0.00000  Uiso   1.00
H995   H     0.52626   0.35723   0.54062   0.00000  Uiso   1.00
H996   H     0.57492   0.37914   0.54165   0.00000  Uiso   1.00
H997   H     0.43063   0.60718   0.56263   0.00000  Uiso   1.00
H998   H     0.47974   0.62888   0.56374   0.00000  Uiso   1.00
H999   H     0.52024   0.37110   0.93627   0.00000  Uiso   1.00
H1000  H     0.56934   0.39282   0.93736   0.00000  Uiso   1.00
H1001  H     0.54728   0.40198   0.82180   0.00000  Uiso   1.00
H1002  H     0.58182   0.39144   0.78042   0.00000  Uiso   1.00
H1003  H     0.41820   0.60853   0.71954   0.00000  Uiso   1.00
H1004  H     0.47559   0.56699   0.61018   0.00000  Uiso   1.00
H1005  H     0.45275   0.59806   0.67815   0.00000  Uiso   1.00
H1006  H     0.44987   0.37453   0.66226   0.00000  Uiso   1.00
H1007  H     0.41391   0.37338   0.70260   0.00000  Uiso   1.00
H1008  H     0.58608   0.62662   0.79740   0.00000  Uiso   1.00
H1009  H     0.55013   0.62548   0.83774   0.00000  Uiso   1.00
H1010  H     0.47460   0.56640   0.88711   0.00000  Uiso   1.00
H1011  H     0.52547   0.43363   0.61289   0.00000  Uiso   1.00
H1012  H     0.37060   0.43285   0.72310   0.00000  Uiso   1.00
H1013  H     0.62940   0.56715   0.77689   0.00000  Uiso   1.00
H1014  H     0.62861   0.43265   0.72324   0.00000  Uiso   1.00
H1015  H     0.37139   0.56735   0.77674   0.00000  Uiso   1.00
H1016  H     0.42515   0.62093   0.95834   0.00000  Uiso   1.00
N1017  N     0.50000   0.61907   0.75000   0.00000  Uiso   1.00
N1018  N     0.55576   0.61675   0.80476   0.00000  Uiso   1.00
N1019  N     0.50000   0.38093   0.75000   0.00000  Uiso   1.00
N1020  N     0.45611   0.61496   0.94989   0.00000  Uiso   1.00
N1021  N     0.54396   0.38508   0.55011   0.00000  Uiso   1.00
N1022  N     0.45600   0.61617   0.54317   0.00000  Uiso   1.00
N1023  N     0.54399   0.38384   0.95683   0.00000  Uiso   1.00
N1024  N     0.56012   0.37753   0.80186   0.00000  Uiso   1.00
N1025  N     0.43990   0.62248   0.69812   0.00000  Uiso   1.00
N1026  N     0.44424   0.38325   0.69524   0.00000  Uiso   1.00
O1027  O     0.43892   0.53821   0.74999   0.00000  Uiso   1.00
O1028  O     0.56108   0.46179   0.75000   0.00000  Uiso   1.00
O1029  O     0.56108   0.53821   0.75000   0.00000  Uiso   1.00
O1030  O     0.43892   0.46179   0.74999   0.00000  Uiso   1.00
O1031  O     0.49999   0.53823   0.68392   0.00000  Uiso   1.00
O1032  O     0.50001   0.46177   0.81607   0.00000  Uiso   1.00
O1033  O     0.50001   0.53823   0.81607   0.00000  Uiso   1.00
O1034  O     0.49999   0.46177   0.68392   0.00000  Uiso   1.00
Zn1035 Zn    0.50000   0.55104   0.75000   0.00000  Uiso   1.00
Zn1036 Zn    0.50000   0.44896   0.75000   0.00000  Uiso   1.00
C1037  C     0.75339   0.50005   0.74987   0.00000  Uiso   1.00
C1038  C     0.70920   0.50010   0.74984   0.00000  Uiso   1.00
C1039  C     0.86147   0.35620   0.77597   0.00000  Uiso   1.00
C1040  C     0.80520   0.64380   0.72403   0.00000  Uiso   1.00
C1041  C     0.80583   0.35827   0.72360   0.00000  Uiso   1.00
C1042  C     0.86083   0.64173   0.77640   0.00000  Uiso   1.00
C1043  C     0.83343   0.50020   0.66344   0.00000  Uiso   1.00
C1044  C     0.83324   0.49980   0.83656   0.00000  Uiso   1.00
C1045  C     0.84684   0.46170   0.90801   0.00000  Uiso   1.00
C1046  C     0.81978   0.53829   0.59199   0.00000  Uiso   1.00
C1047  C     0.83291   0.49958   0.88446   0.00000  Uiso   1.00
C1048  C     0.91328   0.49995   0.75013   0.00000  Uiso   1.00
C1049  C     0.83376   0.50043   0.61554   0.00000  Uiso   1.00
C1050  C     0.81896   0.53754   0.90638   0.00000  Uiso   1.00
C1051  C     0.84774   0.46248   0.59362   0.00000  Uiso   1.00
C1052  C     0.81877   0.53821   0.95261   0.00000  Uiso   1.00
C1053  C     0.84791   0.46180   0.54739   0.00000  Uiso   1.00
C1054  C     0.83322   0.49986   0.97678   0.00000  Uiso   1.00
C1055  C     0.83344   0.50014   0.52323   0.00000  Uiso   1.00
C1056  C     0.84748   0.46125   0.95433   0.00000  Uiso   1.00
C1057  C     0.81916   0.53875   0.54567   0.00000  Uiso   1.00
C1058  C     0.80437   0.57644   0.97482   0.00000  Uiso   1.00
C1059  C     0.80448   0.57681   0.52140   0.00000  Uiso   1.00
C1060  C     0.86232   0.42357   0.52518   0.00000  Uiso   1.00
C1061  C     0.86218   0.42320   0.97860   0.00000  Uiso   1.00
C1062  C     0.68781   0.46211   0.73509   0.00000  Uiso   1.00
C1063  C     0.97886   0.53789   0.76490   0.00000  Uiso   1.00
C1064  C     0.97843   0.46198   0.73523   0.00000  Uiso   1.00
C1065  C     0.68823   0.53802   0.76476   0.00000  Uiso   1.00
C1066  C     0.95746   0.49990   0.75015   0.00000  Uiso   1.00
H1067  H     0.85767   0.43298   0.88982   0.00000  Uiso   1.00
H1068  H     0.80716   0.64278   0.95940   0.00000  Uiso   1.00
H1069  H     0.85959   0.35723   0.54062   0.00000  Uiso   1.00
H1070  H     0.90825   0.37914   0.54165   0.00000  Uiso   1.00
H1071  H     0.76397   0.60718   0.56263   0.00000  Uiso   1.00
H1072  H     0.81308   0.62888   0.56374   0.00000  Uiso   1.00
H1073  H     0.85357   0.37110   0.93627   0.00000  Uiso   1.00
H1074  H     0.90268   0.39282   0.93736   0.00000  Uiso   1.00
H1075  H     0.88062   0.40198   0.82180   0.00000  Uiso   1.00
H1076  H     0.91516   0.39144   0.78042   0.00000  Uiso   1.00
H1077  H     0.75153   0.60853   0.71954   0.00000  Uiso   1.00
H1078  H     0.80892   0.56699   0.61018   0.00000  Uiso   1.00
H1079  H     0.78608   0.59806   0.67815   0.00000  Uiso   1.00
H1080  H     0.78320   0.37453   0.66226   0.00000  Uiso   1.00
H1081  H     0.74725   0.37338   0.70260   0.00000  Uiso   1.00
H1082  H     0.91942   0.62662   0.79740   0.00000  Uiso   1.00
H1083  H     0.88346   0.62548   0.83774   0.00000  Uiso   1.00
H1084  H     0.80793   0.56640   0.88711   0.00000  Uiso   1.00
H1085  H     0.85880   0.43363   0.61289   0.00000  Uiso   1.00
H1086  H     0.70393   0.43285   0.72310   0.00000  Uiso   1.00
H1087  H     0.96273   0.56715   0.77689   0.00000  Uiso   1.00
H1088  H     0.96194   0.43265   0.72324   0.00000  Uiso   1.00
H1089  H     0.70473   0.56735   0.77674   0.00000  Uiso   1.00
H1090  H     0.75848   0.62093   0.95834   0.00000  Uiso   1.00
N1091  N     0.83333   0.61907   0.75000   0.00000  Uiso   1.00
N1092  N     0.88909   0.61675   0.80476   0.00000  Uiso   1.00
N1093  N     0.83333   0.38093   0.75000   0.00000  Uiso   1.00
N1094  N     0.78944   0.61496   0.94989   0.00000  Uiso   1.00
N1095  N     0.87729   0.38508   0.55011   0.00000  Uiso   1.00
N1096  N     0.78933   0.61617   0.54317   0.00000  Uiso   1.00
N1097  N     0.87732   0.38384   0.95683   0.00000  Uiso   1.00
N1098  N     0.89345   0.37753   0.80186   0.00000  Uiso   1.00
N1099  N     0.77323   0.62248   0.69812   0.00000  Uiso   1.00
N1100  N     0.77757   0.38325   0.69524   0.00000  Uiso   1.00
O1101  O     0.77226   0.53821   0.74999   0.00000  Uiso   1.00
O1102  O     0.89441   0.46179   0.75000   0.00000  Uiso   1.00
O1103  O     0.89441   0.53821   0.75000   0.00000  Uiso   1.00
O1104  O     0.77226   0.46179   0.74999   0.00000  Uiso   1.00
O1105  O     0.83333   0.53823   0.68392   0.00000  Uiso   1.00
O1106  O     0.83334   0.46177   0.81607   0.00000  Uiso   1.00
O1107  O     0.83334   0.53823   0.81607   0.00000  Uiso   1.00
O1108  O     0.83333   0.46177   0.68392   0.00000  Uiso   1.00
Zn1109 Zn    0.83333   0.55104   0.75000   0.00000  Uiso   1.00
Zn1110 Zn    0.83333   0.44896   0.75000   0.00000  Uiso   1.00
C1111  C     0.08672   0.83339   0.74987   0.00000  Uiso   1.00
C1112  C     0.04254   0.83344   0.74984   0.00000  Uiso   1.00
C1113  C     0.19480   0.68953   0.77597   0.00000  Uiso   1.00
C1114  C     0.13854   0.97714   0.72403   0.00000  Uiso   1.00
C1115  C     0.13917   0.69160   0.72360   0.00000  Uiso   1.00
C1116  C     0.19417   0.97506   0.77640   0.00000  Uiso   1.00
C1117  C     0.16676   0.83353   0.66344   0.00000  Uiso   1.00
C1118  C     0.16657   0.83314   0.83656   0.00000  Uiso   1.00
C1119  C     0.18018   0.79504   0.90801   0.00000  Uiso   1.00
C1120  C     0.15312   0.87162   0.59199   0.00000  Uiso   1.00
C1121  C     0.16624   0.83291   0.88446   0.00000  Uiso   1.00
C1122  C     0.24661   0.83328   0.75013   0.00000  Uiso   1.00
C1123  C     0.16709   0.83376   0.61554   0.00000  Uiso   1.00
C1124  C     0.15229   0.87087   0.90638   0.00000  Uiso   1.00
C1125  C     0.18107   0.79581   0.59362   0.00000  Uiso   1.00
C1126  C     0.15210   0.87154   0.95261   0.00000  Uiso   1.00
C1127  C     0.18124   0.79513   0.54739   0.00000  Uiso   1.00
C1128  C     0.16655   0.83319   0.97678   0.00000  Uiso   1.00
C1129  C     0.16677   0.83348   0.52323   0.00000  Uiso   1.00
C1130  C     0.18081   0.79458   0.95433   0.00000  Uiso   1.00
C1131  C     0.15250   0.87208   0.54567   0.00000  Uiso   1.00
C1132  C     0.13770   0.90977   0.97482   0.00000  Uiso   1.00
C1133  C     0.13781   0.91014   0.52140   0.00000  Uiso   1.00
C1134  C     0.19565   0.75691   0.52518   0.00000  Uiso   1.00
C1135  C     0.19551   0.75653   0.97860   0.00000  Uiso   1.00
C1136  C     0.02114   0.79544   0.73509   0.00000  Uiso   1.00
C1137  C     0.31219   0.87123   0.76490   0.00000  Uiso   1.00
C1138  C     0.31177   0.79532   0.73523   0.00000  Uiso   1.00
C1139  C     0.02156   0.87135   0.76476   0.00000  Uiso   1.00
C1140  C     0.29080   0.83323   0.75015   0.00000  Uiso   1.00
H1141  H     0.19101   0.76632   0.88982   0.00000  Uiso   1.00
H1142  H     0.14049   0.97611   0.95940   0.00000  Uiso   1.00
H1143  H     0.19293   0.69056   0.54062   0.00000  Uiso   1.00
H1144  H     0.24159   0.71247   0.54165   0.00000  Uiso   1.00
H1145  H     0.09730   0.94052   0.56263   0.00000  Uiso   1.00
H1146  H     0.14641   0.96222   0.56374   0.00000  Uiso   1.00
H1147  H     0.18690   0.70444   0.93627   0.00000  Uiso   1.00
H1148  H     0.23601   0.72615   0.93736   0.00000  Uiso   1.00
H1149  H     0.21395   0.73531   0.82180   0.00000  Uiso   1.00
H1150  H     0.24849   0.72477   0.78042   0.00000  Uiso   1.00
H1151  H     0.08487   0.94186   0.71954   0.00000  Uiso   1.00
H1152  H     0.14225   0.90032   0.61018   0.00000  Uiso   1.00
H1153  H     0.11942   0.93139   0.67815   0.00000  Uiso   1.00
H1154  H     0.11654   0.70786   0.66226   0.00000  Uiso   1.00
H1155  H     0.08058   0.70671   0.70260   0.00000  Uiso   1.00
H1156  H     0.25275   0.95995   0.79740   0.00000  Uiso   1.00
H1157  H     0.21679   0.95881   0.83774   0.00000  Uiso   1.00
H1158  H     0.14127   0.89973   0.88711   0.00000  Uiso   1.00
H1159  H     0.19213   0.76696   0.61289   0.00000  Uiso   1.00
H1160  H     0.03727   0.76619   0.72310   0.00000  Uiso   1.00
H1161  H     0.29607   0.90049   0.77689   0.00000  Uiso   1.00
H1162  H     0.29527   0.76598   0.72324   0.00000  Uiso   1.00
H1163  H     0.03806   0.90069   0.77674   0.00000  Uiso   1.00
H1164  H     0.09181   0.95426   0.95834   0.00000  Uiso   1.00
N1165  N     0.16667   0.95240   0.75000   0.00000  Uiso   1.00
N1166  N     0.22242   0.95008   0.80476   0.00000  Uiso   1.00
N1167  N     0.16667   0.71427   0.75000   0.00000  Uiso   1.00
N1168  N     0.12278   0.94829   0.94989   0.00000  Uiso   1.00
N1169  N     0.21062   0.71841   0.55011   0.00000  Uiso   1.00
N1170  N     0.12266   0.94950   0.54317   0.00000  Uiso   1.00
N1171  N     0.21065   0.71717   0.95683   0.00000  Uiso   1.00
N1172  N     0.22678   0.71086   0.80186   0.00000  Uiso   1.00
N1173  N     0.10657   0.95581   0.69812   0.00000  Uiso   1.00
N1174  N     0.11091   0.71658   0.69524   0.00000  Uiso   1.00
O1175  O     0.10559   0.87154   0.74999   0.00000  Uiso   1.00
O1176  O     0.22774   0.79513   0.75000   0.00000  Uiso   1.00
O1177  O     0.22774   0.87154   0.75000   0.00000  Uiso   1.00
O1178  O     0.10559   0.79513   0.74999   0.00000  Uiso   1.00
O1179  O     0.16666   0.87156   0.68392   0.00000  Uiso   1.00
O1180  O     0.16667   0.79511   0.81607   0.00000  Uiso   1.00
O1181  O     0.16667   0.87156   0.81607   0.00000  Uiso   1.00
O1182  O     0.16666   0.79511   0.68392   0.00000  Uiso   1.00
Zn1183 Zn    0.16667   0.88437   0.75000   0.00000  Uiso   1.00
Zn1184 Zn    0.16667   0.78229   0.75000   0.00000  Uiso   1.00
C1185  C     0.42006   0.83339   0.74987   0.00000  Uiso   1.00
C1186  C     0.37587   0.83344   0.74984   0.00000  Uiso   1.00
C1187  C     0.52813   0.68953   0.77597   0.00000  Uiso   1.00
C1188  C     0.47187   0.97714   0.72403   0.00000  Uiso   1.00
C1189  C     0.47250   0.69160   0.72360   0.00000  Uiso   1.00
C1190  C     0.52750   0.97506   0.77640   0.00000  Uiso   1.00
C1191  C     0.50010   0.83353   0.66344   0.00000  Uiso   1.00
C1192  C     0.49990   0.83314   0.83656   0.00000  Uiso   1.00
C1193  C     0.51351   0.79504   0.90801   0.00000  Uiso   1.00
C1194  C     0.48645   0.87162   0.59199   0.00000  Uiso   1.00
C1195  C     0.49957   0.83291   0.88446   0.00000  Uiso   1.00
C1196  C     0.57994   0.83328   0.75013   0.00000  Uiso   1.00
C1197  C     0.50042   0.83376   0.61554   0.00000  Uiso   1.00
C1198  C     0.48563   0.87087   0.90638   0.00000  Uiso   1.00
C1199  C     0.51440   0.79581   0.59362   0.00000  Uiso   1.00
C1200  C     0.48543   0.87154   0.95261   0.00000  Uiso   1.00
C1201  C     0.51458   0.79513   0.54739   0.00000  Uiso   1.00
C1202  C     0.49989   0.83319   0.97678   0.00000  Uiso   1.00
C1203  C     0.50010   0.83348   0.52323   0.00000  Uiso   1.00
C1204  C     0.51415   0.79458   0.95433   0.00000  Uiso   1.00
C1205  C     0.48583   0.87208   0.54567   0.00000  Uiso   1.00
C1206  C     0.47103   0.90977   0.97482   0.00000  Uiso   1.00
C1207  C     0.47115   0.91014   0.52140   0.00000  Uiso   1.00
C1208  C     0.52899   0.75691   0.52518   0.00000  Uiso   1.00
C1209  C     0.52884   0.75653   0.97860   0.00000  Uiso   1.00
C1210  C     0.35447   0.79544   0.73509   0.00000  Uiso   1.00
C1211  C     0.64553   0.87123   0.76490   0.00000  Uiso   1.00
C1212  C     0.64510   0.79532   0.73523   0.00000  Uiso   1.00
C1213  C     0.35490   0.87135   0.76476   0.00000  Uiso   1.00
C1214  C     0.62413   0.83323   0.75015   0.00000  Uiso   1.00
H1215  H     0.52434   0.76632   0.88982   0.00000  Uiso   1.00
H1216  H     0.47383   0.97611   0.95940   0.00000  Uiso   1.00
H1217  H     0.52626   0.69056   0.54062   0.00000  Uiso   1.00
H1218  H     0.57492   0.71247   0.54165   0.00000  Uiso   1.00
H1219  H     0.43063   0.94052   0.56263   0.00000  Uiso   1.00
H1220  H     0.47974   0.96222   0.56374   0.00000  Uiso   1.00
H1221  H     0.52024   0.70444   0.93627   0.00000  Uiso   1.00
H1222  H     0.56934   0.72615   0.93736   0.00000  Uiso   1.00
H1223  H     0.54728   0.73531   0.82180   0.00000  Uiso   1.00
H1224  H     0.58182   0.72477   0.78042   0.00000  Uiso   1.00
H1225  H     0.41820   0.94186   0.71954   0.00000  Uiso   1.00
H1226  H     0.47559   0.90032   0.61018   0.00000  Uiso   1.00
H1227  H     0.45275   0.93139   0.67815   0.00000  Uiso   1.00
H1228  H     0.44987   0.70786   0.66226   0.00000  Uiso   1.00
H1229  H     0.41391   0.70671   0.70260   0.00000  Uiso   1.00
H1230  H     0.58608   0.95995   0.79740   0.00000  Uiso   1.00
H1231  H     0.55013   0.95881   0.83774   0.00000  Uiso   1.00
H1232  H     0.47460   0.89973   0.88711   0.00000  Uiso   1.00
H1233  H     0.52547   0.76696   0.61289   0.00000  Uiso   1.00
H1234  H     0.37060   0.76619   0.72310   0.00000  Uiso   1.00
H1235  H     0.62940   0.90049   0.77689   0.00000  Uiso   1.00
H1236  H     0.62861   0.76598   0.72324   0.00000  Uiso   1.00
H1237  H     0.37139   0.90069   0.77674   0.00000  Uiso   1.00
H1238  H     0.42515   0.95426   0.95834   0.00000  Uiso   1.00
N1239  N     0.50000   0.95240   0.75000   0.00000  Uiso   1.00
N1240  N     0.55576   0.95008   0.80476   0.00000  Uiso   1.00
N1241  N     0.50000   0.71427   0.75000   0.00000  Uiso   1.00
N1242  N     0.45611   0.94829   0.94989   0.00000  Uiso   1.00
N1243  N     0.54396   0.71841   0.55011   0.00000  Uiso   1.00
N1244  N     0.45600   0.94950   0.54317   0.00000  Uiso   1.00
N1245  N     0.54399   0.71717   0.95683   0.00000  Uiso   1.00
N1246  N     0.56012   0.71086   0.80186   0.00000  Uiso   1.00
N1247  N     0.43990   0.95581   0.69812   0.00000  Uiso   1.00
N1248  N     0.44424   0.71658   0.69524   0.00000  Uiso   1.00
O1249  O     0.43892   0.87154   0.74999   0.00000  Uiso   1.00
O1250  O     0.56108   0.79513   0.75000   0.00000  Uiso   1.00
O1251  O     0.56108   0.87154   0.75000   0.00000  Uiso   1.00
O1252  O     0.43892   0.79513   0.74999   0.00000  Uiso   1.00
O1253  O     0.49999   0.87156   0.68392   0.00000  Uiso   1.00
O1254  O     0.50001   0.79511   0.81607   0.00000  Uiso   1.00
O1255  O     0.50001   0.87156   0.81607   0.00000  Uiso   1.00
O1256  O     0.49999   0.79511   0.68392   0.00000  Uiso   1.00
Zn1257 Zn    0.50000   0.88437   0.75000   0.00000  Uiso   1.00
Zn1258 Zn    0.50000   0.78229   0.75000   0.00000  Uiso   1.00
C1259  C     0.75339   0.83339   0.74987   0.00000  Uiso   1.00
C1260  C     0.70920   0.83344   0.74984   0.00000  Uiso   1.00
C1261  C     0.86147   0.68953   0.77597   0.00000  Uiso   1.00
C1262  C     0.80520   0.97714   0.72403   0.00000  Uiso   1.00
C1263  C     0.80583   0.69160   0.72360   0.00000  Uiso   1.00
C1264  C     0.86083   0.97506   0.77640   0.00000  Uiso   1.00
C1265  C     0.83343   0.83353   0.66344   0.00000  Uiso   1.00
C1266  C     0.83324   0.83314   0.83656   0.00000  Uiso   1.00
C1267  C     0.84684   0.79504   0.90801   0.00000  Uiso   1.00
C1268  C     0.81978   0.87162   0.59199   0.00000  Uiso   1.00
C1269  C     0.83291   0.83291   0.88446   0.00000  Uiso   1.00
C1270  C     0.91328   0.83328   0.75013   0.00000  Uiso   1.00
C1271  C     0.83376   0.83376   0.61554   0.00000  Uiso   1.00
C1272  C     0.81896   0.87087   0.90638   0.00000  Uiso   1.00
C1273  C     0.84774   0.79581   0.59362   0.00000  Uiso   1.00
C1274  C     0.81877   0.87154   0.95261   0.00000  Uiso   1.00
C1275  C     0.84791   0.79513   0.54739   0.00000  Uiso   1.00
C1276  C     0.83322   0.83319   0.97678   0.00000  Uiso   1.00
C1277  C     0.83344   0.83348   0.52323   0.00000  Uiso   1.00
C1278  C     0.84748   0.79458   0.95433   0.00000  Uiso   1.00
C1279  C     0.81916   0.87208   0.54567   0.00000  Uiso   1.00
C1280  C     0.80437   0.90977   0.97482   0.00000  Uiso   1.00
C1281  C     0.80448   0.91014   0.52140   0.00000  Uiso   1.00
C1282  C     0.86232   0.75691   0.52518   0.00000  Uiso   1.00
C1283  C     0.86218   0.75653   0.97860   0.00000  Uiso   1.00
C1284  C     0.68781   0.79544   0.73509   0.00000  Uiso   1.00
C1285  C     0.97886   0.87123   0.76490   0.00000  Uiso   1.00
C1286  C     0.97843   0.79532   0.73523   0.00000  Uiso   1.00
C1287  C     0.68823   0.87135   0.76476   0.00000  Uiso   1.00
C1288  C     0.95746   0.83323   0.75015   0.00000  Uiso   1.00
H1289  H     0.85767   0.76632   0.88982   0.00000  Uiso   1.00
H1290  H     0.80716   0.97611   0.95940   0.00000  Uiso   1.00
H1291  H     0.85959   0.69056   0.54062   0.00000  Uiso   1.00
H1292  H     0.90825   0.71247   0.54165   0.00000  Uiso   1.00
H1293  H     0.76397   0.94052   0.56263   0.00000  Uiso   1.00
H1294  H     0.81308   0.96222   0.56374   0.00000  Uiso   1.00
H1295  H     0.85357   0.70444   0.93627   0.00000  Uiso   1.00
H1296  H     0.90268   0.72615   0.93736   0.00000  Uiso   1.00
H1297  H     0.88062   0.73531   0.82180   0.00000  Uiso   1.00
H1298  H     0.91516   0.72477   0.78042   0.00000  Uiso   1.00
H1299  H     0.75153   0.94186   0.71954   0.00000  Uiso   1.00
H1300  H     0.80892   0.90032   0.61018   0.00000  Uiso   1.00
H1301  H     0.78608   0.93139   0.67815   0.00000  Uiso   1.00
H1302  H     0.78320   0.70786   0.66226   0.00000  Uiso   1.00
H1303  H     0.74725   0.70671   0.70260   0.00000  Uiso   1.00
H1304  H     0.91942   0.95995   0.79740   0.00000  Uiso   1.00
H1305  H     0.88346   0.95881   0.83774   0.00000  Uiso   1.00
H1306  H     0.80793   0.89973   0.88711   0.00000  Uiso   1.00
H1307  H     0.85880   0.76696   0.61289   0.00000  Uiso   1.00
H1308  H     0.70393   0.76619   0.72310   0.00000  Uiso   1.00
H1309  H     0.96273   0.90049   0.77689   0.00000  Uiso   1.00
H1310  H     0.96194   0.76598   0.72324   0.00000  Uiso   1.00
H1311  H     0.70473   0.90069   0.77674   0.00000  Uiso   1.00
H1312  H     0.75848   0.95426   0.95834   0.00000  Uiso   1.00
N1313  N     0.83333   0.95240   0.75000   0.00000  Uiso   1.00
N1314  N     0.88909   0.95008   0.80476   0.00000  Uiso   1.00
N1315  N     0.83333   0.71427   0.75000   0.00000  Uiso   1.00
N1316  N     0.78944   0.94829   0.94989   0.00000  Uiso   1.00
N1317  N     0.87729   0.71841   0.55011   0.00000  Uiso   1.00
N1318  N     0.78933   0.94950   0.54317   0.00000  Uiso   1.00
N1319  N     0.87732   0.71717   0.95683   0.00000  Uiso   1.00
N1320  N     0.89345   0.71086   0.80186   0.00000  Uiso   1.00
N1321  N     0.77323   0.95581   0.69812   0.00000  Uiso   1.00
N1322  N     0.77757   0.71658   0.69524   0.00000  Uiso   1.00
O1323  O     0.77226   0.87154   0.74999   0.00000  Uiso   1.00
O1324  O     0.89441   0.79513   0.75000   0.00000  Uiso   1.00
O1325  O     0.89441   0.87154   0.75000   0.00000  Uiso   1.00
O1326  O     0.77226   0.79513   0.74999   0.00000  Uiso   1.00
O1327  O     0.83333   0.87156   0.68392   0.00000  Uiso   1.00
O1328  O     0.83334   0.79511   0.81607   0.00000  Uiso   1.00
O1329  O     0.83334   0.87156   0.81607   0.00000  Uiso   1.00
O1330  O     0.83333   0.79511   0.68392   0.00000  Uiso   1.00
Zn1331 Zn    0.83333   0.88437   0.75000   0.00000  Uiso   1.00
Zn1332 Zn    0.83333   0.78229   0.75000   0.00000  Uiso   1.00
loop_
_geom_bond_atom_site_label_1
_geom_bond_atom_site_label_2
_geom_bond_distance
_geom_bond_site_symmetry_2
_ccdc_geom_bond_type
C1     O65     1.289   .     A
C1     C2      1.418   .     S
C1     O68     1.288   .     A
C2     C26     1.397   .     A
C2     C29     1.395   .     A
C3     N57     1.384   .     A
C3     N62     1.429   .     S
C3     C450    1.423   1_545 S
C4     N63     1.429   .     S
C4     N55     1.384   .     A
C4     C227    1.423   .     S
C5     N57     1.359   .     A
C5     N64     1.430   .     S
C5     C448    1.423   1_545 S
C6     N55     1.359   .     A
C6     N56     1.430   .     S
C6     C225    1.423   .     S
C7     O69     1.295   .     A
C7     O72     1.292   .     A
C7     C13     1.437   .     S
C8     O70     1.295   .     A
C8     C11     1.437   .     S
C8     O71     1.292   .     A
C9     C11     1.390   .     A
C9     C20     1.390   .     A
C9     H31     1.080   .     S
C10    C21     1.390   .     A
C10    H42     1.080   .     S
C10    C13     1.390   .     A
C11    C14     1.392   .     A
C12    O66     1.289   .     A
C12    O67     1.288   .     A
C12    C30     1.418   .     S
C13    C15     1.392   .     A
C14    C16     1.388   .     A
C14    H48     1.084   .     S
C15    H49     1.084   .     S
C15    C17     1.388   .     A
C16    C18     1.416   .     A
C16    C22     1.407   .     A
C17    C19     1.416   .     A
C17    C24     1.407   .     A
C18    C20     1.418   .     A
C18    C685    1.394   .     S
C19    C21     1.418   .     A
C19    C684    1.394   1_554 S
C20    C25     1.413   .     A
C21    C23     1.413   .     A
C22    N58     1.436   .     S
C22    C689    1.398   .     S
C23    N60     1.436   .     S
C23    C688    1.398   1_554 S
C24    N59     1.436   .     S
C24    C691    1.398   1_554 S
C25    N61     1.436   .     S
C25    C690    1.398   .     S
C26    H50     1.081   .     S
C26    C176    1.370   1_455 S
C27    H51     1.081   .     S
C27    C30     1.397   .     A
C27    C103    1.370   .     S
C28    H52     1.084   .     S
C28    C30     1.395   .     A
C28    C100    1.370   .     S
C29    H53     1.084   .     S
C29    C175    1.370   1_455 S
H32    N58     1.045   .     S
H33    N59     1.045   .     S
H34    N59     1.046   .     S
H35    N60     1.045   .     S
H36    N60     1.045   .     S
H37    N61     1.045   .     S
H38    N61     1.045   .     S
H39    N62     1.037   .     S
H40    N62     1.042   .     S
H41    N63     1.042   .     S
H43    N63     1.037   .     S
H44    N64     1.046   .     S
H45    N64     1.045   .     S
H46    N56     1.045   .     S
H47    N56     1.046   .     S
H54    N58     1.046   .     S
N55    Zn73    2.025   .     S
N57    Zn74    2.025   .     S
O65    Zn73    1.998   .     S
O66    Zn74    1.998   .     S
O67    Zn73    1.995   .     S
O68    Zn74    1.995   .     S
O69    Zn73    2.024   .     S
O70    Zn74    2.024   .     S
O71    Zn73    2.014   .     S
O72    Zn74    2.014   .     S
C75    O139    1.289   .     A
C75    C76     1.418   .     S
C75    O142    1.288   .     A
C76    C100    1.397   .     A
C76    C103    1.395   .     A
C77    N131    1.384   .     A
C77    N136    1.429   .     S
C77    C524    1.423   1_545 S
C78    N137    1.429   .     S
C78    N129    1.384   .     A
C78    C301    1.423   .     S
C79    N131    1.359   .     A
C79    N138    1.430   .     S
C79    C522    1.423   1_545 S
C80    N129    1.359   .     A
C80    N130    1.430   .     S
C80    C299    1.423   .     S
C81    O143    1.295   .     A
C81    O146    1.292   .     A
C81    C87     1.437   .     S
C82    O144    1.295   .     A
C82    C85     1.437   .     S
C82    O145    1.292   .     A
C83    C85     1.390   .     A
C83    C94     1.390   .     A
C83    H105    1.080   .     S
C84    C95     1.390   .     A
C84    H116    1.080   .     S
C84    C87     1.390   .     A
C85    C88     1.392   .     A
C86    O140    1.289   .     A
C86    O141    1.288   .     A
C86    C104    1.418   .     S
C87    C89     1.392   .     A
C88    C90     1.388   .     A
C88    H122    1.084   .     S
C89    H123    1.084   .     S
C89    C91     1.388   .     A
C90    C92     1.416   .     A
C90    C96     1.407   .     A
C91    C93     1.416   .     A
C91    C98     1.407   .     A
C92    C94     1.418   .     A
C92    C759    1.394   .     S
C93    C95     1.418   .     A
C93    C758    1.394   1_554 S
C94    C99     1.413   .     A
C95    C97     1.413   .     A
C96    N132    1.436   .     S
C96    C763    1.398   .     S
C97    N134    1.436   .     S
C97    C762    1.398   1_554 S
C98    N133    1.436   .     S
C98    C765    1.398   1_554 S
C99    N135    1.436   .     S
C99    C764    1.398   .     S
C100   H124    1.081   .     S
C101   H125    1.081   .     S
C101   C104    1.397   .     A
C101   C177    1.370   .     S
C102   H126    1.084   .     S
C102   C104    1.395   .     A
C102   C174    1.370   .     S
C103   H127    1.084   .     S
H106   N132    1.045   .     S
H107   N133    1.045   .     S
H108   N133    1.046   .     S
H109   N134    1.045   .     S
H110   N134    1.045   .     S
H111   N135    1.045   .     S
H112   N135    1.045   .     S
H113   N136    1.037   .     S
H114   N136    1.042   .     S
H115   N137    1.042   .     S
H117   N137    1.037   .     S
H118   N138    1.046   .     S
H119   N138    1.045   .     S
H120   N130    1.045   .     S
H121   N130    1.046   .     S
H128   N132    1.046   .     S
N129   Zn147   2.025   .     S
N131   Zn148   2.025   .     S
O139   Zn147   1.998   .     S
O140   Zn148   1.998   .     S
O141   Zn147   1.995   .     S
O142   Zn148   1.995   .     S
O143   Zn147   2.024   .     S
O144   Zn148   2.024   .     S
O145   Zn147   2.014   .     S
O146   Zn148   2.014   .     S
C149   O213    1.289   .     A
C149   C150    1.418   .     S
C149   O216    1.288   .     A
C150   C174    1.397   .     A
C150   C177    1.395   .     A
C151   N205    1.384   .     A
C151   N210    1.429   .     S
C151   C598    1.423   1_545 S
C152   N211    1.429   .     S
C152   N203    1.384   .     A
C152   C375    1.423   .     S
C153   N205    1.359   .     A
C153   N212    1.430   .     S
C153   C596    1.423   1_545 S
C154   N203    1.359   .     A
C154   N204    1.430   .     S
C154   C373    1.423   .     S
C155   O217    1.295   .     A
C155   O220    1.292   .     A
C155   C161    1.437   .     S
C156   O218    1.295   .     A
C156   C159    1.437   .     S
C156   O219    1.292   .     A
C157   C159    1.390   .     A
C157   C168    1.390   .     A
C157   H179    1.080   .     S
C158   C169    1.390   .     A
C158   H190    1.080   .     S
C158   C161    1.390   .     A
C159   C162    1.392   .     A
C160   O214    1.289   .     A
C160   O215    1.288   .     A
C160   C178    1.418   .     S
C161   C163    1.392   .     A
C162   C164    1.388   .     A
C162   H196    1.084   .     S
C163   H197    1.084   .     S
C163   C165    1.388   .     A
C164   C166    1.416   .     A
C164   C170    1.407   .     A
C165   C167    1.416   .     A
C165   C172    1.407   .     A
C166   C168    1.418   .     A
C166   C833    1.394   .     S
C167   C169    1.418   .     A
C167   C832    1.394   1_554 S
C168   C173    1.413   .     A
C169   C171    1.413   .     A
C170   N206    1.436   .     S
C170   C837    1.398   .     S
C171   N208    1.436   .     S
C171   C836    1.398   1_554 S
C172   N207    1.436   .     S
C172   C839    1.398   1_554 S
C173   N209    1.436   .     S
C173   C838    1.398   .     S
C174   H198    1.081   .     S
C175   H199    1.081   .     S
C175   C178    1.397   .     A
C175   C29     1.370   1_655 S
C176   H200    1.084   .     S
C176   C178    1.395   .     A
C176   C26     1.370   1_655 S
C177   H201    1.084   .     S
H180   N206    1.045   .     S
H181   N207    1.045   .     S
H182   N207    1.046   .     S
H183   N208    1.045   .     S
H184   N208    1.045   .     S
H185   N209    1.045   .     S
H186   N209    1.045   .     S
H187   N210    1.037   .     S
H188   N210    1.042   .     S
H189   N211    1.042   .     S
H191   N211    1.037   .     S
H192   N212    1.046   .     S
H193   N212    1.045   .     S
H194   N204    1.045   .     S
H195   N204    1.046   .     S
H202   N206    1.046   .     S
N203   Zn221   2.025   .     S
N205   Zn222   2.025   .     S
O213   Zn221   1.998   .     S
O214   Zn222   1.998   .     S
O215   Zn221   1.995   .     S
O216   Zn222   1.995   .     S
O217   Zn221   2.024   .     S
O218   Zn222   2.024   .     S
O219   Zn221   2.014   .     S
O220   Zn222   2.014   .     S
C223   O287    1.289   .     A
C223   C224    1.418   .     S
C223   O290    1.288   .     A
C224   C248    1.397   .     A
C224   C251    1.395   .     A
C225   N279    1.384   .     A
C225   N284    1.429   .     S
C226   N285    1.429   .     S
C226   N277    1.384   .     A
C226   C449    1.423   .     S
C227   N279    1.359   .     A
C227   N286    1.430   .     S
C228   N277    1.359   .     A
C228   N278    1.430   .     S
C228   C447    1.423   .     S
C229   O291    1.295   .     A
C229   O294    1.292   .     A
C229   C235    1.437   .     S
C230   O292    1.295   .     A
C230   C233    1.437   .     S
C230   O293    1.292   .     A
C231   C233    1.390   .     A
C231   C242    1.390   .     A
C231   H253    1.080   .     S
C232   C243    1.390   .     A
C232   H264    1.080   .     S
C232   C235    1.390   .     A
C233   C236    1.392   .     A
C234   O288    1.289   .     A
C234   O289    1.288   .     A
C234   C252    1.418   .     S
C235   C237    1.392   .     A
C236   C238    1.388   .     A
C236   H270    1.084   .     S
C237   H271    1.084   .     S
C237   C239    1.388   .     A
C238   C240    1.416   .     A
C238   C244    1.407   .     A
C239   C241    1.416   .     A
C239   C246    1.407   .     A
C240   C242    1.418   .     A
C240   C907    1.394   .     S
C241   C243    1.418   .     A
C241   C906    1.394   1_554 S
C242   C247    1.413   .     A
C243   C245    1.413   .     A
C244   N280    1.436   .     S
C244   C911    1.398   .     S
C245   N282    1.436   .     S
C245   C910    1.398   1_554 S
C246   N281    1.436   .     S
C246   C913    1.398   1_554 S
C247   N283    1.436   .     S
C247   C912    1.398   .     S
C248   H272    1.081   .     S
C248   C398    1.370   1_455 S
C249   H273    1.081   .     S
C249   C252    1.397   .     A
C249   C325    1.370   .     S
C250   H274    1.084   .     S
C250   C252    1.395   .     A
C250   C322    1.370   .     S
C251   H275    1.084   .     S
C251   C397    1.370   1_455 S
H254   N280    1.045   .     S
H255   N281    1.045   .     S
H256   N281    1.046   .     S
H257   N282    1.045   .     S
H258   N282    1.045   .     S
H259   N283    1.045   .     S
H260   N283    1.045   .     S
H261   N284    1.037   .     S
H262   N284    1.042   .     S
H263   N285    1.042   .     S
H265   N285    1.037   .     S
H266   N286    1.046   .     S
H267   N286    1.045   .     S
H268   N278    1.045   .     S
H269   N278    1.046   .     S
H276   N280    1.046   .     S
N277   Zn295   2.025   .     S
N279   Zn296   2.025   .     S
O287   Zn295   1.998   .     S
O288   Zn296   1.998   .     S
O289   Zn295   1.995   .     S
O290   Zn296   1.995   .     S
O291   Zn295   2.024   .     S
O292   Zn296   2.024   .     S
O293   Zn295   2.014   .     S
O294   Zn296   2.014   .     S
C297   O361    1.289   .     A
C297   C298    1.418   .     S
C297   O364    1.288   .     A
C298   C322    1.397   .     A
C298   C325    1.395   .     A
C299   N353    1.384   .     A
C299   N358    1.429   .     S
C300   N359    1.429   .     S
C300   N351    1.384   .     A
C300   C523    1.423   .     S
C301   N353    1.359   .     A
C301   N360    1.430   .     S
C302   N351    1.359   .     A
C302   N352    1.430   .     S
C302   C521    1.423   .     S
C303   O365    1.295   .     A
C303   O368    1.292   .     A
C303   C309    1.437   .     S
C304   O366    1.295   .     A
C304   C307    1.437   .     S
C304   O367    1.292   .     A
C305   C307    1.390   .     A
C305   C316    1.390   .     A
C305   H327    1.080   .     S
C306   C317    1.390   .     A
C306   H338    1.080   .     S
C306   C309    1.390   .     A
C307   C310    1.392   .     A
C308   O362    1.289   .     A
C308   O363    1.288   .     A
C308   C326    1.418   .     S
C309   C311    1.392   .     A
C310   C312    1.388   .     A
C310   H344    1.084   .     S
C311   H345    1.084   .     S
C311   C313    1.388   .     A
C312   C314    1.416   .     A
C312   C318    1.407   .     A
C313   C315    1.416   .     A
C313   C320    1.407   .     A
C314   C316    1.418   .     A
C314   C981    1.394   .     S
C315   C317    1.418   .     A
C315   C980    1.394   1_554 S
C316   C321    1.413   .     A
C317   C319    1.413   .     A
C318   N354    1.436   .     S
C318   C985    1.398   .     S
C319   N356    1.436   .     S
C319   C984    1.398   1_554 S
C320   N355    1.436   .     S
C320   C987    1.398   1_554 S
C321   N357    1.436   .     S
C321   C986    1.398   .     S
C322   H346    1.081   .     S
C323   H347    1.081   .     S
C323   C326    1.397   .     A
C323   C399    1.370   .     S
C324   H348    1.084   .     S
C324   C326    1.395   .     A
C324   C396    1.370   .     S
C325   H349    1.084   .     S
H328   N354    1.045   .     S
H329   N355    1.045   .     S
H330   N355    1.046   .     S
H331   N356    1.045   .     S
H332   N356    1.045   .     S
H333   N357    1.045   .     S
H334   N357    1.045   .     S
H335   N358    1.037   .     S
H336   N358    1.042   .     S
H337   N359    1.042   .     S
H339   N359    1.037   .     S
H340   N360    1.046   .     S
H341   N360    1.045   .     S
H342   N352    1.045   .     S
H343   N352    1.046   .     S
H350   N354    1.046   .     S
N351   Zn369   2.025   .     S
N353   Zn370   2.025   .     S
O361   Zn369   1.998   .     S
O362   Zn370   1.998   .     S
O363   Zn369   1.995   .     S
O364   Zn370   1.995   .     S
O365   Zn369   2.024   .     S
O366   Zn370   2.024   .     S
O367   Zn369   2.014   .     S
O368   Zn370   2.014   .     S
C371   O435    1.289   .     A
C371   C372    1.418   .     S
C371   O438    1.288   .     A
C372   C396    1.397   .     A
C372   C399    1.395   .     A
C373   N427    1.384   .     A
C373   N432    1.429   .     S
C374   N433    1.429   .     S
C374   N425    1.384   .     A
C374   C597    1.423   .     S
C375   N427    1.359   .     A
C375   N434    1.430   .     S
C376   N425    1.359   .     A
C376   N426    1.430   .     S
C376   C595    1.423   .     S
C377   O439    1.295   .     A
C377   O442    1.292   .     A
C377   C383    1.437   .     S
C378   O440    1.295   .     A
C378   C381    1.437   .     S
C378   O441    1.292   .     A
C379   C381    1.390   .     A
C379   C390    1.390   .     A
C379   H401    1.080   .     S
C380   C391    1.390   .     A
C380   H412    1.080   .     S
C380   C383    1.390   .     A
C381   C384    1.392   .     A
C382   O436    1.289   .     A
C382   O437    1.288   .     A
C382   C400    1.418   .     S
C383   C385    1.392   .     A
C384   C386    1.388   .     A
C384   H418    1.084   .     S
C385   H419    1.084   .     S
C385   C387    1.388   .     A
C386   C388    1.416   .     A
C386   C392    1.407   .     A
C387   C389    1.416   .     A
C387   C394    1.407   .     A
C388   C390    1.418   .     A
C388   C1055   1.394   .     S
C389   C391    1.418   .     A
C389   C1054   1.394   1_554 S
C390   C395    1.413   .     A
C391   C393    1.413   .     A
C392   N428    1.436   .     S
C392   C1059   1.398   .     S
C393   N430    1.436   .     S
C393   C1058   1.398   1_554 S
C394   N429    1.436   .     S
C394   C1061   1.398   1_554 S
C395   N431    1.436   .     S
C395   C1060   1.398   .     S
C396   H420    1.081   .     S
C397   H421    1.081   .     S
C397   C400    1.397   .     A
C397   C251    1.370   1_655 S
C398   H422    1.084   .     S
C398   C400    1.395   .     A
C398   C248    1.370   1_655 S
C399   H423    1.084   .     S
H402   N428    1.045   .     S
H403   N429    1.045   .     S
H404   N429    1.046   .     S
H405   N430    1.045   .     S
H406   N430    1.045   .     S
H407   N431    1.045   .     S
H408   N431    1.045   .     S
H409   N432    1.037   .     S
H410   N432    1.042   .     S
H411   N433    1.042   .     S
H413   N433    1.037   .     S
H414   N434    1.046   .     S
H415   N434    1.045   .     S
H416   N426    1.045   .     S
H417   N426    1.046   .     S
H424   N428    1.046   .     S
N425   Zn443   2.025   .     S
N427   Zn444   2.025   .     S
O435   Zn443   1.998   .     S
O436   Zn444   1.998   .     S
O437   Zn443   1.995   .     S
O438   Zn444   1.995   .     S
O439   Zn443   2.024   .     S
O440   Zn444   2.024   .     S
O441   Zn443   2.014   .     S
O442   Zn444   2.014   .     S
C445   O509    1.289   .     A
C445   C446    1.418   .     S
C445   O512    1.288   .     A
C446   C470    1.397   .     A
C446   C473    1.395   .     A
C447   N501    1.384   .     A
C447   N506    1.429   .     S
C448   N507    1.429   .     S
C448   N499    1.384   .     A
C448   C5      1.423   1_565 S
C449   N501    1.359   .     A
C449   N508    1.430   .     S
C450   N499    1.359   .     A
C450   N500    1.430   .     S
C450   C3      1.423   1_565 S
C451   O513    1.295   .     A
C451   O516    1.292   .     A
C451   C457    1.437   .     S
C452   O514    1.295   .     A
C452   C455    1.437   .     S
C452   O515    1.292   .     A
C453   C455    1.390   .     A
C453   C464    1.390   .     A
C453   H475    1.080   .     S
C454   C465    1.390   .     A
C454   H486    1.080   .     S
C454   C457    1.390   .     A
C455   C458    1.392   .     A
C456   O510    1.289   .     A
C456   O511    1.288   .     A
C456   C474    1.418   .     S
C457   C459    1.392   .     A
C458   C460    1.388   .     A
C458   H492    1.084   .     S
C459   H493    1.084   .     S
C459   C461    1.388   .     A
C460   C462    1.416   .     A
C460   C466    1.407   .     A
C461   C463    1.416   .     A
C461   C468    1.407   .     A
C462   C464    1.418   .     A
C462   C1129   1.394   .     S
C463   C465    1.418   .     A
C463   C1128   1.394   1_554 S
C464   C469    1.413   .     A
C465   C467    1.413   .     A
C466   N502    1.436   .     S
C466   C1133   1.398   .     S
C467   N504    1.436   .     S
C467   C1132   1.398   1_554 S
C468   N503    1.436   .     S
C468   C1135   1.398   1_554 S
C469   N505    1.436   .     S
C469   C1134   1.398   .     S
C470   H494    1.081   .     S
C470   C620    1.370   1_455 S
C471   H495    1.081   .     S
C471   C474    1.397   .     A
C471   C547    1.370   .     S
C472   H496    1.084   .     S
C472   C474    1.395   .     A
C472   C544    1.370   .     S
C473   H497    1.084   .     S
C473   C619    1.370   1_455 S
H476   N502    1.045   .     S
H477   N503    1.045   .     S
H478   N503    1.046   .     S
H479   N504    1.045   .     S
H480   N504    1.045   .     S
H481   N505    1.045   .     S
H482   N505    1.045   .     S
H483   N506    1.037   .     S
H484   N506    1.042   .     S
H485   N507    1.042   .     S
H487   N507    1.037   .     S
H488   N508    1.046   .     S
H489   N508    1.045   .     S
H490   N500    1.045   .     S
H491   N500    1.046   .     S
H498   N502    1.046   .     S
N499   Zn517   2.025   .     S
N501   Zn518   2.025   .     S
O509   Zn517   1.998   .     S
O510   Zn518   1.998   .     S
O511   Zn517   1.995   .     S
O512   Zn518   1.995   .     S
O513   Zn517   2.024   .     S
O514   Zn518   2.024   .     S
O515   Zn517   2.014   .     S
O516   Zn518   2.014   .     S
C519   O583    1.289   .     A
C519   C520    1.418   .     S
C519   O586    1.288   .     A
C520   C544    1.397   .     A
C520   C547    1.395   .     A
C521   N575    1.384   .     A
C521   N580    1.429   .     S
C522   N581    1.429   .     S
C522   N573    1.384   .     A
C522   C79     1.423   1_565 S
C523   N575    1.359   .     A
C523   N582    1.430   .     S
C524   N573    1.359   .     A
C524   N574    1.430   .     S
C524   C77     1.423   1_565 S
C525   O587    1.295   .     A
C525   O590    1.292   .     A
C525   C531    1.437   .     S
C526   O588    1.295   .     A
C526   C529    1.437   .     S
C526   O589    1.292   .     A
C527   C529    1.390   .     A
C527   C538    1.390   .     A
C527   H549    1.080   .     S
C528   C539    1.390   .     A
C528   H560    1.080   .     S
C528   C531    1.390   .     A
C529   C532    1.392   .     A
C530   O584    1.289   .     A
C530   O585    1.288   .     A
C530   C548    1.418   .     S
C531   C533    1.392   .     A
C532   C534    1.388   .     A
C532   H566    1.084   .     S
C533   H567    1.084   .     S
C533   C535    1.388   .     A
C534   C536    1.416   .     A
C534   C540    1.407   .     A
C535   C537    1.416   .     A
C535   C542    1.407   .     A
C536   C538    1.418   .     A
C536   C1203   1.394   .     S
C537   C539    1.418   .     A
C537   C1202   1.394   1_554 S
C538   C543    1.413   .     A
C539   C541    1.413   .     A
C540   N576    1.436   .     S
C540   C1207   1.398   .     S
C541   N578    1.436   .     S
C541   C1206   1.398   1_554 S
C542   N577    1.436   .     S
C542   C1209   1.398   1_554 S
C543   N579    1.436   .     S
C543   C1208   1.398   .     S
C544   H568    1.081   .     S
C545   H569    1.081   .     S
C545   C548    1.397   .     A
C545   C621    1.370   .     S
C546   H570    1.084   .     S
C546   C548    1.395   .     A
C546   C618    1.370   .     S
C547   H571    1.084   .     S
H550   N576    1.045   .     S
H551   N577    1.045   .     S
H552   N577    1.046   .     S
H553   N578    1.045   .     S
H554   N578    1.045   .     S
H555   N579    1.045   .     S
H556   N579    1.045   .     S
H557   N580    1.037   .     S
H558   N580    1.042   .     S
H559   N581    1.042   .     S
H561   N581    1.037   .     S
H562   N582    1.046   .     S
H563   N582    1.045   .     S
H564   N574    1.045   .     S
H565   N574    1.046   .     S
H572   N576    1.046   .     S
N573   Zn591   2.025   .     S
N575   Zn592   2.025   .     S
O583   Zn591   1.998   .     S
O584   Zn592   1.998   .     S
O585   Zn591   1.995   .     S
O586   Zn592   1.995   .     S
O587   Zn591   2.024   .     S
O588   Zn592   2.024   .     S
O589   Zn591   2.014   .     S
O590   Zn592   2.014   .     S
C593   O657    1.289   .     A
C593   C594    1.418   .     S
C593   O660    1.288   .     A
C594   C618    1.397   .     A
C594   C621    1.395   .     A
C595   N649    1.384   .     A
C595   N654    1.429   .     S
C596   N655    1.429   .     S
C596   N647    1.384   .     A
C596   C153    1.423   1_565 S
C597   N649    1.359   .     A
C597   N656    1.430   .     S
C598   N647    1.359   .     A
C598   N648    1.430   .     S
C598   C151    1.423   1_565 S
C599   O661    1.295   .     A
C599   O664    1.292   .     A
C599   C605    1.437   .     S
C600   O662    1.295   .     A
C600   C603    1.437   .     S
C600   O663    1.292   .     A
C601   C603    1.390   .     A
C601   C612    1.390   .     A
C601   H623    1.080   .     S
C602   C613    1.390   .     A
C602   H634    1.080   .     S
C602   C605    1.390   .     A
C603   C606    1.392   .     A
C604   O658    1.289   .     A
C604   O659    1.288   .     A
C604   C622    1.418   .     S
C605   C607    1.392   .     A
C606   C608    1.388   .     A
C606   H640    1.084   .     S
C607   H641    1.084   .     S
C607   C609    1.388   .     A
C608   C610    1.416   .     A
C608   C614    1.407   .     A
C609   C611    1.416   .     A
C609   C616    1.407   .     A
C610   C612    1.418   .     A
C610   C1277   1.394   .     S
C611   C613    1.418   .     A
C611   C1276   1.394   1_554 S
C612   C617    1.413   .     A
C613   C615    1.413   .     A
C614   N650    1.436   .     S
C614   C1281   1.398   .     S
C615   N652    1.436   .     S
C615   C1280   1.398   1_554 S
C616   N651    1.436   .     S
C616   C1283   1.398   1_554 S
C617   N653    1.436   .     S
C617   C1282   1.398   .     S
C618   H642    1.081   .     S
C619   H643    1.081   .     S
C619   C622    1.397   .     A
C619   C473    1.370   1_655 S
C620   H644    1.084   .     S
C620   C622    1.395   .     A
C620   C470    1.370   1_655 S
C621   H645    1.084   .     S
H624   N650    1.045   .     S
H625   N651    1.045   .     S
H626   N651    1.046   .     S
H627   N652    1.045   .     S
H628   N652    1.045   .     S
H629   N653    1.045   .     S
H630   N653    1.045   .     S
H631   N654    1.037   .     S
H632   N654    1.042   .     S
H633   N655    1.042   .     S
H635   N655    1.037   .     S
H636   N656    1.046   .     S
H637   N656    1.045   .     S
H638   N648    1.045   .     S
H639   N648    1.046   .     S
H646   N650    1.046   .     S
N647   Zn665   2.025   .     S
N649   Zn666   2.025   .     S
O657   Zn665   1.998   .     S
O658   Zn666   1.998   .     S
O659   Zn665   1.995   .     S
O660   Zn666   1.995   .     S
O661   Zn665   2.024   .     S
O662   Zn666   2.024   .     S
O663   Zn665   2.014   .     S
O664   Zn666   2.014   .     S
C667   O731    1.289   .     A
C667   C668    1.418   .     S
C667   O734    1.288   .     A
C668   C692    1.397   .     A
C668   C695    1.395   .     A
C669   N723    1.384   .     A
C669   N728    1.429   .     S
C669   C1116   1.423   1_545 S
C670   N729    1.429   .     S
C670   N721    1.384   .     A
C670   C893    1.423   .     S
C671   N723    1.359   .     A
C671   N730    1.430   .     S
C671   C1114   1.423   1_545 S
C672   N721    1.359   .     A
C672   N722    1.430   .     S
C672   C891    1.423   .     S
C673   O735    1.295   .     A
C673   O738    1.292   .     A
C673   C679    1.437   .     S
C674   O736    1.295   .     A
C674   C677    1.437   .     S
C674   O737    1.292   .     A
C675   C677    1.390   .     A
C675   C686    1.390   .     A
C675   H697    1.080   .     S
C676   C687    1.390   .     A
C676   H708    1.080   .     S
C676   C679    1.390   .     A
C677   C680    1.392   .     A
C678   O732    1.289   .     A
C678   O733    1.288   .     A
C678   C696    1.418   .     S
C679   C681    1.392   .     A
C680   C682    1.388   .     A
C680   H714    1.084   .     S
C681   H715    1.084   .     S
C681   C683    1.388   .     A
C682   C684    1.416   .     A
C682   C688    1.407   .     A
C683   C685    1.416   .     A
C683   C690    1.407   .     A
C684   C686    1.418   .     A
C684   C19     1.394   1_556 S
C685   C687    1.418   .     A
C686   C691    1.413   .     A
C687   C689    1.413   .     A
C688   N724    1.436   .     S
C688   C23     1.398   1_556 S
C689   N726    1.436   .     S
C690   N725    1.436   .     S
C691   N727    1.436   .     S
C691   C24     1.398   1_556 S
C692   H716    1.081   .     S
C692   C842    1.370   1_455 S
C693   H717    1.081   .     S
C693   C696    1.397   .     A
C693   C769    1.370   .     S
C694   H718    1.084   .     S
C694   C696    1.395   .     A
C694   C766    1.370   .     S
C695   H719    1.084   .     S
C695   C841    1.370   1_455 S
H698   N724    1.045   .     S
H699   N725    1.045   .     S
H700   N725    1.046   .     S
H701   N726    1.045   .     S
H702   N726    1.045   .     S
H703   N727    1.045   .     S
H704   N727    1.045   .     S
H705   N728    1.037   .     S
H706   N728    1.042   .     S
H707   N729    1.042   .     S
H709   N729    1.037   .     S
H710   N730    1.046   .     S
H711   N730    1.045   .     S
H712   N722    1.045   .     S
H713   N722    1.046   .     S
H720   N724    1.046   .     S
N721   Zn739   2.025   .     S
N723   Zn740   2.025   .     S
O731   Zn739   1.998   .     S
O732   Zn740   1.998   .     S
O733   Zn739   1.995   .     S
O734   Zn740   1.995   .     S
O735   Zn739   2.024   .     S
O736   Zn740   2.024   .     S
O737   Zn739   2.014   .     S
O738   Zn740   2.014   .     S
C741   O805    1.289   .     A
C741   C742    1.418   .     S
C741   O808    1.288   .     A
C742   C766    1.397   .     A
C742   C769    1.395   .     A
C743   N797    1.384   .     A
C743   N802    1.429   .     S
C743   C1190   1.423   1_545 S
C744   N803    1.429   .     S
C744   N795    1.384   .     A
C744   C967    1.423   .     S
C745   N797    1.359   .     A
C745   N804    1.430   .     S
C745   C1188   1.423   1_545 S
C746   N795    1.359   .     A
C746   N796    1.430   .     S
C746   C965    1.423   .     S
C747   O809    1.295   .     A
C747   O812    1.292   .     A
C747   C753    1.437   .     S
C748   O810    1.295   .     A
C748   C751    1.437   .     S
C748   O811    1.292   .     A
C749   C751    1.390   .     A
C749   C760    1.390   .     A
C749   H771    1.080   .     S
C750   C761    1.390   .     A
C750   H782    1.080   .     S
C750   C753    1.390   .     A
C751   C754    1.392   .     A
C752   O806    1.289   .     A
C752   O807    1.288   .     A
C752   C770    1.418   .     S
C753   C755    1.392   .     A
C754   C756    1.388   .     A
C754   H788    1.084   .     S
C755   H789    1.084   .     S
C755   C757    1.388   .     A
C756   C758    1.416   .     A
C756   C762    1.407   .     A
C757   C759    1.416   .     A
C757   C764    1.407   .     A
C758   C760    1.418   .     A
C758   C93     1.394   1_556 S
C759   C761    1.418   .     A
C760   C765    1.413   .     A
C761   C763    1.413   .     A
C762   N798    1.436   .     S
C762   C97     1.398   1_556 S
C763   N800    1.436   .     S
C764   N799    1.436   .     S
C765   N801    1.436   .     S
C765   C98     1.398   1_556 S
C766   H790    1.081   .     S
C767   H791    1.081   .     S
C767   C770    1.397   .     A
C767   C843    1.370   .     S
C768   H792    1.084   .     S
C768   C770    1.395   .     A
C768   C840    1.370   .     S
C769   H793    1.084   .     S
H772   N798    1.045   .     S
H773   N799    1.045   .     S
H774   N799    1.046   .     S
H775   N800    1.045   .     S
H776   N800    1.045   .     S
H777   N801    1.045   .     S
H778   N801    1.045   .     S
H779   N802    1.037   .     S
H780   N802    1.042   .     S
H781   N803    1.042   .     S
H783   N803    1.037   .     S
H784   N804    1.046   .     S
H785   N804    1.045   .     S
H786   N796    1.045   .     S
H787   N796    1.046   .     S
H794   N798    1.046   .     S
N795   Zn813   2.025   .     S
N797   Zn814   2.025   .     S
O805   Zn813   1.998   .     S
O806   Zn814   1.998   .     S
O807   Zn813   1.995   .     S
O808   Zn814   1.995   .     S
O809   Zn813   2.024   .     S
O810   Zn814   2.024   .     S
O811   Zn813   2.014   .     S
O812   Zn814   2.014   .     S
C815   O879    1.289   .     A
C815   C816    1.418   .     S
C815   O882    1.288   .     A
C816   C840    1.397   .     A
C816   C843    1.395   .     A
C817   N871    1.384   .     A
C817   N876    1.429   .     S
C817   C1264   1.423   1_545 S
C818   N877    1.429   .     S
C818   N869    1.384   .     A
C818   C1041   1.423   .     S
C819   N871    1.359   .     A
C819   N878    1.430   .     S
C819   C1262   1.423   1_545 S
C820   N869    1.359   .     A
C820   N870    1.430   .     S
C820   C1039   1.423   .     S
C821   O883    1.295   .     A
C821   O886    1.292   .     A
C821   C827    1.437   .     S
C822   O884    1.295   .     A
C822   C825    1.437   .     S
C822   O885    1.292   .     A
C823   C825    1.390   .     A
C823   C834    1.390   .     A
C823   H845    1.080   .     S
C824   C835    1.390   .     A
C824   H856    1.080   .     S
C824   C827    1.390   .     A
C825   C828    1.392   .     A
C826   O880    1.289   .     A
C826   O881    1.288   .     A
C826   C844    1.418   .     S
C827   C829    1.392   .     A
C828   C830    1.388   .     A
C828   H862    1.084   .     S
C829   H863    1.084   .     S
C829   C831    1.388   .     A
C830   C832    1.416   .     A
C830   C836    1.407   .     A
C831   C833    1.416   .     A
C831   C838    1.407   .     A
C832   C834    1.418   .     A
C832   C167    1.394   1_556 S
C833   C835    1.418   .     A
C834   C839    1.413   .     A
C835   C837    1.413   .     A
C836   N872    1.436   .     S
C836   C171    1.398   1_556 S
C837   N874    1.436   .     S
C838   N873    1.436   .     S
C839   N875    1.436   .     S
C839   C172    1.398   1_556 S
C840   H864    1.081   .     S
C841   H865    1.081   .     S
C841   C844    1.397   .     A
C841   C695    1.370   1_655 S
C842   H866    1.084   .     S
C842   C844    1.395   .     A
C842   C692    1.370   1_655 S
C843   H867    1.084   .     S
H846   N872    1.045   .     S
H847   N873    1.045   .     S
H848   N873    1.046   .     S
H849   N874    1.045   .     S
H850   N874    1.045   .     S
H851   N875    1.045   .     S
H852   N875    1.045   .     S
H853   N876    1.037   .     S
H854   N876    1.042   .     S
H855   N877    1.042   .     S
H857   N877    1.037   .     S
H858   N878    1.046   .     S
H859   N878    1.045   .     S
H860   N870    1.045   .     S
H861   N870    1.046   .     S
H868   N872    1.046   .     S
N869   Zn887   2.025   .     S
N871   Zn888   2.025   .     S
O879   Zn887   1.998   .     S
O880   Zn888   1.998   .     S
O881   Zn887   1.995   .     S
O882   Zn888   1.995   .     S
O883   Zn887   2.024   .     S
O884   Zn888   2.024   .     S
O885   Zn887   2.014   .     S
O886   Zn888   2.014   .     S
C889   O953    1.289   .     A
C889   C890    1.418   .     S
C889   O956    1.288   .     A
C890   C914    1.397   .     A
C890   C917    1.395   .     A
C891   N945    1.384   .     A
C891   N950    1.429   .     S
C892   N951    1.429   .     S
C892   N943    1.384   .     A
C892   C1115   1.423   .     S
C893   N945    1.359   .     A
C893   N952    1.430   .     S
C894   N943    1.359   .     A
C894   N944    1.430   .     S
C894   C1113   1.423   .     S
C895   O957    1.295   .     A
C895   O960    1.292   .     A
C895   C901    1.437   .     S
C896   O958    1.295   .     A
C896   C899    1.437   .     S
C896   O959    1.292   .     A
C897   C899    1.390   .     A
C897   C908    1.390   .     A
C897   H919    1.080   .     S
C898   C909    1.390   .     A
C898   H930    1.080   .     S
C898   C901    1.390   .     A
C899   C902    1.392   .     A
C900   O954    1.289   .     A
C900   O955    1.288   .     A
C900   C918    1.418   .     S
C901   C903    1.392   .     A
C902   C904    1.388   .     A
C902   H936    1.084   .     S
C903   H937    1.084   .     S
C903   C905    1.388   .     A
C904   C906    1.416   .     A
C904   C910    1.407   .     A
C905   C907    1.416   .     A
C905   C912    1.407   .     A
C906   C908    1.418   .     A
C906   C241    1.394   1_556 S
C907   C909    1.418   .     A
C908   C913    1.413   .     A
C909   C911    1.413   .     A
C910   N946    1.436   .     S
C910   C245    1.398   1_556 S
C911   N948    1.436   .     S
C912   N947    1.436   .     S
C913   N949    1.436   .     S
C913   C246    1.398   1_556 S
C914   H938    1.081   .     S
C914   C1064   1.370   1_455 S
C915   H939    1.081   .     S
C915   C918    1.397   .     A
C915   C991    1.370   .     S
C916   H940    1.084   .     S
C916   C918    1.395   .     A
C916   C988    1.370   .     S
C917   H941    1.084   .     S
C917   C1063   1.370   1_455 S
H920   N946    1.045   .     S
H921   N947    1.045   .     S
H922   N947    1.046   .     S
H923   N948    1.045   .     S
H924   N948    1.045   .     S
H925   N949    1.045   .     S
H926   N949    1.045   .     S
H927   N950    1.037   .     S
H928   N950    1.042   .     S
H929   N951    1.042   .     S
H931   N951    1.037   .     S
H932   N952    1.046   .     S
H933   N952    1.045   .     S
H934   N944    1.045   .     S
H935   N944    1.046   .     S
H942   N946    1.046   .     S
N943   Zn961   2.025   .     S
N945   Zn962   2.025   .     S
O953   Zn961   1.998   .     S
O954   Zn962   1.998   .     S
O955   Zn961   1.995   .     S
O956   Zn962   1.995   .     S
O957   Zn961   2.024   .     S
O958   Zn962   2.024   .     S
O959   Zn961   2.014   .     S
O960   Zn962   2.014   .     S
C963   O1027   1.289   .     A
C963   C964    1.418   .     S
C963   O1030   1.288   .     A
C964   C988    1.397   .     A
C964   C991    1.395   .     A
C965   N1019   1.384   .     A
C965   N1024   1.429   .     S
C966   N1025   1.429   .     S
C966   N1017   1.384   .     A
C966   C1189   1.423   .     S
C967   N1019   1.359   .     A
C967   N1026   1.430   .     S
C968   N1017   1.359   .     A
C968   N1018   1.430   .     S
C968   C1187   1.423   .     S
C969   O1031   1.295   .     A
C969   O1034   1.292   .     A
C969   C975    1.437   .     S
C970   O1032   1.295   .     A
C970   C973    1.437   .     S
C970   O1033   1.292   .     A
C971   C973    1.390   .     A
C971   C982    1.390   .     A
C971   H993    1.080   .     S
C972   C983    1.390   .     A
C972   H1004   1.080   .     S
C972   C975    1.390   .     A
C973   C976    1.392   .     A
C974   O1028   1.289   .     A
C974   O1029   1.288   .     A
C974   C992    1.418   .     S
C975   C977    1.392   .     A
C976   C978    1.388   .     A
C976   H1010   1.084   .     S
C977   H1011   1.084   .     S
C977   C979    1.388   .     A
C978   C980    1.416   .     A
C978   C984    1.407   .     A
C979   C981    1.416   .     A
C979   C986    1.407   .     A
C980   C982    1.418   .     A
C980   C315    1.394   1_556 S
C981   C983    1.418   .     A
C982   C987    1.413   .     A
C983   C985    1.413   .     A
C984   N1020   1.436   .     S
C984   C319    1.398   1_556 S
C985   N1022   1.436   .     S
C986   N1021   1.436   .     S
C987   N1023   1.436   .     S
C987   C320    1.398   1_556 S
C988   H1012   1.081   .     S
C989   H1013   1.081   .     S
C989   C992    1.397   .     A
C989   C1065   1.370   .     S
C990   H1014   1.084   .     S
C990   C992    1.395   .     A
C990   C1062   1.370   .     S
C991   H1015   1.084   .     S
H994   N1020   1.045   .     S
H995   N1021   1.045   .     S
H996   N1021   1.046   .     S
H997   N1022   1.045   .     S
H998   N1022   1.045   .     S
H999   N1023   1.045   .     S
H1000  N1023   1.045   .     S
H1001  N1024   1.037   .     S
H1002  N1024   1.042   .     S
H1003  N1025   1.042   .     S
H1005  N1025   1.037   .     S
H1006  N1026   1.046   .     S
H1007  N1026   1.045   .     S
H1008  N1018   1.045   .     S
H1009  N1018   1.046   .     S
H1016  N1020   1.046   .     S
N1017  Zn1035  2.025   .     S
N1019  Zn1036  2.025   .     S
O1027  Zn1035  1.998   .     S
O1028  Zn1036  1.998   .     S
O1029  Zn1035  1.995   .     S
O1030  Zn1036  1.995   .     S
O1031  Zn1035  2.024   .     S
O1032  Zn1036  2.024   .     S
O1033  Zn1035  2.014   .     S
O1034  Zn1036  2.014   .     S
C1037  O1101   1.289   .     A
C1037  C1038   1.418   .     S
C1037  O1104   1.288   .     A
C1038  C1062   1.397   .     A
C1038  C1065   1.395   .     A
C1039  N1093   1.384   .     A
C1039  N1098   1.429   .     S
C1040  N1099   1.429   .     S
C1040  N1091   1.384   .     A
C1040  C1263   1.423   .     S
C1041  N1093   1.359   .     A
C1041  N1100   1.430   .     S
C1042  N1091   1.359   .     A
C1042  N1092   1.430   .     S
C1042  C1261   1.423   .     S
C1043  O1105   1.295   .     A
C1043  O1108   1.292   .     A
C1043  C1049   1.437   .     S
C1044  O1106   1.295   .     A
C1044  C1047   1.437   .     S
C1044  O1107   1.292   .     A
C1045  C1047   1.390   .     A
C1045  C1056   1.390   .     A
C1045  H1067   1.080   .     S
C1046  C1057   1.390   .     A
C1046  H1078   1.080   .     S
C1046  C1049   1.390   .     A
C1047  C1050   1.392   .     A
C1048  O1102   1.289   .     A
C1048  O1103   1.288   .     A
C1048  C1066   1.418   .     S
C1049  C1051   1.392   .     A
C1050  C1052   1.388   .     A
C1050  H1084   1.084   .     S
C1051  H1085   1.084   .     S
C1051  C1053   1.388   .     A
C1052  C1054   1.416   .     A
C1052  C1058   1.407   .     A
C1053  C1055   1.416   .     A
C1053  C1060   1.407   .     A
C1054  C1056   1.418   .     A
C1054  C389    1.394   1_556 S
C1055  C1057   1.418   .     A
C1056  C1061   1.413   .     A
C1057  C1059   1.413   .     A
C1058  N1094   1.436   .     S
C1058  C393    1.398   1_556 S
C1059  N1096   1.436   .     S
C1060  N1095   1.436   .     S
C1061  N1097   1.436   .     S
C1061  C394    1.398   1_556 S
C1062  H1086   1.081   .     S
C1063  H1087   1.081   .     S
C1063  C1066   1.397   .     A
C1063  C917    1.370   1_655 S
C1064  H1088   1.084   .     S
C1064  C1066   1.395   .     A
C1064  C914    1.370   1_655 S
C1065  H1089   1.084   .     S
H1068  N1094   1.045   .     S
H1069  N1095   1.045   .     S
H1070  N1095   1.046   .     S
H1071  N1096   1.045   .     S
H1072  N1096   1.045   .     S
H1073  N1097   1.045   .     S
H1074  N1097   1.045   .     S
H1075  N1098   1.037   .     S
H1076  N1098   1.042   .     S
H1077  N1099   1.042   .     S
H1079  N1099   1.037   .     S
H1080  N1100   1.046   .     S
H1081  N1100   1.045   .     S
H1082  N1092   1.045   .     S
H1083  N1092   1.046   .     S
H1090  N1094   1.046   .     S
N1091  Zn1109  2.025   .     S
N1093  Zn1110  2.025   .     S
O1101  Zn1109  1.998   .     S
O1102  Zn1110  1.998   .     S
O1103  Zn1109  1.995   .     S
O1104  Zn1110  1.995   .     S
O1105  Zn1109  2.024   .     S
O1106  Zn1110  2.024   .     S
O1107  Zn1109  2.014   .     S
O1108  Zn1110  2.014   .     S
C1111  O1175   1.289   .     A
C1111  C1112   1.418   .     S
C1111  O1178   1.288   .     A
C1112  C1136   1.397   .     A
C1112  C1139   1.395   .     A
C1113  N1167   1.384   .     A
C1113  N1172   1.429   .     S
C1114  N1173   1.429   .     S
C1114  N1165   1.384   .     A
C1114  C671    1.423   1_565 S
C1115  N1167   1.359   .     A
C1115  N1174   1.430   .     S
C1116  N1165   1.359   .     A
C1116  N1166   1.430   .     S
C1116  C669    1.423   1_565 S
C1117  O1179   1.295   .     A
C1117  O1182   1.292   .     A
C1117  C1123   1.437   .     S
C1118  O1180   1.295   .     A
C1118  C1121   1.437   .     S
C1118  O1181   1.292   .     A
C1119  C1121   1.390   .     A
C1119  C1130   1.390   .     A
C1119  H1141   1.080   .     S
C1120  C1131   1.390   .     A
C1120  H1152   1.080   .     S
C1120  C1123   1.390   .     A
C1121  C1124   1.392   .     A
C1122  O1176   1.289   .     A
C1122  O1177   1.288   .     A
C1122  C1140   1.418   .     S
C1123  C1125   1.392   .     A
C1124  C1126   1.388   .     A
C1124  H1158   1.084   .     S
C1125  H1159   1.084   .     S
C1125  C1127   1.388   .     A
C1126  C1128   1.416   .     A
C1126  C1132   1.407   .     A
C1127  C1129   1.416   .     A
C1127  C1134   1.407   .     A
C1128  C1130   1.418   .     A
C1128  C463    1.394   1_556 S
C1129  C1131   1.418   .     A
C1130  C1135   1.413   .     A
C1131  C1133   1.413   .     A
C1132  N1168   1.436   .     S
C1132  C467    1.398   1_556 S
C1133  N1170   1.436   .     S
C1134  N1169   1.436   .     S
C1135  N1171   1.436   .     S
C1135  C468    1.398   1_556 S
C1136  H1160   1.081   .     S
C1136  C1286   1.370   1_455 S
C1137  H1161   1.081   .     S
C1137  C1140   1.397   .     A
C1137  C1213   1.370   .     S
C1138  H1162   1.084   .     S
C1138  C1140   1.395   .     A
C1138  C1210   1.370   .     S
C1139  H1163   1.084   .     S
C1139  C1285   1.370   1_455 S
H1142  N1168   1.045   .     S
H1143  N1169   1.045   .     S
H1144  N1169   1.046   .     S
H1145  N1170   1.045   .     S
H1146  N1170   1.045   .     S
H1147  N1171   1.045   .     S
H1148  N1171   1.045   .     S
H1149  N1172   1.037   .     S
H1150  N1172   1.042   .     S
H1151  N1173   1.042   .     S
H1153  N1173   1.037   .     S
H1154  N1174   1.046   .     S
H1155  N1174   1.045   .     S
H1156  N1166   1.045   .     S
H1157  N1166   1.046   .     S
H1164  N1168   1.046   .     S
N1165  Zn1183  2.025   .     S
N1167  Zn1184  2.025   .     S
O1175  Zn1183  1.998   .     S
O1176  Zn1184  1.998   .     S
O1177  Zn1183  1.995   .     S
O1178  Zn1184  1.995   .     S
O1179  Zn1183  2.024   .     S
O1180  Zn1184  2.024   .     S
O1181  Zn1183  2.014   .     S
O1182  Zn1184  2.014   .     S
C1185  O1249   1.289   .     A
C1185  C1186   1.418   .     S
C1185  O1252   1.288   .     A
C1186  C1210   1.397   .     A
C1186  C1213   1.395   .     A
C1187  N1241   1.384   .     A
C1187  N1246   1.429   .     S
C1188  N1247   1.429   .     S
C1188  N1239   1.384   .     A
C1188  C745    1.423   1_565 S
C1189  N1241   1.359   .     A
C1189  N1248   1.430   .     S
C1190  N1239   1.359   .     A
C1190  N1240   1.430   .     S
C1190  C743    1.423   1_565 S
C1191  O1253   1.295   .     A
C1191  O1256   1.292   .     A
C1191  C1197   1.437   .     S
C1192  O1254   1.295   .     A
C1192  C1195   1.437   .     S
C1192  O1255   1.292   .     A
C1193  C1195   1.390   .     A
C1193  C1204   1.390   .     A
C1193  H1215   1.080   .     S
C1194  C1205   1.390   .     A
C1194  H1226   1.080   .     S
C1194  C1197   1.390   .     A
C1195  C1198   1.392   .     A
C1196  O1250   1.289   .     A
C1196  O1251   1.288   .     A
C1196  C1214   1.418   .     S
C1197  C1199   1.392   .     A
C1198  C1200   1.388   .     A
C1198  H1232   1.084   .     S
C1199  H1233   1.084   .     S
C1199  C1201   1.388   .     A
C1200  C1202   1.416   .     A
C1200  C1206   1.407   .     A
C1201  C1203   1.416   .     A
C1201  C1208   1.407   .     A
C1202  C1204   1.418   .     A
C1202  C537    1.394   1_556 S
C1203  C1205   1.418   .     A
C1204  C1209   1.413   .     A
C1205  C1207   1.413   .     A
C1206  N1242   1.436   .     S
C1206  C541    1.398   1_556 S
C1207  N1244   1.436   .     S
C1208  N1243   1.436   .     S
C1209  N1245   1.436   .     S
C1209  C542    1.398   1_556 S
C1210  H1234   1.081   .     S
C1211  H1235   1.081   .     S
C1211  C1214   1.397   .     A
C1211  C1287   1.370   .     S
C1212  H1236   1.084   .     S
C1212  C1214   1.395   .     A
C1212  C1284   1.370   .     S
C1213  H1237   1.084   .     S
H1216  N1242   1.045   .     S
H1217  N1243   1.045   .     S
H1218  N1243   1.046   .     S
H1219  N1244   1.045   .     S
H1220  N1244   1.045   .     S
H1221  N1245   1.045   .     S
H1222  N1245   1.045   .     S
H1223  N1246   1.037   .     S
H1224  N1246   1.042   .     S
H1225  N1247   1.042   .     S
H1227  N1247   1.037   .     S
H1228  N1248   1.046   .     S
H1229  N1248   1.045   .     S
H1230  N1240   1.045   .     S
H1231  N1240   1.046   .     S
H1238  N1242   1.046   .     S
N1239  Zn1257  2.025   .     S
N1241  Zn1258  2.025   .     S
O1249  Zn1257  1.998   .     S
O1250  Zn1258  1.998   .     S
O1251  Zn1257  1.995   .     S
O1252  Zn1258  1.995   .     S
O1253  Zn1257  2.024   .     S
O1254  Zn1258  2.024   .     S
O1255  Zn1257  2.014   .     S
O1256  Zn1258  2.014   .     S
C1259  O1323   1.289   .     A
C1259  C1260   1.418   .     S
C1259  O1326   1.288   .     A
C1260  C1284   1.397   .     A
C1260  C1287   1.395   .     A
C1261  N1315   1.384   .     A
C1261  N1320   1.429   .     S
C1262  N1321   1.429   .     S
C1262  N1313   1.384   .     A
C1262  C819    1.423   1_565 S
C1263  N1315   1.359   .     A
C1263  N1322   1.430   .     S
C1264  N1313   1.359   .     A
C1264  N1314   1.430   .     S
C1264  C817    1.423   1_565 S
C1265  O1327   1.295   .     A
C1265  O1330   1.292   .     A
C1265  C1271   1.437   .     S
C1266  O1328   1.295   .     A
C1266  C1269   1.437   .     S
C1266  O1329   1.292   .     A
C1267  C1269   1.390   .     A
C1267  C1278   1.390   .     A
C1267  H1289   1.080   .     S
C1268  C1279   1.390   .     A
C1268  H1300   1.080   .     S
C1268  C1271   1.390   .     A
C1269  C1272   1.392   .     A
C1270  O1324   1.289   .     A
C1270  O1325   1.288   .     A
C1270  C1288   1.418   .     S
C1271  C1273   1.392   .     A
C1272  C1274   1.388   .     A
C1272  H1306   1.084   .     S
C1273  H1307   1.084   .     S
C1273  C1275   1.388   .     A
C1274  C1276   1.416   .     A
C1274  C1280   1.407   .     A
C1275  C1277   1.416   .     A
C1275  C1282   1.407   .     A
C1276  C1278   1.418   .     A
C1276  C611    1.394   1_556 S
C1277  C1279   1.418   .     A
C1278  C1283   1.413   .     A
C1279  C1281   1.413   .     A
C1280  N1316   1.436   .     S
C1280  C615    1.398   1_556 S
C1281  N1318   1.436   .     S
C1282  N1317   1.436   .     S
C1283  N1319   1.436   .     S
C1283  C616    1.398   1_556 S
C1284  H1308   1.081   .     S
C1285  H1309   1.081   .     S
C1285  C1288   1.397   .     A
C1285  C1139   1.370   1_655 S
C1286  H1310   1.084   .     S
C1286  C1288   1.395   .     A
C1286  C1136   1.370   1_655 S
C1287  H1311   1.084   .     S
H1290  N1316   1.045   .     S
H1291  N1317   1.045   .     S
H1292  N1317   1.046   .     S
H1293  N1318   1.045   .     S
H1294  N1318   1.045   .     S
H1295  N1319   1.045   .     S
H1296  N1319   1.045   .     S
H1297  N1320   1.037   .     S
H1298  N1320   1.042   .     S
H1299  N1321   1.042   .     S
H1301  N1321   1.037   .     S
H1302  N1322   1.046   .     S
H1303  N1322   1.045   .     S
H1304  N1314   1.045   .     S
H1305  N1314   1.046   .     S
H1312  N1316   1.046   .     S
N1313  Zn1331  2.025   .     S
N1315  Zn1332  2.025   .     S
O1323  Zn1331  1.998   .     S
O1324  Zn1332  1.998   .     S
O1325  Zn1331  1.995   .     S
O1326  Zn1332  1.995   .     S
O1327  Zn1331  2.024   .     S
O1328  Zn1332  2.024   .     S
O1329  Zn1331  2.014   .     S
O1330  Zn1332  2.014   .     S
