data_str_m3_o1_o16_pcu_sym.198
_audit_creation_date              2020-01-03
_audit_creation_method            'Materials Studio'
_symmetry_space_group_name_H-M    'P1'
_symmetry_Int_Tables_number       1
_symmetry_cell_setting            triclinic
loop_
_symmetry_equiv_pos_as_xyz
  x,y,z
_cell_length_a                    29.7644
_cell_length_b                    32.1548
_cell_length_c                    26.4853
_cell_angle_alpha                 91.9492
_cell_angle_beta                  73.7309
_cell_angle_gamma                 90.8694
loop_
_atom_site_label
_atom_site_type_symbol
_atom_site_fract_x
_atom_site_fract_y
_atom_site_fract_z
_atom_site_U_iso_or_equiv
_atom_site_adp_type
_atom_site_occupancy
C1     C     0.16846   0.24617   0.24396   0.00000  Uiso   1.00
C2     C     0.14983   0.14047   0.48487   0.00000  Uiso   1.00
C3     C     0.16497   0.13773   0.42958   0.00000  Uiso   1.00
C4     C     0.18364   0.14968   0.01206   0.00000  Uiso   1.00
C5     C     0.23197   0.14995   0.48418   0.00000  Uiso   1.00
C6     C     0.24563   0.13299   0.43294   0.00000  Uiso   1.00
C7     C     0.21191   0.12640   0.40541   0.00000  Uiso   1.00
C8     C     0.17100   0.15848   0.06599   0.00000  Uiso   1.00
C9     C     0.25181   0.17132   0.06367   0.00000  Uiso   1.00
C10    C     0.13122   0.13866   0.40149   0.00000  Uiso   1.00
C11    C     0.21267   0.31274   0.22720   0.00000  Uiso   1.00
C12    C     0.14252   0.15654   0.34827   0.00000  Uiso   1.00
C13    C     0.21014   0.02198   0.23187   0.00000  Uiso   1.00
C14    C     0.16690   0.04188   0.24229   0.00000  Uiso   1.00
C15    C     0.12582   0.01937   0.24209   0.00000  Uiso   1.00
C16    C     0.12978   0.31011   0.23145   0.00000  Uiso   1.00
C17    C     0.17096   0.28990   0.23331   0.00000  Uiso   1.00
C18    C     0.31639   0.13890   0.21923   0.00000  Uiso   1.00
C19    C     0.03086   0.13927   0.21841   0.00000  Uiso   1.00
C20    C     0.01733   0.19643   0.27841   0.00000  Uiso   1.00
C21    C     0.30267   0.19631   0.27850   0.00000  Uiso   1.00
C22    C     0.16648   0.08646   0.24873   0.00000  Uiso   1.00
C23    C     0.19166   0.16750   0.14887   0.00000  Uiso   1.00
C24    C     0.26519   0.16495   0.00963   0.00000  Uiso   1.00
C25    C     0.20518   0.16605   0.09201   0.00000  Uiso   1.00
C26    C     0.08837   0.11927   0.42487   0.00000  Uiso   1.00
C27    C     0.07348   0.11640   0.47955   0.00000  Uiso   1.00
C28    C     0.10238   0.13079   0.00986   0.00000  Uiso   1.00
H29    H     0.27776   0.18097   0.08341   0.00000  Uiso   1.00
H30    H     0.24234   0.03946   0.22755   0.00000  Uiso   1.00
H31    H     0.30398   0.11674   0.19445   0.00000  Uiso   1.00
H32    H     0.13476   0.15914   0.08848   0.00000  Uiso   1.00
H33    H     0.08869   0.12872   0.05192   0.00000  Uiso   1.00
H34    H     0.04035   0.10164   0.49841   0.00000  Uiso   1.00
N35    N     0.04760   0.16668   0.25002   0.00000  Uiso   1.00
N36    N     0.28573   0.16665   0.25001   0.00000  Uiso   1.00
O37    O     0.12846   0.22775   0.25001   0.00000  Uiso   1.00
O38    O     0.20490   0.22774   0.25001   0.00000  Uiso   1.00
O39    O     0.10947   0.16666   0.32681   0.00000  Uiso   1.00
O40    O     0.18591   0.16665   0.32681   0.00000  Uiso   1.00
O41    O     0.12843   0.10559   0.25000   0.00000  Uiso   1.00
O42    O     0.20488   0.10558   0.25000   0.00000  Uiso   1.00
O43    O     0.14742   0.16668   0.17319   0.00000  Uiso   1.00
O44    O     0.22387   0.16667   0.17319   0.00000  Uiso   1.00
Zn45   Zn    0.11562   0.16667   0.25000   0.00000  Uiso   1.00
Zn46   Zn    0.21771   0.16666   0.25000   0.00000  Uiso   1.00
O47    O     0.08418   0.04003   0.24589   0.00000  Uiso   1.00
C48    C     0.04525   0.02179   0.28210   0.00000  Uiso   1.00
H49    H     0.02625   0.00067   0.26104   0.00000  Uiso   1.00
H50    H     0.02043   0.04687   0.30103   0.00000  Uiso   1.00
H51    H     0.05460   0.00508   0.31392   0.00000  Uiso   1.00
O52    O     0.09280   0.28843   0.22074   0.00000  Uiso   1.00
C53    C     0.10218   0.28301   0.16573   0.00000  Uiso   1.00
H54    H     0.13408   0.26390   0.14885   0.00000  Uiso   1.00
H55    H     0.10567   0.31352   0.14628   0.00000  Uiso   1.00
H56    H     0.07228   0.26609   0.15713   0.00000  Uiso   1.00
Br57   Br    0.07143   0.10266   0.16839   0.00000  Uiso   1.00
Br58   Br    0.03743   0.23546   0.32452   0.00000  Uiso   1.00
Br59   Br    0.26023   0.23472   0.32507   0.00000  Uiso   1.00
O60    O     0.29063   0.11803   0.41287   0.00000  Uiso   1.00
C61    C     0.31263   0.13960   0.36736   0.00000  Uiso   1.00
H62    H     0.30017   0.17212   0.37005   0.00000  Uiso   1.00
H63    H     0.01697   0.14290   0.36347   0.00000  Uiso   1.00
H64    H     0.30862   0.12227   0.33197   0.00000  Uiso   1.00
Br65   Br    0.32645   0.18480   0.47353   0.00000  Uiso   1.00
Br66   Br    0.06366   0.07959   0.38458   0.00000  Uiso   1.00
O67    O     0.22413   0.10489   0.35740   0.00000  Uiso   1.00
C68    C     0.21516   0.06218   0.36632   0.00000  Uiso   1.00
H69    H     0.17689   0.05589   0.38041   0.00000  Uiso   1.00
H70    H     0.23317   0.05029   0.39451   0.00000  Uiso   1.00
H71    H     0.22908   0.04457   0.32861   0.00000  Uiso   1.00
Br72   Br    0.27459   0.28937   0.20677   0.00000  Uiso   1.00
C73    C     0.50179   0.24617   0.24396   0.00000  Uiso   1.00
C74    C     0.48316   0.14047   0.48487   0.00000  Uiso   1.00
C75    C     0.49830   0.13773   0.42958   0.00000  Uiso   1.00
C76    C     0.51698   0.14968   0.01206   0.00000  Uiso   1.00
C77    C     0.56530   0.14995   0.48418   0.00000  Uiso   1.00
C78    C     0.57897   0.13299   0.43294   0.00000  Uiso   1.00
C79    C     0.54524   0.12640   0.40541   0.00000  Uiso   1.00
C80    C     0.50434   0.15848   0.06599   0.00000  Uiso   1.00
C81    C     0.58514   0.17132   0.06367   0.00000  Uiso   1.00
C82    C     0.46455   0.13866   0.40149   0.00000  Uiso   1.00
C83    C     0.54600   0.31274   0.22720   0.00000  Uiso   1.00
C84    C     0.47585   0.15654   0.34827   0.00000  Uiso   1.00
C85    C     0.54347   0.02198   0.23187   0.00000  Uiso   1.00
C86    C     0.50024   0.04188   0.24229   0.00000  Uiso   1.00
C87    C     0.45916   0.01937   0.24209   0.00000  Uiso   1.00
C88    C     0.46311   0.31011   0.23145   0.00000  Uiso   1.00
C89    C     0.50429   0.28990   0.23331   0.00000  Uiso   1.00
C90    C     0.64972   0.13890   0.21923   0.00000  Uiso   1.00
C91    C     0.36419   0.13927   0.21841   0.00000  Uiso   1.00
C92    C     0.35067   0.19643   0.27841   0.00000  Uiso   1.00
C93    C     0.63601   0.19631   0.27850   0.00000  Uiso   1.00
C94    C     0.49981   0.08646   0.24873   0.00000  Uiso   1.00
C95    C     0.52499   0.16750   0.14887   0.00000  Uiso   1.00
C96    C     0.59852   0.16495   0.00963   0.00000  Uiso   1.00
C97    C     0.53852   0.16605   0.09201   0.00000  Uiso   1.00
C98    C     0.42171   0.11927   0.42487   0.00000  Uiso   1.00
C99    C     0.40681   0.11640   0.47955   0.00000  Uiso   1.00
C100   C     0.43571   0.13079   0.00986   0.00000  Uiso   1.00
H101   H     0.61109   0.18097   0.08341   0.00000  Uiso   1.00
H102   H     0.57568   0.03946   0.22755   0.00000  Uiso   1.00
H103   H     0.63731   0.11674   0.19445   0.00000  Uiso   1.00
H104   H     0.46809   0.15914   0.08848   0.00000  Uiso   1.00
H105   H     0.42203   0.12872   0.05192   0.00000  Uiso   1.00
H106   H     0.37369   0.10164   0.49841   0.00000  Uiso   1.00
N107   N     0.38093   0.16668   0.25002   0.00000  Uiso   1.00
N108   N     0.61906   0.16665   0.25001   0.00000  Uiso   1.00
O109   O     0.46179   0.22775   0.25001   0.00000  Uiso   1.00
O110   O     0.53823   0.22774   0.25001   0.00000  Uiso   1.00
O111   O     0.44280   0.16666   0.32681   0.00000  Uiso   1.00
O112   O     0.51924   0.16665   0.32681   0.00000  Uiso   1.00
O113   O     0.46177   0.10559   0.25000   0.00000  Uiso   1.00
O114   O     0.53821   0.10558   0.25000   0.00000  Uiso   1.00
O115   O     0.48076   0.16668   0.17319   0.00000  Uiso   1.00
O116   O     0.55720   0.16667   0.17319   0.00000  Uiso   1.00
Zn117  Zn    0.44896   0.16667   0.25000   0.00000  Uiso   1.00
Zn118  Zn    0.55104   0.16666   0.25000   0.00000  Uiso   1.00
O119   O     0.41751   0.04003   0.24589   0.00000  Uiso   1.00
C120   C     0.37859   0.02179   0.28210   0.00000  Uiso   1.00
H121   H     0.35959   0.00067   0.26104   0.00000  Uiso   1.00
H122   H     0.35376   0.04687   0.30103   0.00000  Uiso   1.00
H123   H     0.38793   0.00508   0.31392   0.00000  Uiso   1.00
O124   O     0.42613   0.28843   0.22074   0.00000  Uiso   1.00
C125   C     0.43551   0.28301   0.16573   0.00000  Uiso   1.00
H126   H     0.46741   0.26390   0.14885   0.00000  Uiso   1.00
H127   H     0.43900   0.31352   0.14628   0.00000  Uiso   1.00
H128   H     0.40561   0.26609   0.15713   0.00000  Uiso   1.00
Br129  Br    0.40477   0.10266   0.16839   0.00000  Uiso   1.00
Br130  Br    0.37076   0.23546   0.32452   0.00000  Uiso   1.00
Br131  Br    0.59356   0.23472   0.32507   0.00000  Uiso   1.00
O132   O     0.62396   0.11803   0.41287   0.00000  Uiso   1.00
C133   C     0.64597   0.13960   0.36736   0.00000  Uiso   1.00
H134   H     0.63351   0.17212   0.37005   0.00000  Uiso   1.00
H135   H     0.35030   0.14290   0.36347   0.00000  Uiso   1.00
H136   H     0.64195   0.12227   0.33197   0.00000  Uiso   1.00
Br137  Br    0.65978   0.18480   0.47353   0.00000  Uiso   1.00
Br138  Br    0.39699   0.07959   0.38458   0.00000  Uiso   1.00
O139   O     0.55746   0.10489   0.35740   0.00000  Uiso   1.00
C140   C     0.54849   0.06218   0.36632   0.00000  Uiso   1.00
H141   H     0.51023   0.05589   0.38041   0.00000  Uiso   1.00
H142   H     0.56650   0.05029   0.39451   0.00000  Uiso   1.00
H143   H     0.56242   0.04457   0.32861   0.00000  Uiso   1.00
Br144  Br    0.60792   0.28937   0.20677   0.00000  Uiso   1.00
C145   C     0.83512   0.24617   0.24396   0.00000  Uiso   1.00
C146   C     0.81649   0.14047   0.48487   0.00000  Uiso   1.00
C147   C     0.83164   0.13773   0.42958   0.00000  Uiso   1.00
C148   C     0.85031   0.14968   0.01206   0.00000  Uiso   1.00
C149   C     0.89864   0.14995   0.48418   0.00000  Uiso   1.00
C150   C     0.91230   0.13299   0.43294   0.00000  Uiso   1.00
C151   C     0.87857   0.12640   0.40541   0.00000  Uiso   1.00
C152   C     0.83767   0.15848   0.06599   0.00000  Uiso   1.00
C153   C     0.91847   0.17132   0.06367   0.00000  Uiso   1.00
C154   C     0.79788   0.13866   0.40149   0.00000  Uiso   1.00
C155   C     0.87934   0.31274   0.22720   0.00000  Uiso   1.00
C156   C     0.80919   0.15654   0.34827   0.00000  Uiso   1.00
C157   C     0.87680   0.02198   0.23187   0.00000  Uiso   1.00
C158   C     0.83357   0.04188   0.24229   0.00000  Uiso   1.00
C159   C     0.79249   0.01937   0.24209   0.00000  Uiso   1.00
C160   C     0.79644   0.31011   0.23145   0.00000  Uiso   1.00
C161   C     0.83763   0.28990   0.23331   0.00000  Uiso   1.00
C162   C     0.98305   0.13890   0.21923   0.00000  Uiso   1.00
C163   C     0.69752   0.13927   0.21841   0.00000  Uiso   1.00
C164   C     0.68400   0.19643   0.27841   0.00000  Uiso   1.00
C165   C     0.96934   0.19631   0.27850   0.00000  Uiso   1.00
C166   C     0.83314   0.08646   0.24873   0.00000  Uiso   1.00
C167   C     0.85832   0.16750   0.14887   0.00000  Uiso   1.00
C168   C     0.93186   0.16495   0.00963   0.00000  Uiso   1.00
C169   C     0.87185   0.16605   0.09201   0.00000  Uiso   1.00
C170   C     0.75504   0.11927   0.42487   0.00000  Uiso   1.00
C171   C     0.74014   0.11640   0.47955   0.00000  Uiso   1.00
C172   C     0.76905   0.13079   0.00986   0.00000  Uiso   1.00
H173   H     0.94443   0.18097   0.08341   0.00000  Uiso   1.00
H174   H     0.90901   0.03946   0.22755   0.00000  Uiso   1.00
H175   H     0.97065   0.11674   0.19445   0.00000  Uiso   1.00
H176   H     0.80142   0.15914   0.08848   0.00000  Uiso   1.00
H177   H     0.75536   0.12872   0.05192   0.00000  Uiso   1.00
H178   H     0.70702   0.10164   0.49841   0.00000  Uiso   1.00
N179   N     0.71426   0.16668   0.25002   0.00000  Uiso   1.00
N180   N     0.95239   0.16665   0.25001   0.00000  Uiso   1.00
O181   O     0.79512   0.22775   0.25001   0.00000  Uiso   1.00
O182   O     0.87157   0.22774   0.25001   0.00000  Uiso   1.00
O183   O     0.77613   0.16666   0.32681   0.00000  Uiso   1.00
O184   O     0.85258   0.16665   0.32681   0.00000  Uiso   1.00
O185   O     0.79510   0.10559   0.25000   0.00000  Uiso   1.00
O186   O     0.87154   0.10558   0.25000   0.00000  Uiso   1.00
O187   O     0.81409   0.16668   0.17319   0.00000  Uiso   1.00
O188   O     0.89053   0.16667   0.17319   0.00000  Uiso   1.00
Zn189  Zn    0.78229   0.16667   0.25000   0.00000  Uiso   1.00
Zn190  Zn    0.88438   0.16666   0.25000   0.00000  Uiso   1.00
O191   O     0.75084   0.04003   0.24589   0.00000  Uiso   1.00
C192   C     0.71192   0.02179   0.28210   0.00000  Uiso   1.00
H193   H     0.69292   0.00067   0.26104   0.00000  Uiso   1.00
H194   H     0.68710   0.04687   0.30103   0.00000  Uiso   1.00
H195   H     0.72127   0.00508   0.31392   0.00000  Uiso   1.00
O196   O     0.75947   0.28843   0.22074   0.00000  Uiso   1.00
C197   C     0.76885   0.28301   0.16573   0.00000  Uiso   1.00
H198   H     0.80074   0.26390   0.14885   0.00000  Uiso   1.00
H199   H     0.77233   0.31352   0.14628   0.00000  Uiso   1.00
H200   H     0.73894   0.26609   0.15713   0.00000  Uiso   1.00
Br201  Br    0.73810   0.10266   0.16839   0.00000  Uiso   1.00
Br202  Br    0.70410   0.23546   0.32452   0.00000  Uiso   1.00
Br203  Br    0.92690   0.23472   0.32507   0.00000  Uiso   1.00
O204   O     0.95729   0.11803   0.41287   0.00000  Uiso   1.00
C205   C     0.97930   0.13960   0.36736   0.00000  Uiso   1.00
H206   H     0.96684   0.17212   0.37005   0.00000  Uiso   1.00
H207   H     0.68363   0.14290   0.36347   0.00000  Uiso   1.00
H208   H     0.97529   0.12227   0.33197   0.00000  Uiso   1.00
Br209  Br    0.99311   0.18480   0.47353   0.00000  Uiso   1.00
Br210  Br    0.73032   0.07959   0.38458   0.00000  Uiso   1.00
O211   O     0.89079   0.10489   0.35740   0.00000  Uiso   1.00
C212   C     0.88182   0.06218   0.36632   0.00000  Uiso   1.00
H213   H     0.84356   0.05589   0.38041   0.00000  Uiso   1.00
H214   H     0.89983   0.05029   0.39451   0.00000  Uiso   1.00
H215   H     0.89575   0.04457   0.32861   0.00000  Uiso   1.00
Br216  Br    0.94126   0.28937   0.20677   0.00000  Uiso   1.00
C217   C     0.16846   0.57950   0.24396   0.00000  Uiso   1.00
C218   C     0.14983   0.47381   0.48487   0.00000  Uiso   1.00
C219   C     0.16497   0.47106   0.42958   0.00000  Uiso   1.00
C220   C     0.18364   0.48301   0.01206   0.00000  Uiso   1.00
C221   C     0.23197   0.48329   0.48418   0.00000  Uiso   1.00
C222   C     0.24563   0.46632   0.43294   0.00000  Uiso   1.00
C223   C     0.21191   0.45973   0.40541   0.00000  Uiso   1.00
C224   C     0.17100   0.49182   0.06599   0.00000  Uiso   1.00
C225   C     0.25181   0.50465   0.06367   0.00000  Uiso   1.00
C226   C     0.13122   0.47199   0.40149   0.00000  Uiso   1.00
C227   C     0.21267   0.64607   0.22720   0.00000  Uiso   1.00
C228   C     0.14252   0.48988   0.34827   0.00000  Uiso   1.00
C229   C     0.21014   0.35531   0.23187   0.00000  Uiso   1.00
C230   C     0.16690   0.37521   0.24229   0.00000  Uiso   1.00
C231   C     0.12582   0.35270   0.24209   0.00000  Uiso   1.00
C232   C     0.12978   0.64344   0.23145   0.00000  Uiso   1.00
C233   C     0.17096   0.62323   0.23331   0.00000  Uiso   1.00
C234   C     0.31639   0.47223   0.21923   0.00000  Uiso   1.00
C235   C     0.03086   0.47260   0.21841   0.00000  Uiso   1.00
C236   C     0.01733   0.52976   0.27841   0.00000  Uiso   1.00
C237   C     0.30267   0.52965   0.27850   0.00000  Uiso   1.00
C238   C     0.16648   0.41979   0.24873   0.00000  Uiso   1.00
C239   C     0.19166   0.50084   0.14887   0.00000  Uiso   1.00
C240   C     0.26519   0.49828   0.00963   0.00000  Uiso   1.00
C241   C     0.20518   0.49939   0.09201   0.00000  Uiso   1.00
C242   C     0.08837   0.45260   0.42487   0.00000  Uiso   1.00
C243   C     0.07348   0.44973   0.47955   0.00000  Uiso   1.00
C244   C     0.10238   0.46412   0.00986   0.00000  Uiso   1.00
H245   H     0.27776   0.51430   0.08341   0.00000  Uiso   1.00
H246   H     0.24234   0.37279   0.22755   0.00000  Uiso   1.00
H247   H     0.30398   0.45008   0.19445   0.00000  Uiso   1.00
H248   H     0.13476   0.49248   0.08848   0.00000  Uiso   1.00
H249   H     0.08869   0.46206   0.05192   0.00000  Uiso   1.00
H250   H     0.04035   0.43498   0.49841   0.00000  Uiso   1.00
N251   N     0.04760   0.50001   0.25002   0.00000  Uiso   1.00
N252   N     0.28573   0.49998   0.25001   0.00000  Uiso   1.00
O253   O     0.12846   0.56108   0.25001   0.00000  Uiso   1.00
O254   O     0.20490   0.56107   0.25001   0.00000  Uiso   1.00
O255   O     0.10947   0.50000   0.32681   0.00000  Uiso   1.00
O256   O     0.18591   0.49999   0.32681   0.00000  Uiso   1.00
O257   O     0.12843   0.43893   0.25000   0.00000  Uiso   1.00
O258   O     0.20488   0.43892   0.25000   0.00000  Uiso   1.00
O259   O     0.14742   0.50001   0.17319   0.00000  Uiso   1.00
O260   O     0.22387   0.50000   0.17319   0.00000  Uiso   1.00
Zn261  Zn    0.11562   0.50001   0.25000   0.00000  Uiso   1.00
Zn262  Zn    0.21771   0.49999   0.25000   0.00000  Uiso   1.00
O263   O     0.08418   0.37336   0.24589   0.00000  Uiso   1.00
C264   C     0.04525   0.35512   0.28210   0.00000  Uiso   1.00
H265   H     0.02625   0.33400   0.26104   0.00000  Uiso   1.00
H266   H     0.02043   0.38020   0.30103   0.00000  Uiso   1.00
H267   H     0.05460   0.33841   0.31392   0.00000  Uiso   1.00
O268   O     0.09280   0.62176   0.22074   0.00000  Uiso   1.00
C269   C     0.10218   0.61634   0.16573   0.00000  Uiso   1.00
H270   H     0.13408   0.59724   0.14885   0.00000  Uiso   1.00
H271   H     0.10567   0.64686   0.14628   0.00000  Uiso   1.00
H272   H     0.07228   0.59942   0.15713   0.00000  Uiso   1.00
Br273  Br    0.07143   0.43600   0.16839   0.00000  Uiso   1.00
Br274  Br    0.03743   0.56879   0.32452   0.00000  Uiso   1.00
Br275  Br    0.26023   0.56805   0.32507   0.00000  Uiso   1.00
O276   O     0.29063   0.45136   0.41287   0.00000  Uiso   1.00
C277   C     0.31263   0.47294   0.36736   0.00000  Uiso   1.00
H278   H     0.30017   0.50545   0.37005   0.00000  Uiso   1.00
H279   H     0.01697   0.47623   0.36347   0.00000  Uiso   1.00
H280   H     0.30862   0.45560   0.33197   0.00000  Uiso   1.00
Br281  Br    0.32645   0.51814   0.47353   0.00000  Uiso   1.00
Br282  Br    0.06366   0.41292   0.38458   0.00000  Uiso   1.00
O283   O     0.22413   0.43822   0.35740   0.00000  Uiso   1.00
C284   C     0.21516   0.39551   0.36632   0.00000  Uiso   1.00
H285   H     0.17689   0.38922   0.38041   0.00000  Uiso   1.00
H286   H     0.23317   0.38362   0.39451   0.00000  Uiso   1.00
H287   H     0.22908   0.37791   0.32861   0.00000  Uiso   1.00
Br288  Br    0.27459   0.62270   0.20677   0.00000  Uiso   1.00
C289   C     0.50179   0.57950   0.24396   0.00000  Uiso   1.00
C290   C     0.48316   0.47381   0.48487   0.00000  Uiso   1.00
C291   C     0.49830   0.47106   0.42958   0.00000  Uiso   1.00
C292   C     0.51698   0.48301   0.01206   0.00000  Uiso   1.00
C293   C     0.56530   0.48329   0.48418   0.00000  Uiso   1.00
C294   C     0.57897   0.46632   0.43294   0.00000  Uiso   1.00
C295   C     0.54524   0.45973   0.40541   0.00000  Uiso   1.00
C296   C     0.50434   0.49182   0.06599   0.00000  Uiso   1.00
C297   C     0.58514   0.50465   0.06367   0.00000  Uiso   1.00
C298   C     0.46455   0.47199   0.40149   0.00000  Uiso   1.00
C299   C     0.54600   0.64607   0.22720   0.00000  Uiso   1.00
C300   C     0.47585   0.48988   0.34827   0.00000  Uiso   1.00
C301   C     0.54347   0.35531   0.23187   0.00000  Uiso   1.00
C302   C     0.50024   0.37521   0.24229   0.00000  Uiso   1.00
C303   C     0.45916   0.35270   0.24209   0.00000  Uiso   1.00
C304   C     0.46311   0.64344   0.23145   0.00000  Uiso   1.00
C305   C     0.50429   0.62323   0.23331   0.00000  Uiso   1.00
C306   C     0.64972   0.47223   0.21923   0.00000  Uiso   1.00
C307   C     0.36419   0.47260   0.21841   0.00000  Uiso   1.00
C308   C     0.35067   0.52976   0.27841   0.00000  Uiso   1.00
C309   C     0.63601   0.52965   0.27850   0.00000  Uiso   1.00
C310   C     0.49981   0.41979   0.24873   0.00000  Uiso   1.00
C311   C     0.52499   0.50084   0.14887   0.00000  Uiso   1.00
C312   C     0.59852   0.49828   0.00963   0.00000  Uiso   1.00
C313   C     0.53852   0.49939   0.09201   0.00000  Uiso   1.00
C314   C     0.42171   0.45260   0.42487   0.00000  Uiso   1.00
C315   C     0.40681   0.44973   0.47955   0.00000  Uiso   1.00
C316   C     0.43571   0.46412   0.00986   0.00000  Uiso   1.00
H317   H     0.61109   0.51430   0.08341   0.00000  Uiso   1.00
H318   H     0.57568   0.37279   0.22755   0.00000  Uiso   1.00
H319   H     0.63731   0.45008   0.19445   0.00000  Uiso   1.00
H320   H     0.46809   0.49248   0.08848   0.00000  Uiso   1.00
H321   H     0.42203   0.46206   0.05192   0.00000  Uiso   1.00
H322   H     0.37369   0.43498   0.49841   0.00000  Uiso   1.00
N323   N     0.38093   0.50001   0.25002   0.00000  Uiso   1.00
N324   N     0.61906   0.49998   0.25001   0.00000  Uiso   1.00
O325   O     0.46179   0.56108   0.25001   0.00000  Uiso   1.00
O326   O     0.53823   0.56107   0.25001   0.00000  Uiso   1.00
O327   O     0.44280   0.50000   0.32681   0.00000  Uiso   1.00
O328   O     0.51924   0.49999   0.32681   0.00000  Uiso   1.00
O329   O     0.46177   0.43893   0.25000   0.00000  Uiso   1.00
O330   O     0.53821   0.43892   0.25000   0.00000  Uiso   1.00
O331   O     0.48076   0.50001   0.17319   0.00000  Uiso   1.00
O332   O     0.55720   0.50000   0.17319   0.00000  Uiso   1.00
Zn333  Zn    0.44896   0.50001   0.25000   0.00000  Uiso   1.00
Zn334  Zn    0.55104   0.49999   0.25000   0.00000  Uiso   1.00
O335   O     0.41751   0.37336   0.24589   0.00000  Uiso   1.00
C336   C     0.37859   0.35512   0.28210   0.00000  Uiso   1.00
H337   H     0.35959   0.33400   0.26104   0.00000  Uiso   1.00
H338   H     0.35376   0.38020   0.30103   0.00000  Uiso   1.00
H339   H     0.38793   0.33841   0.31392   0.00000  Uiso   1.00
O340   O     0.42613   0.62176   0.22074   0.00000  Uiso   1.00
C341   C     0.43551   0.61634   0.16573   0.00000  Uiso   1.00
H342   H     0.46741   0.59724   0.14885   0.00000  Uiso   1.00
H343   H     0.43900   0.64686   0.14628   0.00000  Uiso   1.00
H344   H     0.40561   0.59942   0.15713   0.00000  Uiso   1.00
Br345  Br    0.40477   0.43600   0.16839   0.00000  Uiso   1.00
Br346  Br    0.37076   0.56879   0.32452   0.00000  Uiso   1.00
Br347  Br    0.59356   0.56805   0.32507   0.00000  Uiso   1.00
O348   O     0.62396   0.45136   0.41287   0.00000  Uiso   1.00
C349   C     0.64597   0.47294   0.36736   0.00000  Uiso   1.00
H350   H     0.63351   0.50545   0.37005   0.00000  Uiso   1.00
H351   H     0.35030   0.47623   0.36347   0.00000  Uiso   1.00
H352   H     0.64195   0.45560   0.33197   0.00000  Uiso   1.00
Br353  Br    0.65978   0.51814   0.47353   0.00000  Uiso   1.00
Br354  Br    0.39699   0.41292   0.38458   0.00000  Uiso   1.00
O355   O     0.55746   0.43822   0.35740   0.00000  Uiso   1.00
C356   C     0.54849   0.39551   0.36632   0.00000  Uiso   1.00
H357   H     0.51023   0.38922   0.38041   0.00000  Uiso   1.00
H358   H     0.56650   0.38362   0.39451   0.00000  Uiso   1.00
H359   H     0.56242   0.37791   0.32861   0.00000  Uiso   1.00
Br360  Br    0.60792   0.62270   0.20677   0.00000  Uiso   1.00
C361   C     0.83512   0.57950   0.24396   0.00000  Uiso   1.00
C362   C     0.81649   0.47381   0.48487   0.00000  Uiso   1.00
C363   C     0.83164   0.47106   0.42958   0.00000  Uiso   1.00
C364   C     0.85031   0.48301   0.01206   0.00000  Uiso   1.00
C365   C     0.89864   0.48329   0.48418   0.00000  Uiso   1.00
C366   C     0.91230   0.46632   0.43294   0.00000  Uiso   1.00
C367   C     0.87857   0.45973   0.40541   0.00000  Uiso   1.00
C368   C     0.83767   0.49182   0.06599   0.00000  Uiso   1.00
C369   C     0.91847   0.50465   0.06367   0.00000  Uiso   1.00
C370   C     0.79788   0.47199   0.40149   0.00000  Uiso   1.00
C371   C     0.87934   0.64607   0.22720   0.00000  Uiso   1.00
C372   C     0.80919   0.48988   0.34827   0.00000  Uiso   1.00
C373   C     0.87680   0.35531   0.23187   0.00000  Uiso   1.00
C374   C     0.83357   0.37521   0.24229   0.00000  Uiso   1.00
C375   C     0.79249   0.35270   0.24209   0.00000  Uiso   1.00
C376   C     0.79644   0.64344   0.23145   0.00000  Uiso   1.00
C377   C     0.83763   0.62323   0.23331   0.00000  Uiso   1.00
C378   C     0.98305   0.47223   0.21923   0.00000  Uiso   1.00
C379   C     0.69752   0.47260   0.21841   0.00000  Uiso   1.00
C380   C     0.68400   0.52976   0.27841   0.00000  Uiso   1.00
C381   C     0.96934   0.52965   0.27850   0.00000  Uiso   1.00
C382   C     0.83314   0.41979   0.24873   0.00000  Uiso   1.00
C383   C     0.85832   0.50084   0.14887   0.00000  Uiso   1.00
C384   C     0.93186   0.49828   0.00963   0.00000  Uiso   1.00
C385   C     0.87185   0.49939   0.09201   0.00000  Uiso   1.00
C386   C     0.75504   0.45260   0.42487   0.00000  Uiso   1.00
C387   C     0.74014   0.44973   0.47955   0.00000  Uiso   1.00
C388   C     0.76905   0.46412   0.00986   0.00000  Uiso   1.00
H389   H     0.94443   0.51430   0.08341   0.00000  Uiso   1.00
H390   H     0.90901   0.37279   0.22755   0.00000  Uiso   1.00
H391   H     0.97065   0.45008   0.19445   0.00000  Uiso   1.00
H392   H     0.80142   0.49248   0.08848   0.00000  Uiso   1.00
H393   H     0.75536   0.46206   0.05192   0.00000  Uiso   1.00
H394   H     0.70702   0.43498   0.49841   0.00000  Uiso   1.00
N395   N     0.71426   0.50001   0.25002   0.00000  Uiso   1.00
N396   N     0.95239   0.49998   0.25001   0.00000  Uiso   1.00
O397   O     0.79512   0.56108   0.25001   0.00000  Uiso   1.00
O398   O     0.87157   0.56107   0.25001   0.00000  Uiso   1.00
O399   O     0.77613   0.50000   0.32681   0.00000  Uiso   1.00
O400   O     0.85258   0.49999   0.32681   0.00000  Uiso   1.00
O401   O     0.79510   0.43893   0.25000   0.00000  Uiso   1.00
O402   O     0.87154   0.43892   0.25000   0.00000  Uiso   1.00
O403   O     0.81409   0.50001   0.17319   0.00000  Uiso   1.00
O404   O     0.89053   0.50000   0.17319   0.00000  Uiso   1.00
Zn405  Zn    0.78229   0.50001   0.25000   0.00000  Uiso   1.00
Zn406  Zn    0.88438   0.49999   0.25000   0.00000  Uiso   1.00
O407   O     0.75084   0.37336   0.24589   0.00000  Uiso   1.00
C408   C     0.71192   0.35512   0.28210   0.00000  Uiso   1.00
H409   H     0.69292   0.33400   0.26104   0.00000  Uiso   1.00
H410   H     0.68710   0.38020   0.30103   0.00000  Uiso   1.00
H411   H     0.72127   0.33841   0.31392   0.00000  Uiso   1.00
O412   O     0.75947   0.62176   0.22074   0.00000  Uiso   1.00
C413   C     0.76885   0.61634   0.16573   0.00000  Uiso   1.00
H414   H     0.80074   0.59724   0.14885   0.00000  Uiso   1.00
H415   H     0.77233   0.64686   0.14628   0.00000  Uiso   1.00
H416   H     0.73894   0.59942   0.15713   0.00000  Uiso   1.00
Br417  Br    0.73810   0.43600   0.16839   0.00000  Uiso   1.00
Br418  Br    0.70410   0.56879   0.32452   0.00000  Uiso   1.00
Br419  Br    0.92690   0.56805   0.32507   0.00000  Uiso   1.00
O420   O     0.95729   0.45136   0.41287   0.00000  Uiso   1.00
C421   C     0.97930   0.47294   0.36736   0.00000  Uiso   1.00
H422   H     0.96684   0.50545   0.37005   0.00000  Uiso   1.00
H423   H     0.68363   0.47623   0.36347   0.00000  Uiso   1.00
H424   H     0.97529   0.45560   0.33197   0.00000  Uiso   1.00
Br425  Br    0.99311   0.51814   0.47353   0.00000  Uiso   1.00
Br426  Br    0.73032   0.41292   0.38458   0.00000  Uiso   1.00
O427   O     0.89079   0.43822   0.35740   0.00000  Uiso   1.00
C428   C     0.88182   0.39551   0.36632   0.00000  Uiso   1.00
H429   H     0.84356   0.38922   0.38041   0.00000  Uiso   1.00
H430   H     0.89983   0.38362   0.39451   0.00000  Uiso   1.00
H431   H     0.89575   0.37791   0.32861   0.00000  Uiso   1.00
Br432  Br    0.94126   0.62270   0.20677   0.00000  Uiso   1.00
C433   C     0.16846   0.91284   0.24396   0.00000  Uiso   1.00
C434   C     0.14983   0.80714   0.48487   0.00000  Uiso   1.00
C435   C     0.16497   0.80440   0.42958   0.00000  Uiso   1.00
C436   C     0.18364   0.81634   0.01206   0.00000  Uiso   1.00
C437   C     0.23197   0.81662   0.48418   0.00000  Uiso   1.00
C438   C     0.24563   0.79966   0.43294   0.00000  Uiso   1.00
C439   C     0.21191   0.79306   0.40541   0.00000  Uiso   1.00
C440   C     0.17100   0.82515   0.06599   0.00000  Uiso   1.00
C441   C     0.25181   0.83798   0.06367   0.00000  Uiso   1.00
C442   C     0.13122   0.80533   0.40149   0.00000  Uiso   1.00
C443   C     0.21267   0.97941   0.22720   0.00000  Uiso   1.00
C444   C     0.14252   0.82321   0.34827   0.00000  Uiso   1.00
C445   C     0.21014   0.68865   0.23187   0.00000  Uiso   1.00
C446   C     0.16690   0.70854   0.24229   0.00000  Uiso   1.00
C447   C     0.12582   0.68603   0.24209   0.00000  Uiso   1.00
C448   C     0.12978   0.97678   0.23145   0.00000  Uiso   1.00
C449   C     0.17096   0.95657   0.23331   0.00000  Uiso   1.00
C450   C     0.31639   0.80557   0.21923   0.00000  Uiso   1.00
C451   C     0.03086   0.80593   0.21841   0.00000  Uiso   1.00
C452   C     0.01733   0.86309   0.27841   0.00000  Uiso   1.00
C453   C     0.30267   0.86298   0.27850   0.00000  Uiso   1.00
C454   C     0.16648   0.75312   0.24873   0.00000  Uiso   1.00
C455   C     0.19166   0.83417   0.14887   0.00000  Uiso   1.00
C456   C     0.26519   0.83161   0.00963   0.00000  Uiso   1.00
C457   C     0.20518   0.83272   0.09201   0.00000  Uiso   1.00
C458   C     0.08837   0.78594   0.42487   0.00000  Uiso   1.00
C459   C     0.07348   0.78307   0.47955   0.00000  Uiso   1.00
C460   C     0.10238   0.79745   0.00986   0.00000  Uiso   1.00
H461   H     0.27776   0.84764   0.08341   0.00000  Uiso   1.00
H462   H     0.24234   0.70612   0.22755   0.00000  Uiso   1.00
H463   H     0.30398   0.78341   0.19445   0.00000  Uiso   1.00
H464   H     0.13476   0.82581   0.08848   0.00000  Uiso   1.00
H465   H     0.08869   0.79539   0.05192   0.00000  Uiso   1.00
H466   H     0.04035   0.76831   0.49841   0.00000  Uiso   1.00
N467   N     0.04760   0.83334   0.25002   0.00000  Uiso   1.00
N468   N     0.28573   0.83331   0.25001   0.00000  Uiso   1.00
O469   O     0.12846   0.89442   0.25001   0.00000  Uiso   1.00
O470   O     0.20490   0.89441   0.25001   0.00000  Uiso   1.00
O471   O     0.10947   0.83333   0.32681   0.00000  Uiso   1.00
O472   O     0.18591   0.83332   0.32681   0.00000  Uiso   1.00
O473   O     0.12843   0.77226   0.25000   0.00000  Uiso   1.00
O474   O     0.20488   0.77225   0.25000   0.00000  Uiso   1.00
O475   O     0.14742   0.83335   0.17319   0.00000  Uiso   1.00
O476   O     0.22387   0.83334   0.17319   0.00000  Uiso   1.00
Zn477  Zn    0.11562   0.83334   0.25000   0.00000  Uiso   1.00
Zn478  Zn    0.21771   0.83333   0.25000   0.00000  Uiso   1.00
O479   O     0.08418   0.70669   0.24589   0.00000  Uiso   1.00
C480   C     0.04525   0.68846   0.28210   0.00000  Uiso   1.00
H481   H     0.02625   0.66734   0.26104   0.00000  Uiso   1.00
H482   H     0.02043   0.71354   0.30103   0.00000  Uiso   1.00
H483   H     0.05460   0.67175   0.31392   0.00000  Uiso   1.00
O484   O     0.09280   0.95510   0.22074   0.00000  Uiso   1.00
C485   C     0.10218   0.94968   0.16573   0.00000  Uiso   1.00
H486   H     0.13408   0.93057   0.14885   0.00000  Uiso   1.00
H487   H     0.10567   0.98019   0.14628   0.00000  Uiso   1.00
H488   H     0.07228   0.93276   0.15713   0.00000  Uiso   1.00
Br489  Br    0.07143   0.76933   0.16839   0.00000  Uiso   1.00
Br490  Br    0.03743   0.90212   0.32452   0.00000  Uiso   1.00
Br491  Br    0.26023   0.90138   0.32507   0.00000  Uiso   1.00
O492   O     0.29063   0.78470   0.41287   0.00000  Uiso   1.00
C493   C     0.31263   0.80627   0.36736   0.00000  Uiso   1.00
H494   H     0.30017   0.83878   0.37005   0.00000  Uiso   1.00
H495   H     0.01697   0.80956   0.36347   0.00000  Uiso   1.00
H496   H     0.30862   0.78894   0.33197   0.00000  Uiso   1.00
Br497  Br    0.32645   0.85147   0.47353   0.00000  Uiso   1.00
Br498  Br    0.06366   0.74626   0.38458   0.00000  Uiso   1.00
O499   O     0.22413   0.77156   0.35740   0.00000  Uiso   1.00
C500   C     0.21516   0.72884   0.36632   0.00000  Uiso   1.00
H501   H     0.17689   0.72255   0.38041   0.00000  Uiso   1.00
H502   H     0.23317   0.71695   0.39451   0.00000  Uiso   1.00
H503   H     0.22908   0.71124   0.32861   0.00000  Uiso   1.00
Br504  Br    0.27459   0.95603   0.20677   0.00000  Uiso   1.00
C505   C     0.50179   0.91284   0.24396   0.00000  Uiso   1.00
C506   C     0.48316   0.80714   0.48487   0.00000  Uiso   1.00
C507   C     0.49830   0.80440   0.42958   0.00000  Uiso   1.00
C508   C     0.51698   0.81634   0.01206   0.00000  Uiso   1.00
C509   C     0.56530   0.81662   0.48418   0.00000  Uiso   1.00
C510   C     0.57897   0.79966   0.43294   0.00000  Uiso   1.00
C511   C     0.54524   0.79306   0.40541   0.00000  Uiso   1.00
C512   C     0.50434   0.82515   0.06599   0.00000  Uiso   1.00
C513   C     0.58514   0.83798   0.06367   0.00000  Uiso   1.00
C514   C     0.46455   0.80533   0.40149   0.00000  Uiso   1.00
C515   C     0.54600   0.97941   0.22720   0.00000  Uiso   1.00
C516   C     0.47585   0.82321   0.34827   0.00000  Uiso   1.00
C517   C     0.54347   0.68865   0.23187   0.00000  Uiso   1.00
C518   C     0.50024   0.70854   0.24229   0.00000  Uiso   1.00
C519   C     0.45916   0.68603   0.24209   0.00000  Uiso   1.00
C520   C     0.46311   0.97678   0.23145   0.00000  Uiso   1.00
C521   C     0.50429   0.95657   0.23331   0.00000  Uiso   1.00
C522   C     0.64972   0.80557   0.21923   0.00000  Uiso   1.00
C523   C     0.36419   0.80593   0.21841   0.00000  Uiso   1.00
C524   C     0.35067   0.86309   0.27841   0.00000  Uiso   1.00
C525   C     0.63601   0.86298   0.27850   0.00000  Uiso   1.00
C526   C     0.49981   0.75312   0.24873   0.00000  Uiso   1.00
C527   C     0.52499   0.83417   0.14887   0.00000  Uiso   1.00
C528   C     0.59852   0.83161   0.00963   0.00000  Uiso   1.00
C529   C     0.53852   0.83272   0.09201   0.00000  Uiso   1.00
C530   C     0.42171   0.78594   0.42487   0.00000  Uiso   1.00
C531   C     0.40681   0.78307   0.47955   0.00000  Uiso   1.00
C532   C     0.43571   0.79745   0.00986   0.00000  Uiso   1.00
H533   H     0.61109   0.84764   0.08341   0.00000  Uiso   1.00
H534   H     0.57568   0.70612   0.22755   0.00000  Uiso   1.00
H535   H     0.63731   0.78341   0.19445   0.00000  Uiso   1.00
H536   H     0.46809   0.82581   0.08848   0.00000  Uiso   1.00
H537   H     0.42203   0.79539   0.05192   0.00000  Uiso   1.00
H538   H     0.37369   0.76831   0.49841   0.00000  Uiso   1.00
N539   N     0.38093   0.83334   0.25002   0.00000  Uiso   1.00
N540   N     0.61906   0.83331   0.25001   0.00000  Uiso   1.00
O541   O     0.46179   0.89442   0.25001   0.00000  Uiso   1.00
O542   O     0.53823   0.89441   0.25001   0.00000  Uiso   1.00
O543   O     0.44280   0.83333   0.32681   0.00000  Uiso   1.00
O544   O     0.51924   0.83332   0.32681   0.00000  Uiso   1.00
O545   O     0.46177   0.77226   0.25000   0.00000  Uiso   1.00
O546   O     0.53821   0.77225   0.25000   0.00000  Uiso   1.00
O547   O     0.48076   0.83335   0.17319   0.00000  Uiso   1.00
O548   O     0.55720   0.83334   0.17319   0.00000  Uiso   1.00
Zn549  Zn    0.44896   0.83334   0.25000   0.00000  Uiso   1.00
Zn550  Zn    0.55104   0.83333   0.25000   0.00000  Uiso   1.00
O551   O     0.41751   0.70669   0.24589   0.00000  Uiso   1.00
C552   C     0.37859   0.68846   0.28210   0.00000  Uiso   1.00
H553   H     0.35959   0.66734   0.26104   0.00000  Uiso   1.00
H554   H     0.35376   0.71354   0.30103   0.00000  Uiso   1.00
H555   H     0.38793   0.67175   0.31392   0.00000  Uiso   1.00
O556   O     0.42613   0.95510   0.22074   0.00000  Uiso   1.00
C557   C     0.43551   0.94968   0.16573   0.00000  Uiso   1.00
H558   H     0.46741   0.93057   0.14885   0.00000  Uiso   1.00
H559   H     0.43900   0.98019   0.14628   0.00000  Uiso   1.00
H560   H     0.40561   0.93276   0.15713   0.00000  Uiso   1.00
Br561  Br    0.40477   0.76933   0.16839   0.00000  Uiso   1.00
Br562  Br    0.37076   0.90212   0.32452   0.00000  Uiso   1.00
Br563  Br    0.59356   0.90138   0.32507   0.00000  Uiso   1.00
O564   O     0.62396   0.78470   0.41287   0.00000  Uiso   1.00
C565   C     0.64597   0.80627   0.36736   0.00000  Uiso   1.00
H566   H     0.63351   0.83878   0.37005   0.00000  Uiso   1.00
H567   H     0.35030   0.80956   0.36347   0.00000  Uiso   1.00
H568   H     0.64195   0.78894   0.33197   0.00000  Uiso   1.00
Br569  Br    0.65978   0.85147   0.47353   0.00000  Uiso   1.00
Br570  Br    0.39699   0.74626   0.38458   0.00000  Uiso   1.00
O571   O     0.55746   0.77156   0.35740   0.00000  Uiso   1.00
C572   C     0.54849   0.72884   0.36632   0.00000  Uiso   1.00
H573   H     0.51023   0.72255   0.38041   0.00000  Uiso   1.00
H574   H     0.56650   0.71695   0.39451   0.00000  Uiso   1.00
H575   H     0.56242   0.71124   0.32861   0.00000  Uiso   1.00
Br576  Br    0.60792   0.95603   0.20677   0.00000  Uiso   1.00
C577   C     0.83512   0.91284   0.24396   0.00000  Uiso   1.00
C578   C     0.81649   0.80714   0.48487   0.00000  Uiso   1.00
C579   C     0.83164   0.80440   0.42958   0.00000  Uiso   1.00
C580   C     0.85031   0.81634   0.01206   0.00000  Uiso   1.00
C581   C     0.89864   0.81662   0.48418   0.00000  Uiso   1.00
C582   C     0.91230   0.79966   0.43294   0.00000  Uiso   1.00
C583   C     0.87857   0.79306   0.40541   0.00000  Uiso   1.00
C584   C     0.83767   0.82515   0.06599   0.00000  Uiso   1.00
C585   C     0.91847   0.83798   0.06367   0.00000  Uiso   1.00
C586   C     0.79788   0.80533   0.40149   0.00000  Uiso   1.00
C587   C     0.87934   0.97941   0.22720   0.00000  Uiso   1.00
C588   C     0.80919   0.82321   0.34827   0.00000  Uiso   1.00
C589   C     0.87680   0.68865   0.23187   0.00000  Uiso   1.00
C590   C     0.83357   0.70854   0.24229   0.00000  Uiso   1.00
C591   C     0.79249   0.68603   0.24209   0.00000  Uiso   1.00
C592   C     0.79644   0.97678   0.23145   0.00000  Uiso   1.00
C593   C     0.83763   0.95657   0.23331   0.00000  Uiso   1.00
C594   C     0.98305   0.80557   0.21923   0.00000  Uiso   1.00
C595   C     0.69752   0.80593   0.21841   0.00000  Uiso   1.00
C596   C     0.68400   0.86309   0.27841   0.00000  Uiso   1.00
C597   C     0.96934   0.86298   0.27850   0.00000  Uiso   1.00
C598   C     0.83314   0.75312   0.24873   0.00000  Uiso   1.00
C599   C     0.85832   0.83417   0.14887   0.00000  Uiso   1.00
C600   C     0.93186   0.83161   0.00963   0.00000  Uiso   1.00
C601   C     0.87185   0.83272   0.09201   0.00000  Uiso   1.00
C602   C     0.75504   0.78594   0.42487   0.00000  Uiso   1.00
C603   C     0.74014   0.78307   0.47955   0.00000  Uiso   1.00
C604   C     0.76905   0.79745   0.00986   0.00000  Uiso   1.00
H605   H     0.94443   0.84764   0.08341   0.00000  Uiso   1.00
H606   H     0.90901   0.70612   0.22755   0.00000  Uiso   1.00
H607   H     0.97065   0.78341   0.19445   0.00000  Uiso   1.00
H608   H     0.80142   0.82581   0.08848   0.00000  Uiso   1.00
H609   H     0.75536   0.79539   0.05192   0.00000  Uiso   1.00
H610   H     0.70702   0.76831   0.49841   0.00000  Uiso   1.00
N611   N     0.71426   0.83334   0.25002   0.00000  Uiso   1.00
N612   N     0.95239   0.83331   0.25001   0.00000  Uiso   1.00
O613   O     0.79512   0.89442   0.25001   0.00000  Uiso   1.00
O614   O     0.87157   0.89441   0.25001   0.00000  Uiso   1.00
O615   O     0.77613   0.83333   0.32681   0.00000  Uiso   1.00
O616   O     0.85258   0.83332   0.32681   0.00000  Uiso   1.00
O617   O     0.79510   0.77226   0.25000   0.00000  Uiso   1.00
O618   O     0.87154   0.77225   0.25000   0.00000  Uiso   1.00
O619   O     0.81409   0.83335   0.17319   0.00000  Uiso   1.00
O620   O     0.89053   0.83334   0.17319   0.00000  Uiso   1.00
Zn621  Zn    0.78229   0.83334   0.25000   0.00000  Uiso   1.00
Zn622  Zn    0.88438   0.83333   0.25000   0.00000  Uiso   1.00
O623   O     0.75084   0.70669   0.24589   0.00000  Uiso   1.00
C624   C     0.71192   0.68846   0.28210   0.00000  Uiso   1.00
H625   H     0.69292   0.66734   0.26104   0.00000  Uiso   1.00
H626   H     0.68710   0.71354   0.30103   0.00000  Uiso   1.00
H627   H     0.72127   0.67175   0.31392   0.00000  Uiso   1.00
O628   O     0.75947   0.95510   0.22074   0.00000  Uiso   1.00
C629   C     0.76885   0.94968   0.16573   0.00000  Uiso   1.00
H630   H     0.80074   0.93057   0.14885   0.00000  Uiso   1.00
H631   H     0.77233   0.98019   0.14628   0.00000  Uiso   1.00
H632   H     0.73894   0.93276   0.15713   0.00000  Uiso   1.00
Br633  Br    0.73810   0.76933   0.16839   0.00000  Uiso   1.00
Br634  Br    0.70410   0.90212   0.32452   0.00000  Uiso   1.00
Br635  Br    0.92690   0.90138   0.32507   0.00000  Uiso   1.00
O636   O     0.95729   0.78470   0.41287   0.00000  Uiso   1.00
C637   C     0.97930   0.80627   0.36736   0.00000  Uiso   1.00
H638   H     0.96684   0.83878   0.37005   0.00000  Uiso   1.00
H639   H     0.68363   0.80956   0.36347   0.00000  Uiso   1.00
H640   H     0.97529   0.78894   0.33197   0.00000  Uiso   1.00
Br641  Br    0.99311   0.85147   0.47353   0.00000  Uiso   1.00
Br642  Br    0.73032   0.74626   0.38458   0.00000  Uiso   1.00
O643   O     0.89079   0.77156   0.35740   0.00000  Uiso   1.00
C644   C     0.88182   0.72884   0.36632   0.00000  Uiso   1.00
H645   H     0.84356   0.72255   0.38041   0.00000  Uiso   1.00
H646   H     0.89983   0.71695   0.39451   0.00000  Uiso   1.00
H647   H     0.89575   0.71124   0.32861   0.00000  Uiso   1.00
Br648  Br    0.94126   0.95603   0.20677   0.00000  Uiso   1.00
C649   C     0.16846   0.24617   0.74396   0.00000  Uiso   1.00
C650   C     0.14983   0.14047   0.98487   0.00000  Uiso   1.00
C651   C     0.16497   0.13773   0.92958   0.00000  Uiso   1.00
C652   C     0.18364   0.14968   0.51206   0.00000  Uiso   1.00
C653   C     0.23197   0.14995   0.98418   0.00000  Uiso   1.00
C654   C     0.24563   0.13299   0.93294   0.00000  Uiso   1.00
C655   C     0.21191   0.12640   0.90541   0.00000  Uiso   1.00
C656   C     0.17100   0.15848   0.56599   0.00000  Uiso   1.00
C657   C     0.25181   0.17132   0.56367   0.00000  Uiso   1.00
C658   C     0.13122   0.13866   0.90149   0.00000  Uiso   1.00
C659   C     0.21267   0.31274   0.72720   0.00000  Uiso   1.00
C660   C     0.14252   0.15654   0.84827   0.00000  Uiso   1.00
C661   C     0.21014   0.02198   0.73187   0.00000  Uiso   1.00
C662   C     0.16690   0.04188   0.74229   0.00000  Uiso   1.00
C663   C     0.12582   0.01937   0.74209   0.00000  Uiso   1.00
C664   C     0.12978   0.31011   0.73145   0.00000  Uiso   1.00
C665   C     0.17096   0.28990   0.73331   0.00000  Uiso   1.00
C666   C     0.31639   0.13890   0.71923   0.00000  Uiso   1.00
C667   C     0.03086   0.13927   0.71841   0.00000  Uiso   1.00
C668   C     0.01733   0.19643   0.77841   0.00000  Uiso   1.00
C669   C     0.30267   0.19631   0.77850   0.00000  Uiso   1.00
C670   C     0.16648   0.08646   0.74873   0.00000  Uiso   1.00
C671   C     0.19166   0.16750   0.64887   0.00000  Uiso   1.00
C672   C     0.26519   0.16495   0.50963   0.00000  Uiso   1.00
C673   C     0.20518   0.16605   0.59201   0.00000  Uiso   1.00
C674   C     0.08837   0.11927   0.92487   0.00000  Uiso   1.00
C675   C     0.07348   0.11640   0.97955   0.00000  Uiso   1.00
C676   C     0.10238   0.13079   0.50986   0.00000  Uiso   1.00
H677   H     0.27776   0.18097   0.58341   0.00000  Uiso   1.00
H678   H     0.24234   0.03946   0.72755   0.00000  Uiso   1.00
H679   H     0.30398   0.11674   0.69445   0.00000  Uiso   1.00
H680   H     0.13476   0.15914   0.58848   0.00000  Uiso   1.00
H681   H     0.08869   0.12872   0.55192   0.00000  Uiso   1.00
H682   H     0.04035   0.10164   0.99841   0.00000  Uiso   1.00
N683   N     0.04760   0.16668   0.75002   0.00000  Uiso   1.00
N684   N     0.28573   0.16665   0.75001   0.00000  Uiso   1.00
O685   O     0.12846   0.22775   0.75001   0.00000  Uiso   1.00
O686   O     0.20490   0.22774   0.75001   0.00000  Uiso   1.00
O687   O     0.10947   0.16666   0.82681   0.00000  Uiso   1.00
O688   O     0.18591   0.16665   0.82681   0.00000  Uiso   1.00
O689   O     0.12843   0.10559   0.75000   0.00000  Uiso   1.00
O690   O     0.20488   0.10558   0.75000   0.00000  Uiso   1.00
O691   O     0.14742   0.16668   0.67319   0.00000  Uiso   1.00
O692   O     0.22387   0.16667   0.67319   0.00000  Uiso   1.00
Zn693  Zn    0.11562   0.16667   0.75000   0.00000  Uiso   1.00
Zn694  Zn    0.21771   0.16666   0.75000   0.00000  Uiso   1.00
O695   O     0.08418   0.04003   0.74589   0.00000  Uiso   1.00
C696   C     0.04525   0.02179   0.78210   0.00000  Uiso   1.00
H697   H     0.02625   0.00067   0.76104   0.00000  Uiso   1.00
H698   H     0.02043   0.04687   0.80103   0.00000  Uiso   1.00
H699   H     0.05460   0.00508   0.81392   0.00000  Uiso   1.00
O700   O     0.09280   0.28843   0.72074   0.00000  Uiso   1.00
C701   C     0.10218   0.28301   0.66573   0.00000  Uiso   1.00
H702   H     0.13408   0.26390   0.64885   0.00000  Uiso   1.00
H703   H     0.10567   0.31352   0.64628   0.00000  Uiso   1.00
H704   H     0.07228   0.26609   0.65713   0.00000  Uiso   1.00
Br705  Br    0.07143   0.10266   0.66839   0.00000  Uiso   1.00
Br706  Br    0.03743   0.23546   0.82452   0.00000  Uiso   1.00
Br707  Br    0.26023   0.23472   0.82507   0.00000  Uiso   1.00
O708   O     0.29063   0.11803   0.91287   0.00000  Uiso   1.00
C709   C     0.31263   0.13960   0.86736   0.00000  Uiso   1.00
H710   H     0.30017   0.17212   0.87005   0.00000  Uiso   1.00
H711   H     0.01697   0.14290   0.86347   0.00000  Uiso   1.00
H712   H     0.30862   0.12227   0.83197   0.00000  Uiso   1.00
Br713  Br    0.32645   0.18480   0.97353   0.00000  Uiso   1.00
Br714  Br    0.06366   0.07959   0.88458   0.00000  Uiso   1.00
O715   O     0.22413   0.10489   0.85740   0.00000  Uiso   1.00
C716   C     0.21516   0.06218   0.86632   0.00000  Uiso   1.00
H717   H     0.17689   0.05589   0.88041   0.00000  Uiso   1.00
H718   H     0.23317   0.05029   0.89451   0.00000  Uiso   1.00
H719   H     0.22908   0.04457   0.82861   0.00000  Uiso   1.00
Br720  Br    0.27459   0.28937   0.70677   0.00000  Uiso   1.00
C721   C     0.50179   0.24617   0.74396   0.00000  Uiso   1.00
C722   C     0.48316   0.14047   0.98487   0.00000  Uiso   1.00
C723   C     0.49830   0.13773   0.92958   0.00000  Uiso   1.00
C724   C     0.51698   0.14968   0.51206   0.00000  Uiso   1.00
C725   C     0.56530   0.14995   0.98418   0.00000  Uiso   1.00
C726   C     0.57897   0.13299   0.93294   0.00000  Uiso   1.00
C727   C     0.54524   0.12640   0.90541   0.00000  Uiso   1.00
C728   C     0.50434   0.15848   0.56599   0.00000  Uiso   1.00
C729   C     0.58514   0.17132   0.56367   0.00000  Uiso   1.00
C730   C     0.46455   0.13866   0.90149   0.00000  Uiso   1.00
C731   C     0.54600   0.31274   0.72720   0.00000  Uiso   1.00
C732   C     0.47585   0.15654   0.84827   0.00000  Uiso   1.00
C733   C     0.54347   0.02198   0.73187   0.00000  Uiso   1.00
C734   C     0.50024   0.04188   0.74229   0.00000  Uiso   1.00
C735   C     0.45916   0.01937   0.74209   0.00000  Uiso   1.00
C736   C     0.46311   0.31011   0.73145   0.00000  Uiso   1.00
C737   C     0.50429   0.28990   0.73331   0.00000  Uiso   1.00
C738   C     0.64972   0.13890   0.71923   0.00000  Uiso   1.00
C739   C     0.36419   0.13927   0.71841   0.00000  Uiso   1.00
C740   C     0.35067   0.19643   0.77841   0.00000  Uiso   1.00
C741   C     0.63601   0.19631   0.77850   0.00000  Uiso   1.00
C742   C     0.49981   0.08646   0.74873   0.00000  Uiso   1.00
C743   C     0.52499   0.16750   0.64887   0.00000  Uiso   1.00
C744   C     0.59852   0.16495   0.50963   0.00000  Uiso   1.00
C745   C     0.53852   0.16605   0.59201   0.00000  Uiso   1.00
C746   C     0.42171   0.11927   0.92487   0.00000  Uiso   1.00
C747   C     0.40681   0.11640   0.97955   0.00000  Uiso   1.00
C748   C     0.43571   0.13079   0.50986   0.00000  Uiso   1.00
H749   H     0.61109   0.18097   0.58341   0.00000  Uiso   1.00
H750   H     0.57568   0.03946   0.72755   0.00000  Uiso   1.00
H751   H     0.63731   0.11674   0.69445   0.00000  Uiso   1.00
H752   H     0.46809   0.15914   0.58848   0.00000  Uiso   1.00
H753   H     0.42203   0.12872   0.55192   0.00000  Uiso   1.00
H754   H     0.37369   0.10164   0.99841   0.00000  Uiso   1.00
N755   N     0.38093   0.16668   0.75002   0.00000  Uiso   1.00
N756   N     0.61906   0.16665   0.75001   0.00000  Uiso   1.00
O757   O     0.46179   0.22775   0.75001   0.00000  Uiso   1.00
O758   O     0.53823   0.22774   0.75001   0.00000  Uiso   1.00
O759   O     0.44280   0.16666   0.82681   0.00000  Uiso   1.00
O760   O     0.51924   0.16665   0.82681   0.00000  Uiso   1.00
O761   O     0.46177   0.10559   0.75000   0.00000  Uiso   1.00
O762   O     0.53821   0.10558   0.75000   0.00000  Uiso   1.00
O763   O     0.48076   0.16668   0.67319   0.00000  Uiso   1.00
O764   O     0.55720   0.16667   0.67319   0.00000  Uiso   1.00
Zn765  Zn    0.44896   0.16667   0.75000   0.00000  Uiso   1.00
Zn766  Zn    0.55104   0.16666   0.75000   0.00000  Uiso   1.00
O767   O     0.41751   0.04003   0.74589   0.00000  Uiso   1.00
C768   C     0.37859   0.02179   0.78210   0.00000  Uiso   1.00
H769   H     0.35959   0.00067   0.76104   0.00000  Uiso   1.00
H770   H     0.35376   0.04687   0.80103   0.00000  Uiso   1.00
H771   H     0.38793   0.00508   0.81392   0.00000  Uiso   1.00
O772   O     0.42613   0.28843   0.72074   0.00000  Uiso   1.00
C773   C     0.43551   0.28301   0.66573   0.00000  Uiso   1.00
H774   H     0.46741   0.26390   0.64885   0.00000  Uiso   1.00
H775   H     0.43900   0.31352   0.64628   0.00000  Uiso   1.00
H776   H     0.40561   0.26609   0.65713   0.00000  Uiso   1.00
Br777  Br    0.40477   0.10266   0.66839   0.00000  Uiso   1.00
Br778  Br    0.37076   0.23546   0.82452   0.00000  Uiso   1.00
Br779  Br    0.59356   0.23472   0.82507   0.00000  Uiso   1.00
O780   O     0.62396   0.11803   0.91287   0.00000  Uiso   1.00
C781   C     0.64597   0.13960   0.86736   0.00000  Uiso   1.00
H782   H     0.63351   0.17212   0.87005   0.00000  Uiso   1.00
H783   H     0.35030   0.14290   0.86347   0.00000  Uiso   1.00
H784   H     0.64195   0.12227   0.83197   0.00000  Uiso   1.00
Br785  Br    0.65978   0.18480   0.97353   0.00000  Uiso   1.00
Br786  Br    0.39699   0.07959   0.88458   0.00000  Uiso   1.00
O787   O     0.55746   0.10489   0.85740   0.00000  Uiso   1.00
C788   C     0.54849   0.06218   0.86632   0.00000  Uiso   1.00
H789   H     0.51023   0.05589   0.88041   0.00000  Uiso   1.00
H790   H     0.56650   0.05029   0.89451   0.00000  Uiso   1.00
H791   H     0.56242   0.04457   0.82861   0.00000  Uiso   1.00
Br792  Br    0.60792   0.28937   0.70677   0.00000  Uiso   1.00
C793   C     0.83512   0.24617   0.74396   0.00000  Uiso   1.00
C794   C     0.81649   0.14047   0.98487   0.00000  Uiso   1.00
C795   C     0.83164   0.13773   0.92958   0.00000  Uiso   1.00
C796   C     0.85031   0.14968   0.51206   0.00000  Uiso   1.00
C797   C     0.89864   0.14995   0.98418   0.00000  Uiso   1.00
C798   C     0.91230   0.13299   0.93294   0.00000  Uiso   1.00
C799   C     0.87857   0.12640   0.90541   0.00000  Uiso   1.00
C800   C     0.83767   0.15848   0.56599   0.00000  Uiso   1.00
C801   C     0.91847   0.17132   0.56367   0.00000  Uiso   1.00
C802   C     0.79788   0.13866   0.90149   0.00000  Uiso   1.00
C803   C     0.87934   0.31274   0.72720   0.00000  Uiso   1.00
C804   C     0.80919   0.15654   0.84827   0.00000  Uiso   1.00
C805   C     0.87680   0.02198   0.73187   0.00000  Uiso   1.00
C806   C     0.83357   0.04188   0.74229   0.00000  Uiso   1.00
C807   C     0.79249   0.01937   0.74209   0.00000  Uiso   1.00
C808   C     0.79644   0.31011   0.73145   0.00000  Uiso   1.00
C809   C     0.83763   0.28990   0.73331   0.00000  Uiso   1.00
C810   C     0.98305   0.13890   0.71923   0.00000  Uiso   1.00
C811   C     0.69752   0.13927   0.71841   0.00000  Uiso   1.00
C812   C     0.68400   0.19643   0.77841   0.00000  Uiso   1.00
C813   C     0.96934   0.19631   0.77850   0.00000  Uiso   1.00
C814   C     0.83314   0.08646   0.74873   0.00000  Uiso   1.00
C815   C     0.85832   0.16750   0.64887   0.00000  Uiso   1.00
C816   C     0.93186   0.16495   0.50963   0.00000  Uiso   1.00
C817   C     0.87185   0.16605   0.59201   0.00000  Uiso   1.00
C818   C     0.75504   0.11927   0.92487   0.00000  Uiso   1.00
C819   C     0.74014   0.11640   0.97955   0.00000  Uiso   1.00
C820   C     0.76905   0.13079   0.50986   0.00000  Uiso   1.00
H821   H     0.94443   0.18097   0.58341   0.00000  Uiso   1.00
H822   H     0.90901   0.03946   0.72755   0.00000  Uiso   1.00
H823   H     0.97065   0.11674   0.69445   0.00000  Uiso   1.00
H824   H     0.80142   0.15914   0.58848   0.00000  Uiso   1.00
H825   H     0.75536   0.12872   0.55192   0.00000  Uiso   1.00
H826   H     0.70702   0.10164   0.99841   0.00000  Uiso   1.00
N827   N     0.71426   0.16668   0.75002   0.00000  Uiso   1.00
N828   N     0.95239   0.16665   0.75001   0.00000  Uiso   1.00
O829   O     0.79512   0.22775   0.75001   0.00000  Uiso   1.00
O830   O     0.87157   0.22774   0.75001   0.00000  Uiso   1.00
O831   O     0.77613   0.16666   0.82681   0.00000  Uiso   1.00
O832   O     0.85258   0.16665   0.82681   0.00000  Uiso   1.00
O833   O     0.79510   0.10559   0.75000   0.00000  Uiso   1.00
O834   O     0.87154   0.10558   0.75000   0.00000  Uiso   1.00
O835   O     0.81409   0.16668   0.67319   0.00000  Uiso   1.00
O836   O     0.89053   0.16667   0.67319   0.00000  Uiso   1.00
Zn837  Zn    0.78229   0.16667   0.75000   0.00000  Uiso   1.00
Zn838  Zn    0.88438   0.16666   0.75000   0.00000  Uiso   1.00
O839   O     0.75084   0.04003   0.74589   0.00000  Uiso   1.00
C840   C     0.71192   0.02179   0.78210   0.00000  Uiso   1.00
H841   H     0.69292   0.00067   0.76104   0.00000  Uiso   1.00
H842   H     0.68710   0.04687   0.80103   0.00000  Uiso   1.00
H843   H     0.72127   0.00508   0.81392   0.00000  Uiso   1.00
O844   O     0.75947   0.28843   0.72074   0.00000  Uiso   1.00
C845   C     0.76885   0.28301   0.66573   0.00000  Uiso   1.00
H846   H     0.80074   0.26390   0.64885   0.00000  Uiso   1.00
H847   H     0.77233   0.31352   0.64628   0.00000  Uiso   1.00
H848   H     0.73894   0.26609   0.65713   0.00000  Uiso   1.00
Br849  Br    0.73810   0.10266   0.66839   0.00000  Uiso   1.00
Br850  Br    0.70410   0.23546   0.82452   0.00000  Uiso   1.00
Br851  Br    0.92690   0.23472   0.82507   0.00000  Uiso   1.00
O852   O     0.95729   0.11803   0.91287   0.00000  Uiso   1.00
C853   C     0.97930   0.13960   0.86736   0.00000  Uiso   1.00
H854   H     0.96684   0.17212   0.87005   0.00000  Uiso   1.00
H855   H     0.68363   0.14290   0.86347   0.00000  Uiso   1.00
H856   H     0.97529   0.12227   0.83197   0.00000  Uiso   1.00
Br857  Br    0.99311   0.18480   0.97353   0.00000  Uiso   1.00
Br858  Br    0.73032   0.07959   0.88458   0.00000  Uiso   1.00
O859   O     0.89079   0.10489   0.85740   0.00000  Uiso   1.00
C860   C     0.88182   0.06218   0.86632   0.00000  Uiso   1.00
H861   H     0.84356   0.05589   0.88041   0.00000  Uiso   1.00
H862   H     0.89983   0.05029   0.89451   0.00000  Uiso   1.00
H863   H     0.89575   0.04457   0.82861   0.00000  Uiso   1.00
Br864  Br    0.94126   0.28937   0.70677   0.00000  Uiso   1.00
C865   C     0.16846   0.57950   0.74396   0.00000  Uiso   1.00
C866   C     0.14983   0.47381   0.98487   0.00000  Uiso   1.00
C867   C     0.16497   0.47106   0.92958   0.00000  Uiso   1.00
C868   C     0.18364   0.48301   0.51206   0.00000  Uiso   1.00
C869   C     0.23197   0.48329   0.98418   0.00000  Uiso   1.00
C870   C     0.24563   0.46632   0.93294   0.00000  Uiso   1.00
C871   C     0.21191   0.45973   0.90541   0.00000  Uiso   1.00
C872   C     0.17100   0.49182   0.56599   0.00000  Uiso   1.00
C873   C     0.25181   0.50465   0.56367   0.00000  Uiso   1.00
C874   C     0.13122   0.47199   0.90149   0.00000  Uiso   1.00
C875   C     0.21267   0.64607   0.72720   0.00000  Uiso   1.00
C876   C     0.14252   0.48988   0.84827   0.00000  Uiso   1.00
C877   C     0.21014   0.35531   0.73187   0.00000  Uiso   1.00
C878   C     0.16690   0.37521   0.74229   0.00000  Uiso   1.00
C879   C     0.12582   0.35270   0.74209   0.00000  Uiso   1.00
C880   C     0.12978   0.64344   0.73145   0.00000  Uiso   1.00
C881   C     0.17096   0.62323   0.73331   0.00000  Uiso   1.00
C882   C     0.31639   0.47223   0.71923   0.00000  Uiso   1.00
C883   C     0.03086   0.47260   0.71841   0.00000  Uiso   1.00
C884   C     0.01733   0.52976   0.77841   0.00000  Uiso   1.00
C885   C     0.30267   0.52965   0.77850   0.00000  Uiso   1.00
C886   C     0.16648   0.41979   0.74873   0.00000  Uiso   1.00
C887   C     0.19166   0.50084   0.64887   0.00000  Uiso   1.00
C888   C     0.26519   0.49828   0.50963   0.00000  Uiso   1.00
C889   C     0.20518   0.49939   0.59201   0.00000  Uiso   1.00
C890   C     0.08837   0.45260   0.92487   0.00000  Uiso   1.00
C891   C     0.07348   0.44973   0.97955   0.00000  Uiso   1.00
C892   C     0.10238   0.46412   0.50986   0.00000  Uiso   1.00
H893   H     0.27776   0.51430   0.58341   0.00000  Uiso   1.00
H894   H     0.24234   0.37279   0.72755   0.00000  Uiso   1.00
H895   H     0.30398   0.45008   0.69445   0.00000  Uiso   1.00
H896   H     0.13476   0.49248   0.58848   0.00000  Uiso   1.00
H897   H     0.08869   0.46206   0.55192   0.00000  Uiso   1.00
H898   H     0.04035   0.43498   0.99841   0.00000  Uiso   1.00
N899   N     0.04760   0.50001   0.75002   0.00000  Uiso   1.00
N900   N     0.28573   0.49998   0.75001   0.00000  Uiso   1.00
O901   O     0.12846   0.56108   0.75001   0.00000  Uiso   1.00
O902   O     0.20490   0.56107   0.75001   0.00000  Uiso   1.00
O903   O     0.10947   0.50000   0.82681   0.00000  Uiso   1.00
O904   O     0.18591   0.49999   0.82681   0.00000  Uiso   1.00
O905   O     0.12843   0.43893   0.75000   0.00000  Uiso   1.00
O906   O     0.20488   0.43892   0.75000   0.00000  Uiso   1.00
O907   O     0.14742   0.50001   0.67319   0.00000  Uiso   1.00
O908   O     0.22387   0.50000   0.67319   0.00000  Uiso   1.00
Zn909  Zn    0.11562   0.50001   0.75000   0.00000  Uiso   1.00
Zn910  Zn    0.21771   0.49999   0.75000   0.00000  Uiso   1.00
O911   O     0.08418   0.37336   0.74589   0.00000  Uiso   1.00
C912   C     0.04525   0.35512   0.78210   0.00000  Uiso   1.00
H913   H     0.02625   0.33400   0.76104   0.00000  Uiso   1.00
H914   H     0.02043   0.38020   0.80103   0.00000  Uiso   1.00
H915   H     0.05460   0.33841   0.81392   0.00000  Uiso   1.00
O916   O     0.09280   0.62176   0.72074   0.00000  Uiso   1.00
C917   C     0.10218   0.61634   0.66573   0.00000  Uiso   1.00
H918   H     0.13408   0.59724   0.64885   0.00000  Uiso   1.00
H919   H     0.10567   0.64686   0.64628   0.00000  Uiso   1.00
H920   H     0.07228   0.59942   0.65713   0.00000  Uiso   1.00
Br921  Br    0.07143   0.43600   0.66839   0.00000  Uiso   1.00
Br922  Br    0.03743   0.56879   0.82452   0.00000  Uiso   1.00
Br923  Br    0.26023   0.56805   0.82507   0.00000  Uiso   1.00
O924   O     0.29063   0.45136   0.91287   0.00000  Uiso   1.00
C925   C     0.31263   0.47294   0.86736   0.00000  Uiso   1.00
H926   H     0.30017   0.50545   0.87005   0.00000  Uiso   1.00
H927   H     0.01697   0.47623   0.86347   0.00000  Uiso   1.00
H928   H     0.30862   0.45560   0.83197   0.00000  Uiso   1.00
Br929  Br    0.32645   0.51814   0.97353   0.00000  Uiso   1.00
Br930  Br    0.06366   0.41292   0.88458   0.00000  Uiso   1.00
O931   O     0.22413   0.43822   0.85740   0.00000  Uiso   1.00
C932   C     0.21516   0.39551   0.86632   0.00000  Uiso   1.00
H933   H     0.17689   0.38922   0.88041   0.00000  Uiso   1.00
H934   H     0.23317   0.38362   0.89451   0.00000  Uiso   1.00
H935   H     0.22908   0.37791   0.82861   0.00000  Uiso   1.00
Br936  Br    0.27459   0.62270   0.70677   0.00000  Uiso   1.00
C937   C     0.50179   0.57950   0.74396   0.00000  Uiso   1.00
C938   C     0.48316   0.47381   0.98487   0.00000  Uiso   1.00
C939   C     0.49830   0.47106   0.92958   0.00000  Uiso   1.00
C940   C     0.51698   0.48301   0.51206   0.00000  Uiso   1.00
C941   C     0.56530   0.48329   0.98418   0.00000  Uiso   1.00
C942   C     0.57897   0.46632   0.93294   0.00000  Uiso   1.00
C943   C     0.54524   0.45973   0.90541   0.00000  Uiso   1.00
C944   C     0.50434   0.49182   0.56599   0.00000  Uiso   1.00
C945   C     0.58514   0.50465   0.56367   0.00000  Uiso   1.00
C946   C     0.46455   0.47199   0.90149   0.00000  Uiso   1.00
C947   C     0.54600   0.64607   0.72720   0.00000  Uiso   1.00
C948   C     0.47585   0.48988   0.84827   0.00000  Uiso   1.00
C949   C     0.54347   0.35531   0.73187   0.00000  Uiso   1.00
C950   C     0.50024   0.37521   0.74229   0.00000  Uiso   1.00
C951   C     0.45916   0.35270   0.74209   0.00000  Uiso   1.00
C952   C     0.46311   0.64344   0.73145   0.00000  Uiso   1.00
C953   C     0.50429   0.62323   0.73331   0.00000  Uiso   1.00
C954   C     0.64972   0.47223   0.71923   0.00000  Uiso   1.00
C955   C     0.36419   0.47260   0.71841   0.00000  Uiso   1.00
C956   C     0.35067   0.52976   0.77841   0.00000  Uiso   1.00
C957   C     0.63601   0.52965   0.77850   0.00000  Uiso   1.00
C958   C     0.49981   0.41979   0.74873   0.00000  Uiso   1.00
C959   C     0.52499   0.50084   0.64887   0.00000  Uiso   1.00
C960   C     0.59852   0.49828   0.50963   0.00000  Uiso   1.00
C961   C     0.53852   0.49939   0.59201   0.00000  Uiso   1.00
C962   C     0.42171   0.45260   0.92487   0.00000  Uiso   1.00
C963   C     0.40681   0.44973   0.97955   0.00000  Uiso   1.00
C964   C     0.43571   0.46412   0.50986   0.00000  Uiso   1.00
H965   H     0.61109   0.51430   0.58341   0.00000  Uiso   1.00
H966   H     0.57568   0.37279   0.72755   0.00000  Uiso   1.00
H967   H     0.63731   0.45008   0.69445   0.00000  Uiso   1.00
H968   H     0.46809   0.49248   0.58848   0.00000  Uiso   1.00
H969   H     0.42203   0.46206   0.55192   0.00000  Uiso   1.00
H970   H     0.37369   0.43498   0.99841   0.00000  Uiso   1.00
N971   N     0.38093   0.50001   0.75002   0.00000  Uiso   1.00
N972   N     0.61906   0.49998   0.75001   0.00000  Uiso   1.00
O973   O     0.46179   0.56108   0.75001   0.00000  Uiso   1.00
O974   O     0.53823   0.56107   0.75001   0.00000  Uiso   1.00
O975   O     0.44280   0.50000   0.82681   0.00000  Uiso   1.00
O976   O     0.51924   0.49999   0.82681   0.00000  Uiso   1.00
O977   O     0.46177   0.43893   0.75000   0.00000  Uiso   1.00
O978   O     0.53821   0.43892   0.75000   0.00000  Uiso   1.00
O979   O     0.48076   0.50001   0.67319   0.00000  Uiso   1.00
O980   O     0.55720   0.50000   0.67319   0.00000  Uiso   1.00
Zn981  Zn    0.44896   0.50001   0.75000   0.00000  Uiso   1.00
Zn982  Zn    0.55104   0.49999   0.75000   0.00000  Uiso   1.00
O983   O     0.41751   0.37336   0.74589   0.00000  Uiso   1.00
C984   C     0.37859   0.35512   0.78210   0.00000  Uiso   1.00
H985   H     0.35959   0.33400   0.76104   0.00000  Uiso   1.00
H986   H     0.35376   0.38020   0.80103   0.00000  Uiso   1.00
H987   H     0.38793   0.33841   0.81392   0.00000  Uiso   1.00
O988   O     0.42613   0.62176   0.72074   0.00000  Uiso   1.00
C989   C     0.43551   0.61634   0.66573   0.00000  Uiso   1.00
H990   H     0.46741   0.59724   0.64885   0.00000  Uiso   1.00
H991   H     0.43900   0.64686   0.64628   0.00000  Uiso   1.00
H992   H     0.40561   0.59942   0.65713   0.00000  Uiso   1.00
Br993  Br    0.40477   0.43600   0.66839   0.00000  Uiso   1.00
Br994  Br    0.37076   0.56879   0.82452   0.00000  Uiso   1.00
Br995  Br    0.59356   0.56805   0.82507   0.00000  Uiso   1.00
O996   O     0.62396   0.45136   0.91287   0.00000  Uiso   1.00
C997   C     0.64597   0.47294   0.86736   0.00000  Uiso   1.00
H998   H     0.63351   0.50545   0.87005   0.00000  Uiso   1.00
H999   H     0.35030   0.47623   0.86347   0.00000  Uiso   1.00
H1000  H     0.64195   0.45560   0.83197   0.00000  Uiso   1.00
Br1001 Br    0.65978   0.51814   0.97353   0.00000  Uiso   1.00
Br1002 Br    0.39699   0.41292   0.88458   0.00000  Uiso   1.00
O1003  O     0.55746   0.43822   0.85740   0.00000  Uiso   1.00
C1004  C     0.54849   0.39551   0.86632   0.00000  Uiso   1.00
H1005  H     0.51023   0.38922   0.88041   0.00000  Uiso   1.00
H1006  H     0.56650   0.38362   0.89451   0.00000  Uiso   1.00
H1007  H     0.56242   0.37791   0.82861   0.00000  Uiso   1.00
Br1008 Br    0.60792   0.62270   0.70677   0.00000  Uiso   1.00
C1009  C     0.83512   0.57950   0.74396   0.00000  Uiso   1.00
C1010  C     0.81649   0.47381   0.98487   0.00000  Uiso   1.00
C1011  C     0.83164   0.47106   0.92958   0.00000  Uiso   1.00
C1012  C     0.85031   0.48301   0.51206   0.00000  Uiso   1.00
C1013  C     0.89864   0.48329   0.98418   0.00000  Uiso   1.00
C1014  C     0.91230   0.46632   0.93294   0.00000  Uiso   1.00
C1015  C     0.87857   0.45973   0.90541   0.00000  Uiso   1.00
C1016  C     0.83767   0.49182   0.56599   0.00000  Uiso   1.00
C1017  C     0.91847   0.50465   0.56367   0.00000  Uiso   1.00
C1018  C     0.79788   0.47199   0.90149   0.00000  Uiso   1.00
C1019  C     0.87934   0.64607   0.72720   0.00000  Uiso   1.00
C1020  C     0.80919   0.48988   0.84827   0.00000  Uiso   1.00
C1021  C     0.87680   0.35531   0.73187   0.00000  Uiso   1.00
C1022  C     0.83357   0.37521   0.74229   0.00000  Uiso   1.00
C1023  C     0.79249   0.35270   0.74209   0.00000  Uiso   1.00
C1024  C     0.79644   0.64344   0.73145   0.00000  Uiso   1.00
C1025  C     0.83763   0.62323   0.73331   0.00000  Uiso   1.00
C1026  C     0.98305   0.47223   0.71923   0.00000  Uiso   1.00
C1027  C     0.69752   0.47260   0.71841   0.00000  Uiso   1.00
C1028  C     0.68400   0.52976   0.77841   0.00000  Uiso   1.00
C1029  C     0.96934   0.52965   0.77850   0.00000  Uiso   1.00
C1030  C     0.83314   0.41979   0.74873   0.00000  Uiso   1.00
C1031  C     0.85832   0.50084   0.64887   0.00000  Uiso   1.00
C1032  C     0.93186   0.49828   0.50963   0.00000  Uiso   1.00
C1033  C     0.87185   0.49939   0.59201   0.00000  Uiso   1.00
C1034  C     0.75504   0.45260   0.92487   0.00000  Uiso   1.00
C1035  C     0.74014   0.44973   0.97955   0.00000  Uiso   1.00
C1036  C     0.76905   0.46412   0.50986   0.00000  Uiso   1.00
H1037  H     0.94443   0.51430   0.58341   0.00000  Uiso   1.00
H1038  H     0.90901   0.37279   0.72755   0.00000  Uiso   1.00
H1039  H     0.97065   0.45008   0.69445   0.00000  Uiso   1.00
H1040  H     0.80142   0.49248   0.58848   0.00000  Uiso   1.00
H1041  H     0.75536   0.46206   0.55192   0.00000  Uiso   1.00
H1042  H     0.70702   0.43498   0.99841   0.00000  Uiso   1.00
N1043  N     0.71426   0.50001   0.75002   0.00000  Uiso   1.00
N1044  N     0.95239   0.49998   0.75001   0.00000  Uiso   1.00
O1045  O     0.79512   0.56108   0.75001   0.00000  Uiso   1.00
O1046  O     0.87157   0.56107   0.75001   0.00000  Uiso   1.00
O1047  O     0.77613   0.50000   0.82681   0.00000  Uiso   1.00
O1048  O     0.85258   0.49999   0.82681   0.00000  Uiso   1.00
O1049  O     0.79510   0.43893   0.75000   0.00000  Uiso   1.00
O1050  O     0.87154   0.43892   0.75000   0.00000  Uiso   1.00
O1051  O     0.81409   0.50001   0.67319   0.00000  Uiso   1.00
O1052  O     0.89053   0.50000   0.67319   0.00000  Uiso   1.00
Zn1053 Zn    0.78229   0.50001   0.75000   0.00000  Uiso   1.00
Zn1054 Zn    0.88438   0.49999   0.75000   0.00000  Uiso   1.00
O1055  O     0.75084   0.37336   0.74589   0.00000  Uiso   1.00
C1056  C     0.71192   0.35512   0.78210   0.00000  Uiso   1.00
H1057  H     0.69292   0.33400   0.76104   0.00000  Uiso   1.00
H1058  H     0.68710   0.38020   0.80103   0.00000  Uiso   1.00
H1059  H     0.72127   0.33841   0.81392   0.00000  Uiso   1.00
O1060  O     0.75947   0.62176   0.72074   0.00000  Uiso   1.00
C1061  C     0.76885   0.61634   0.66573   0.00000  Uiso   1.00
H1062  H     0.80074   0.59724   0.64885   0.00000  Uiso   1.00
H1063  H     0.77233   0.64686   0.64628   0.00000  Uiso   1.00
H1064  H     0.73894   0.59942   0.65713   0.00000  Uiso   1.00
Br1065 Br    0.73810   0.43600   0.66839   0.00000  Uiso   1.00
Br1066 Br    0.70410   0.56879   0.82452   0.00000  Uiso   1.00
Br1067 Br    0.92690   0.56805   0.82507   0.00000  Uiso   1.00
O1068  O     0.95729   0.45136   0.91287   0.00000  Uiso   1.00
C1069  C     0.97930   0.47294   0.86736   0.00000  Uiso   1.00
H1070  H     0.96684   0.50545   0.87005   0.00000  Uiso   1.00
H1071  H     0.68363   0.47623   0.86347   0.00000  Uiso   1.00
H1072  H     0.97529   0.45560   0.83197   0.00000  Uiso   1.00
Br1073 Br    0.99311   0.51814   0.97353   0.00000  Uiso   1.00
Br1074 Br    0.73032   0.41292   0.88458   0.00000  Uiso   1.00
O1075  O     0.89079   0.43822   0.85740   0.00000  Uiso   1.00
C1076  C     0.88182   0.39551   0.86632   0.00000  Uiso   1.00
H1077  H     0.84356   0.38922   0.88041   0.00000  Uiso   1.00
H1078  H     0.89983   0.38362   0.89451   0.00000  Uiso   1.00
H1079  H     0.89575   0.37791   0.82861   0.00000  Uiso   1.00
Br1080 Br    0.94126   0.62270   0.70677   0.00000  Uiso   1.00
C1081  C     0.16846   0.91284   0.74396   0.00000  Uiso   1.00
C1082  C     0.14983   0.80714   0.98487   0.00000  Uiso   1.00
C1083  C     0.16497   0.80440   0.92958   0.00000  Uiso   1.00
C1084  C     0.18364   0.81634   0.51206   0.00000  Uiso   1.00
C1085  C     0.23197   0.81662   0.98418   0.00000  Uiso   1.00
C1086  C     0.24563   0.79966   0.93294   0.00000  Uiso   1.00
C1087  C     0.21191   0.79306   0.90541   0.00000  Uiso   1.00
C1088  C     0.17100   0.82515   0.56599   0.00000  Uiso   1.00
C1089  C     0.25181   0.83798   0.56367   0.00000  Uiso   1.00
C1090  C     0.13122   0.80533   0.90149   0.00000  Uiso   1.00
C1091  C     0.21267   0.97941   0.72720   0.00000  Uiso   1.00
C1092  C     0.14252   0.82321   0.84827   0.00000  Uiso   1.00
C1093  C     0.21014   0.68865   0.73187   0.00000  Uiso   1.00
C1094  C     0.16690   0.70854   0.74229   0.00000  Uiso   1.00
C1095  C     0.12582   0.68603   0.74209   0.00000  Uiso   1.00
C1096  C     0.12978   0.97678   0.73145   0.00000  Uiso   1.00
C1097  C     0.17096   0.95657   0.73331   0.00000  Uiso   1.00
C1098  C     0.31639   0.80557   0.71923   0.00000  Uiso   1.00
C1099  C     0.03086   0.80593   0.71841   0.00000  Uiso   1.00
C1100  C     0.01733   0.86309   0.77841   0.00000  Uiso   1.00
C1101  C     0.30267   0.86298   0.77850   0.00000  Uiso   1.00
C1102  C     0.16648   0.75312   0.74873   0.00000  Uiso   1.00
C1103  C     0.19166   0.83417   0.64887   0.00000  Uiso   1.00
C1104  C     0.26519   0.83161   0.50963   0.00000  Uiso   1.00
C1105  C     0.20518   0.83272   0.59201   0.00000  Uiso   1.00
C1106  C     0.08837   0.78594   0.92487   0.00000  Uiso   1.00
C1107  C     0.07348   0.78307   0.97955   0.00000  Uiso   1.00
C1108  C     0.10238   0.79745   0.50986   0.00000  Uiso   1.00
H1109  H     0.27776   0.84764   0.58341   0.00000  Uiso   1.00
H1110  H     0.24234   0.70612   0.72755   0.00000  Uiso   1.00
H1111  H     0.30398   0.78341   0.69445   0.00000  Uiso   1.00
H1112  H     0.13476   0.82581   0.58848   0.00000  Uiso   1.00
H1113  H     0.08869   0.79539   0.55192   0.00000  Uiso   1.00
H1114  H     0.04035   0.76831   0.99841   0.00000  Uiso   1.00
N1115  N     0.04760   0.83334   0.75002   0.00000  Uiso   1.00
N1116  N     0.28573   0.83331   0.75001   0.00000  Uiso   1.00
O1117  O     0.12846   0.89442   0.75001   0.00000  Uiso   1.00
O1118  O     0.20490   0.89441   0.75001   0.00000  Uiso   1.00
O1119  O     0.10947   0.83333   0.82681   0.00000  Uiso   1.00
O1120  O     0.18591   0.83332   0.82681   0.00000  Uiso   1.00
O1121  O     0.12843   0.77226   0.75000   0.00000  Uiso   1.00
O1122  O     0.20488   0.77225   0.75000   0.00000  Uiso   1.00
O1123  O     0.14742   0.83335   0.67319   0.00000  Uiso   1.00
O1124  O     0.22387   0.83334   0.67319   0.00000  Uiso   1.00
Zn1125 Zn    0.11562   0.83334   0.75000   0.00000  Uiso   1.00
Zn1126 Zn    0.21771   0.83333   0.75000   0.00000  Uiso   1.00
O1127  O     0.08418   0.70669   0.74589   0.00000  Uiso   1.00
C1128  C     0.04525   0.68846   0.78210   0.00000  Uiso   1.00
H1129  H     0.02625   0.66734   0.76104   0.00000  Uiso   1.00
H1130  H     0.02043   0.71354   0.80103   0.00000  Uiso   1.00
H1131  H     0.05460   0.67175   0.81392   0.00000  Uiso   1.00
O1132  O     0.09280   0.95510   0.72074   0.00000  Uiso   1.00
C1133  C     0.10218   0.94968   0.66573   0.00000  Uiso   1.00
H1134  H     0.13408   0.93057   0.64885   0.00000  Uiso   1.00
H1135  H     0.10567   0.98019   0.64628   0.00000  Uiso   1.00
H1136  H     0.07228   0.93276   0.65713   0.00000  Uiso   1.00
Br1137 Br    0.07143   0.76933   0.66839   0.00000  Uiso   1.00
Br1138 Br    0.03743   0.90212   0.82452   0.00000  Uiso   1.00
Br1139 Br    0.26023   0.90138   0.82507   0.00000  Uiso   1.00
O1140  O     0.29063   0.78470   0.91287   0.00000  Uiso   1.00
C1141  C     0.31263   0.80627   0.86736   0.00000  Uiso   1.00
H1142  H     0.30017   0.83878   0.87005   0.00000  Uiso   1.00
H1143  H     0.01697   0.80956   0.86347   0.00000  Uiso   1.00
H1144  H     0.30862   0.78894   0.83197   0.00000  Uiso   1.00
Br1145 Br    0.32645   0.85147   0.97353   0.00000  Uiso   1.00
Br1146 Br    0.06366   0.74626   0.88458   0.00000  Uiso   1.00
O1147  O     0.22413   0.77156   0.85740   0.00000  Uiso   1.00
C1148  C     0.21516   0.72884   0.86632   0.00000  Uiso   1.00
H1149  H     0.17689   0.72255   0.88041   0.00000  Uiso   1.00
H1150  H     0.23317   0.71695   0.89451   0.00000  Uiso   1.00
H1151  H     0.22908   0.71124   0.82861   0.00000  Uiso   1.00
Br1152 Br    0.27459   0.95603   0.70677   0.00000  Uiso   1.00
C1153  C     0.50179   0.91284   0.74396   0.00000  Uiso   1.00
C1154  C     0.48316   0.80714   0.98487   0.00000  Uiso   1.00
C1155  C     0.49830   0.80440   0.92958   0.00000  Uiso   1.00
C1156  C     0.51698   0.81634   0.51206   0.00000  Uiso   1.00
C1157  C     0.56530   0.81662   0.98418   0.00000  Uiso   1.00
C1158  C     0.57897   0.79966   0.93294   0.00000  Uiso   1.00
C1159  C     0.54524   0.79306   0.90541   0.00000  Uiso   1.00
C1160  C     0.50434   0.82515   0.56599   0.00000  Uiso   1.00
C1161  C     0.58514   0.83798   0.56367   0.00000  Uiso   1.00
C1162  C     0.46455   0.80533   0.90149   0.00000  Uiso   1.00
C1163  C     0.54600   0.97941   0.72720   0.00000  Uiso   1.00
C1164  C     0.47585   0.82321   0.84827   0.00000  Uiso   1.00
C1165  C     0.54347   0.68865   0.73187   0.00000  Uiso   1.00
C1166  C     0.50024   0.70854   0.74229   0.00000  Uiso   1.00
C1167  C     0.45916   0.68603   0.74209   0.00000  Uiso   1.00
C1168  C     0.46311   0.97678   0.73145   0.00000  Uiso   1.00
C1169  C     0.50429   0.95657   0.73331   0.00000  Uiso   1.00
C1170  C     0.64972   0.80557   0.71923   0.00000  Uiso   1.00
C1171  C     0.36419   0.80593   0.71841   0.00000  Uiso   1.00
C1172  C     0.35067   0.86309   0.77841   0.00000  Uiso   1.00
C1173  C     0.63601   0.86298   0.77850   0.00000  Uiso   1.00
C1174  C     0.49981   0.75312   0.74873   0.00000  Uiso   1.00
C1175  C     0.52499   0.83417   0.64887   0.00000  Uiso   1.00
C1176  C     0.59852   0.83161   0.50963   0.00000  Uiso   1.00
C1177  C     0.53852   0.83272   0.59201   0.00000  Uiso   1.00
C1178  C     0.42171   0.78594   0.92487   0.00000  Uiso   1.00
C1179  C     0.40681   0.78307   0.97955   0.00000  Uiso   1.00
C1180  C     0.43571   0.79745   0.50986   0.00000  Uiso   1.00
H1181  H     0.61109   0.84764   0.58341   0.00000  Uiso   1.00
H1182  H     0.57568   0.70612   0.72755   0.00000  Uiso   1.00
H1183  H     0.63731   0.78341   0.69445   0.00000  Uiso   1.00
H1184  H     0.46809   0.82581   0.58848   0.00000  Uiso   1.00
H1185  H     0.42203   0.79539   0.55192   0.00000  Uiso   1.00
H1186  H     0.37369   0.76831   0.99841   0.00000  Uiso   1.00
N1187  N     0.38093   0.83334   0.75002   0.00000  Uiso   1.00
N1188  N     0.61906   0.83331   0.75001   0.00000  Uiso   1.00
O1189  O     0.46179   0.89442   0.75001   0.00000  Uiso   1.00
O1190  O     0.53823   0.89441   0.75001   0.00000  Uiso   1.00
O1191  O     0.44280   0.83333   0.82681   0.00000  Uiso   1.00
O1192  O     0.51924   0.83332   0.82681   0.00000  Uiso   1.00
O1193  O     0.46177   0.77226   0.75000   0.00000  Uiso   1.00
O1194  O     0.53821   0.77225   0.75000   0.00000  Uiso   1.00
O1195  O     0.48076   0.83335   0.67319   0.00000  Uiso   1.00
O1196  O     0.55720   0.83334   0.67319   0.00000  Uiso   1.00
Zn1197 Zn    0.44896   0.83334   0.75000   0.00000  Uiso   1.00
Zn1198 Zn    0.55104   0.83333   0.75000   0.00000  Uiso   1.00
O1199  O     0.41751   0.70669   0.74589   0.00000  Uiso   1.00
C1200  C     0.37859   0.68846   0.78210   0.00000  Uiso   1.00
H1201  H     0.35959   0.66734   0.76104   0.00000  Uiso   1.00
H1202  H     0.35376   0.71354   0.80103   0.00000  Uiso   1.00
H1203  H     0.38793   0.67175   0.81392   0.00000  Uiso   1.00
O1204  O     0.42613   0.95510   0.72074   0.00000  Uiso   1.00
C1205  C     0.43551   0.94968   0.66573   0.00000  Uiso   1.00
H1206  H     0.46741   0.93057   0.64885   0.00000  Uiso   1.00
H1207  H     0.43900   0.98019   0.64628   0.00000  Uiso   1.00
H1208  H     0.40561   0.93276   0.65713   0.00000  Uiso   1.00
Br1209 Br    0.40477   0.76933   0.66839   0.00000  Uiso   1.00
Br1210 Br    0.37076   0.90212   0.82452   0.00000  Uiso   1.00
Br1211 Br    0.59356   0.90138   0.82507   0.00000  Uiso   1.00
O1212  O     0.62396   0.78470   0.91287   0.00000  Uiso   1.00
C1213  C     0.64597   0.80627   0.86736   0.00000  Uiso   1.00
H1214  H     0.63351   0.83878   0.87005   0.00000  Uiso   1.00
H1215  H     0.35030   0.80956   0.86347   0.00000  Uiso   1.00
H1216  H     0.64195   0.78894   0.83197   0.00000  Uiso   1.00
Br1217 Br    0.65978   0.85147   0.97353   0.00000  Uiso   1.00
Br1218 Br    0.39699   0.74626   0.88458   0.00000  Uiso   1.00
O1219  O     0.55746   0.77156   0.85740   0.00000  Uiso   1.00
C1220  C     0.54849   0.72884   0.86632   0.00000  Uiso   1.00
H1221  H     0.51023   0.72255   0.88041   0.00000  Uiso   1.00
H1222  H     0.56650   0.71695   0.89451   0.00000  Uiso   1.00
H1223  H     0.56242   0.71124   0.82861   0.00000  Uiso   1.00
Br1224 Br    0.60792   0.95603   0.70677   0.00000  Uiso   1.00
C1225  C     0.83512   0.91284   0.74396   0.00000  Uiso   1.00
C1226  C     0.81649   0.80714   0.98487   0.00000  Uiso   1.00
C1227  C     0.83164   0.80440   0.92958   0.00000  Uiso   1.00
C1228  C     0.85031   0.81634   0.51206   0.00000  Uiso   1.00
C1229  C     0.89864   0.81662   0.98418   0.00000  Uiso   1.00
C1230  C     0.91230   0.79966   0.93294   0.00000  Uiso   1.00
C1231  C     0.87857   0.79306   0.90541   0.00000  Uiso   1.00
C1232  C     0.83767   0.82515   0.56599   0.00000  Uiso   1.00
C1233  C     0.91847   0.83798   0.56367   0.00000  Uiso   1.00
C1234  C     0.79788   0.80533   0.90149   0.00000  Uiso   1.00
C1235  C     0.87934   0.97941   0.72720   0.00000  Uiso   1.00
C1236  C     0.80919   0.82321   0.84827   0.00000  Uiso   1.00
C1237  C     0.87680   0.68865   0.73187   0.00000  Uiso   1.00
C1238  C     0.83357   0.70854   0.74229   0.00000  Uiso   1.00
C1239  C     0.79249   0.68603   0.74209   0.00000  Uiso   1.00
C1240  C     0.79644   0.97678   0.73145   0.00000  Uiso   1.00
C1241  C     0.83763   0.95657   0.73331   0.00000  Uiso   1.00
C1242  C     0.98305   0.80557   0.71923   0.00000  Uiso   1.00
C1243  C     0.69752   0.80593   0.71841   0.00000  Uiso   1.00
C1244  C     0.68400   0.86309   0.77841   0.00000  Uiso   1.00
C1245  C     0.96934   0.86298   0.77850   0.00000  Uiso   1.00
C1246  C     0.83314   0.75312   0.74873   0.00000  Uiso   1.00
C1247  C     0.85832   0.83417   0.64887   0.00000  Uiso   1.00
C1248  C     0.93186   0.83161   0.50963   0.00000  Uiso   1.00
C1249  C     0.87185   0.83272   0.59201   0.00000  Uiso   1.00
C1250  C     0.75504   0.78594   0.92487   0.00000  Uiso   1.00
C1251  C     0.74014   0.78307   0.97955   0.00000  Uiso   1.00
C1252  C     0.76905   0.79745   0.50986   0.00000  Uiso   1.00
H1253  H     0.94443   0.84764   0.58341   0.00000  Uiso   1.00
H1254  H     0.90901   0.70612   0.72755   0.00000  Uiso   1.00
H1255  H     0.97065   0.78341   0.69445   0.00000  Uiso   1.00
H1256  H     0.80142   0.82581   0.58848   0.00000  Uiso   1.00
H1257  H     0.75536   0.79539   0.55192   0.00000  Uiso   1.00
H1258  H     0.70702   0.76831   0.99841   0.00000  Uiso   1.00
N1259  N     0.71426   0.83334   0.75002   0.00000  Uiso   1.00
N1260  N     0.95239   0.83331   0.75001   0.00000  Uiso   1.00
O1261  O     0.79512   0.89442   0.75001   0.00000  Uiso   1.00
O1262  O     0.87157   0.89441   0.75001   0.00000  Uiso   1.00
O1263  O     0.77613   0.83333   0.82681   0.00000  Uiso   1.00
O1264  O     0.85258   0.83332   0.82681   0.00000  Uiso   1.00
O1265  O     0.79510   0.77226   0.75000   0.00000  Uiso   1.00
O1266  O     0.87154   0.77225   0.75000   0.00000  Uiso   1.00
O1267  O     0.81409   0.83335   0.67319   0.00000  Uiso   1.00
O1268  O     0.89053   0.83334   0.67319   0.00000  Uiso   1.00
Zn1269 Zn    0.78229   0.83334   0.75000   0.00000  Uiso   1.00
Zn1270 Zn    0.88438   0.83333   0.75000   0.00000  Uiso   1.00
O1271  O     0.75084   0.70669   0.74589   0.00000  Uiso   1.00
C1272  C     0.71192   0.68846   0.78210   0.00000  Uiso   1.00
H1273  H     0.69292   0.66734   0.76104   0.00000  Uiso   1.00
H1274  H     0.68710   0.71354   0.80103   0.00000  Uiso   1.00
H1275  H     0.72127   0.67175   0.81392   0.00000  Uiso   1.00
O1276  O     0.75947   0.95510   0.72074   0.00000  Uiso   1.00
C1277  C     0.76885   0.94968   0.66573   0.00000  Uiso   1.00
H1278  H     0.80074   0.93057   0.64885   0.00000  Uiso   1.00
H1279  H     0.77233   0.98019   0.64628   0.00000  Uiso   1.00
H1280  H     0.73894   0.93276   0.65713   0.00000  Uiso   1.00
Br1281 Br    0.73810   0.76933   0.66839   0.00000  Uiso   1.00
Br1282 Br    0.70410   0.90212   0.82452   0.00000  Uiso   1.00
Br1283 Br    0.92690   0.90138   0.82507   0.00000  Uiso   1.00
O1284  O     0.95729   0.78470   0.91287   0.00000  Uiso   1.00
C1285  C     0.97930   0.80627   0.86736   0.00000  Uiso   1.00
H1286  H     0.96684   0.83878   0.87005   0.00000  Uiso   1.00
H1287  H     0.68363   0.80956   0.86347   0.00000  Uiso   1.00
H1288  H     0.97529   0.78894   0.83197   0.00000  Uiso   1.00
Br1289 Br    0.99311   0.85147   0.97353   0.00000  Uiso   1.00
Br1290 Br    0.73032   0.74626   0.88458   0.00000  Uiso   1.00
O1291  O     0.89079   0.77156   0.85740   0.00000  Uiso   1.00
C1292  C     0.88182   0.72884   0.86632   0.00000  Uiso   1.00
H1293  H     0.84356   0.72255   0.88041   0.00000  Uiso   1.00
H1294  H     0.89983   0.71695   0.89451   0.00000  Uiso   1.00
H1295  H     0.89575   0.71124   0.82861   0.00000  Uiso   1.00
Br1296 Br    0.94126   0.95603   0.70677   0.00000  Uiso   1.00
loop_
_geom_bond_atom_site_label_1
_geom_bond_atom_site_label_2
_geom_bond_distance
_geom_bond_site_symmetry_2
_ccdc_geom_bond_type
C1     C17     1.440   .     S
C1     O38     1.295   .     A
C1     O37     1.293   .     A
C2     C3      1.406   .     A
C2     C652    1.415   .     S
C2     C676    1.417   .     S
C3     C10     1.409   .     A
C3     C7      1.412   .     A
C4     C8      1.392   .     A
C4     C650    1.415   1_554 S
C4     C653    1.421   1_554 S
C5     C6      1.397   .     A
C5     C652    1.421   .     S
C5     C672    1.415   .     S
C6     C7      1.406   .     A
C6     O60     1.382   .     S
C7     O67     1.384   .     S
C8     C25     1.394   .     A
C8     H32     1.077   .     S
C9     C24     1.383   .     A
C9     H29     1.084   .     S
C9     C25     1.391   .     A
C10    C26     1.399   .     A
C10    C12     1.488   .     S
C11    Br72    1.926   .     S
C11    C17     1.405   .     A
C11    C229    1.372   .     S
C12    O40     1.298   .     A
C12    O39     1.316   .     A
C13    C14     1.398   .     A
C13    H30     1.084   .     S
C13    C443    1.372   1_545 S
C14    C22     1.438   .     S
C14    C15     1.413   .     A
C15    O47     1.392   .     S
C15    C448    1.389   1_545 S
C16    C17     1.410   .     A
C16    O52     1.384   .     S
C16    C231    1.389   .     S
C18    H31     1.082   .     S
C18    N36     1.361   .     A
C18    C91     1.417   .     S
C19    N35     1.377   .     A
C19    Br57    1.908   .     S
C19    C162    1.417   1_455 S
C20    Br58    1.925   .     S
C20    N35     1.375   .     A
C20    C165    1.428   1_455 S
C21    Br59    1.927   .     S
C21    N36     1.372   .     A
C21    C92     1.428   .     S
C22    O42     1.298   .     A
C22    O41     1.289   .     A
C23    C25     1.445   .     S
C23    O43     1.294   .     A
C23    O44     1.297   .     A
C24    C653    1.415   1_554 S
C24    Br713   1.917   1_554 S
C26    C27     1.397   .     A
C26    Br66    1.904   .     S
C27    H34     1.083   .     S
C27    C676    1.396   .     S
C28    H33     1.078   .     S
C28    C650    1.417   1_554 S
C28    C675    1.396   1_554 S
N35    Zn45    2.025   .     S
N36    Zn46    2.025   .     S
O37    Zn45    1.995   .     S
O38    Zn46    2.006   .     S
O39    Zn45    1.991   .     S
O40    Zn46    1.989   .     S
O41    Zn45    2.006   .     S
O42    Zn46    1.995   .     S
O43    Zn45    1.989   .     S
O44    Zn46    1.991   .     S
O47    C48     1.415   .     S
C48    H50     1.109   .     S
C48    H49     1.110   .     S
C48    H51     1.115   .     S
O52    C53     1.410   .     S
C53    H55     1.114   .     S
C53    H56     1.109   .     S
C53    H54     1.114   .     S
O60    C61     1.402   .     S
C61    H64     1.108   .     S
C61    H62     1.108   .     S
C61    H135    1.101   .     S
H63    C205    1.101   1_455 S
Br65   C672    1.917   .     S
O67    C68     1.410   .     S
C68    H71     1.108   .     S
C68    H70     1.114   .     S
C68    H69     1.112   .     S
C73    C89     1.440   .     S
C73    O110    1.295   .     A
C73    O109    1.293   .     A
C74    C75     1.406   .     A
C74    C724    1.415   .     S
C74    C748    1.417   .     S
C75    C82     1.409   .     A
C75    C79     1.412   .     A
C76    C80     1.392   .     A
C76    C722    1.415   1_554 S
C76    C725    1.421   1_554 S
C77    C78     1.397   .     A
C77    C724    1.421   .     S
C77    C744    1.415   .     S
C78    C79     1.406   .     A
C78    O132    1.382   .     S
C79    O139    1.384   .     S
C80    C97     1.394   .     A
C80    H104    1.077   .     S
C81    C96     1.383   .     A
C81    H101    1.084   .     S
C81    C97     1.391   .     A
C82    C98     1.399   .     A
C82    C84     1.488   .     S
C83    Br144   1.926   .     S
C83    C89     1.405   .     A
C83    C301    1.372   .     S
C84    O112    1.298   .     A
C84    O111    1.316   .     A
C85    C86     1.398   .     A
C85    H102    1.084   .     S
C85    C515    1.372   1_545 S
C86    C94     1.438   .     S
C86    C87     1.413   .     A
C87    O119    1.392   .     S
C87    C520    1.389   1_545 S
C88    C89     1.410   .     A
C88    O124    1.384   .     S
C88    C303    1.389   .     S
C90    H103    1.082   .     S
C90    N108    1.361   .     A
C90    C163    1.417   .     S
C91    N107    1.377   .     A
C91    Br129   1.908   .     S
C92    Br130   1.925   .     S
C92    N107    1.375   .     A
C93    Br131   1.927   .     S
C93    N108    1.372   .     A
C93    C164    1.428   .     S
C94    O114    1.298   .     A
C94    O113    1.289   .     A
C95    C97     1.445   .     S
C95    O115    1.294   .     A
C95    O116    1.297   .     A
C96    C725    1.415   1_554 S
C96    Br785   1.917   1_554 S
C98    C99     1.397   .     A
C98    Br138   1.904   .     S
C99    H106    1.083   .     S
C99    C748    1.396   .     S
C100   H105    1.078   .     S
C100   C722    1.417   1_554 S
C100   C747    1.396   1_554 S
N107   Zn117   2.025   .     S
N108   Zn118   2.025   .     S
O109   Zn117   1.995   .     S
O110   Zn118   2.006   .     S
O111   Zn117   1.991   .     S
O112   Zn118   1.989   .     S
O113   Zn117   2.006   .     S
O114   Zn118   1.995   .     S
O115   Zn117   1.989   .     S
O116   Zn118   1.991   .     S
O119   C120    1.415   .     S
C120   H122    1.109   .     S
C120   H121    1.110   .     S
C120   H123    1.115   .     S
O124   C125    1.410   .     S
C125   H127    1.114   .     S
C125   H128    1.109   .     S
C125   H126    1.114   .     S
O132   C133    1.402   .     S
C133   H136    1.108   .     S
C133   H134    1.108   .     S
C133   H207    1.101   .     S
Br137  C744    1.917   .     S
O139   C140    1.410   .     S
C140   H143    1.108   .     S
C140   H142    1.114   .     S
C140   H141    1.112   .     S
C145   C161    1.440   .     S
C145   O182    1.295   .     A
C145   O181    1.293   .     A
C146   C147    1.406   .     A
C146   C796    1.415   .     S
C146   C820    1.417   .     S
C147   C154    1.409   .     A
C147   C151    1.412   .     A
C148   C152    1.392   .     A
C148   C794    1.415   1_554 S
C148   C797    1.421   1_554 S
C149   C150    1.397   .     A
C149   C796    1.421   .     S
C149   C816    1.415   .     S
C150   C151    1.406   .     A
C150   O204    1.382   .     S
C151   O211    1.384   .     S
C152   C169    1.394   .     A
C152   H176    1.077   .     S
C153   C168    1.383   .     A
C153   H173    1.084   .     S
C153   C169    1.391   .     A
C154   C170    1.399   .     A
C154   C156    1.488   .     S
C155   Br216   1.926   .     S
C155   C161    1.405   .     A
C155   C373    1.372   .     S
C156   O184    1.298   .     A
C156   O183    1.316   .     A
C157   C158    1.398   .     A
C157   H174    1.084   .     S
C157   C587    1.372   1_545 S
C158   C166    1.438   .     S
C158   C159    1.413   .     A
C159   O191    1.392   .     S
C159   C592    1.389   1_545 S
C160   C161    1.410   .     A
C160   O196    1.384   .     S
C160   C375    1.389   .     S
C162   H175    1.082   .     S
C162   N180    1.361   .     A
C162   C19     1.417   1_655 S
C163   N179    1.377   .     A
C163   Br201   1.908   .     S
C164   Br202   1.925   .     S
C164   N179    1.375   .     A
C165   Br203   1.927   .     S
C165   N180    1.372   .     A
C165   C20     1.428   1_655 S
C166   O186    1.298   .     A
C166   O185    1.289   .     A
C167   C169    1.445   .     S
C167   O187    1.294   .     A
C167   O188    1.297   .     A
C168   C797    1.415   1_554 S
C168   Br857   1.917   1_554 S
C170   C171    1.397   .     A
C170   Br210   1.904   .     S
C171   H178    1.083   .     S
C171   C820    1.396   .     S
C172   H177    1.078   .     S
C172   C794    1.417   1_554 S
C172   C819    1.396   1_554 S
N179   Zn189   2.025   .     S
N180   Zn190   2.025   .     S
O181   Zn189   1.995   .     S
O182   Zn190   2.006   .     S
O183   Zn189   1.991   .     S
O184   Zn190   1.989   .     S
O185   Zn189   2.006   .     S
O186   Zn190   1.995   .     S
O187   Zn189   1.989   .     S
O188   Zn190   1.991   .     S
O191   C192    1.415   .     S
C192   H194    1.109   .     S
C192   H193    1.110   .     S
C192   H195    1.115   .     S
O196   C197    1.410   .     S
C197   H199    1.114   .     S
C197   H200    1.109   .     S
C197   H198    1.114   .     S
O204   C205    1.402   .     S
C205   H208    1.108   .     S
C205   H206    1.108   .     S
C205   H63     1.101   1_655 S
Br209  C816    1.917   .     S
O211   C212    1.410   .     S
C212   H215    1.108   .     S
C212   H214    1.114   .     S
C212   H213    1.112   .     S
C217   C233    1.440   .     S
C217   O254    1.295   .     A
C217   O253    1.293   .     A
C218   C219    1.406   .     A
C218   C868    1.415   .     S
C218   C892    1.417   .     S
C219   C226    1.409   .     A
C219   C223    1.412   .     A
C220   C224    1.392   .     A
C220   C866    1.415   1_554 S
C220   C869    1.421   1_554 S
C221   C222    1.397   .     A
C221   C868    1.421   .     S
C221   C888    1.415   .     S
C222   C223    1.406   .     A
C222   O276    1.382   .     S
C223   O283    1.384   .     S
C224   C241    1.394   .     A
C224   H248    1.077   .     S
C225   C240    1.383   .     A
C225   H245    1.084   .     S
C225   C241    1.391   .     A
C226   C242    1.399   .     A
C226   C228    1.488   .     S
C227   Br288   1.926   .     S
C227   C233    1.405   .     A
C227   C445    1.372   .     S
C228   O256    1.298   .     A
C228   O255    1.316   .     A
C229   C230    1.398   .     A
C229   H246    1.084   .     S
C230   C238    1.438   .     S
C230   C231    1.413   .     A
C231   O263    1.392   .     S
C232   C233    1.410   .     A
C232   O268    1.384   .     S
C232   C447    1.389   .     S
C234   H247    1.082   .     S
C234   N252    1.361   .     A
C234   C307    1.417   .     S
C235   N251    1.377   .     A
C235   Br273   1.908   .     S
C235   C378    1.417   1_455 S
C236   Br274   1.925   .     S
C236   N251    1.375   .     A
C236   C381    1.428   1_455 S
C237   Br275   1.927   .     S
C237   N252    1.372   .     A
C237   C308    1.428   .     S
C238   O258    1.298   .     A
C238   O257    1.289   .     A
C239   C241    1.445   .     S
C239   O259    1.294   .     A
C239   O260    1.297   .     A
C240   C869    1.415   1_554 S
C240   Br929   1.917   1_554 S
C242   C243    1.397   .     A
C242   Br282   1.904   .     S
C243   H250    1.083   .     S
C243   C892    1.396   .     S
C244   H249    1.078   .     S
C244   C866    1.417   1_554 S
C244   C891    1.396   1_554 S
N251   Zn261   2.025   .     S
N252   Zn262   2.025   .     S
O253   Zn261   1.995   .     S
O254   Zn262   2.006   .     S
O255   Zn261   1.991   .     S
O256   Zn262   1.989   .     S
O257   Zn261   2.006   .     S
O258   Zn262   1.995   .     S
O259   Zn261   1.989   .     S
O260   Zn262   1.991   .     S
O263   C264    1.415   .     S
C264   H266    1.109   .     S
C264   H265    1.110   .     S
C264   H267    1.115   .     S
O268   C269    1.410   .     S
C269   H271    1.114   .     S
C269   H272    1.109   .     S
C269   H270    1.114   .     S
O276   C277    1.402   .     S
C277   H280    1.108   .     S
C277   H278    1.108   .     S
C277   H351    1.101   .     S
H279   C421    1.101   1_455 S
Br281  C888    1.917   .     S
O283   C284    1.410   .     S
C284   H287    1.108   .     S
C284   H286    1.114   .     S
C284   H285    1.112   .     S
C289   C305    1.440   .     S
C289   O326    1.295   .     A
C289   O325    1.293   .     A
C290   C291    1.406   .     A
C290   C940    1.415   .     S
C290   C964    1.417   .     S
C291   C298    1.409   .     A
C291   C295    1.412   .     A
C292   C296    1.392   .     A
C292   C938    1.415   1_554 S
C292   C941    1.421   1_554 S
C293   C294    1.397   .     A
C293   C940    1.421   .     S
C293   C960    1.415   .     S
C294   C295    1.406   .     A
C294   O348    1.382   .     S
C295   O355    1.384   .     S
C296   C313    1.394   .     A
C296   H320    1.077   .     S
C297   C312    1.383   .     A
C297   H317    1.084   .     S
C297   C313    1.391   .     A
C298   C314    1.399   .     A
C298   C300    1.488   .     S
C299   Br360   1.926   .     S
C299   C305    1.405   .     A
C299   C517    1.372   .     S
C300   O328    1.298   .     A
C300   O327    1.316   .     A
C301   C302    1.398   .     A
C301   H318    1.084   .     S
C302   C310    1.438   .     S
C302   C303    1.413   .     A
C303   O335    1.392   .     S
C304   C305    1.410   .     A
C304   O340    1.384   .     S
C304   C519    1.389   .     S
C306   H319    1.082   .     S
C306   N324    1.361   .     A
C306   C379    1.417   .     S
C307   N323    1.377   .     A
C307   Br345   1.908   .     S
C308   Br346   1.925   .     S
C308   N323    1.375   .     A
C309   Br347   1.927   .     S
C309   N324    1.372   .     A
C309   C380    1.428   .     S
C310   O330    1.298   .     A
C310   O329    1.289   .     A
C311   C313    1.445   .     S
C311   O331    1.294   .     A
C311   O332    1.297   .     A
C312   C941    1.415   1_554 S
C312   Br1001  1.917   1_554 S
C314   C315    1.397   .     A
C314   Br354   1.904   .     S
C315   H322    1.083   .     S
C315   C964    1.396   .     S
C316   H321    1.078   .     S
C316   C938    1.417   1_554 S
C316   C963    1.396   1_554 S
N323   Zn333   2.025   .     S
N324   Zn334   2.025   .     S
O325   Zn333   1.995   .     S
O326   Zn334   2.006   .     S
O327   Zn333   1.991   .     S
O328   Zn334   1.989   .     S
O329   Zn333   2.006   .     S
O330   Zn334   1.995   .     S
O331   Zn333   1.989   .     S
O332   Zn334   1.991   .     S
O335   C336    1.415   .     S
C336   H338    1.109   .     S
C336   H337    1.110   .     S
C336   H339    1.115   .     S
O340   C341    1.410   .     S
C341   H343    1.114   .     S
C341   H344    1.109   .     S
C341   H342    1.114   .     S
O348   C349    1.402   .     S
C349   H352    1.108   .     S
C349   H350    1.108   .     S
C349   H423    1.101   .     S
Br353  C960    1.917   .     S
O355   C356    1.410   .     S
C356   H359    1.108   .     S
C356   H358    1.114   .     S
C356   H357    1.112   .     S
C361   C377    1.440   .     S
C361   O398    1.295   .     A
C361   O397    1.293   .     A
C362   C363    1.406   .     A
C362   C1012   1.415   .     S
C362   C1036   1.417   .     S
C363   C370    1.409   .     A
C363   C367    1.412   .     A
C364   C368    1.392   .     A
C364   C1010   1.415   1_554 S
C364   C1013   1.421   1_554 S
C365   C366    1.397   .     A
C365   C1012   1.421   .     S
C365   C1032   1.415   .     S
C366   C367    1.406   .     A
C366   O420    1.382   .     S
C367   O427    1.384   .     S
C368   C385    1.394   .     A
C368   H392    1.077   .     S
C369   C384    1.383   .     A
C369   H389    1.084   .     S
C369   C385    1.391   .     A
C370   C386    1.399   .     A
C370   C372    1.488   .     S
C371   Br432   1.926   .     S
C371   C377    1.405   .     A
C371   C589    1.372   .     S
C372   O400    1.298   .     A
C372   O399    1.316   .     A
C373   C374    1.398   .     A
C373   H390    1.084   .     S
C374   C382    1.438   .     S
C374   C375    1.413   .     A
C375   O407    1.392   .     S
C376   C377    1.410   .     A
C376   O412    1.384   .     S
C376   C591    1.389   .     S
C378   H391    1.082   .     S
C378   N396    1.361   .     A
C378   C235    1.417   1_655 S
C379   N395    1.377   .     A
C379   Br417   1.908   .     S
C380   Br418   1.925   .     S
C380   N395    1.375   .     A
C381   Br419   1.927   .     S
C381   N396    1.372   .     A
C381   C236    1.428   1_655 S
C382   O402    1.298   .     A
C382   O401    1.289   .     A
C383   C385    1.445   .     S
C383   O403    1.294   .     A
C383   O404    1.297   .     A
C384   C1013   1.415   1_554 S
C384   Br1073  1.917   1_554 S
C386   C387    1.397   .     A
C386   Br426   1.904   .     S
C387   H394    1.083   .     S
C387   C1036   1.396   .     S
C388   H393    1.078   .     S
C388   C1010   1.417   1_554 S
C388   C1035   1.396   1_554 S
N395   Zn405   2.025   .     S
N396   Zn406   2.025   .     S
O397   Zn405   1.995   .     S
O398   Zn406   2.006   .     S
O399   Zn405   1.991   .     S
O400   Zn406   1.989   .     S
O401   Zn405   2.006   .     S
O402   Zn406   1.995   .     S
O403   Zn405   1.989   .     S
O404   Zn406   1.991   .     S
O407   C408    1.415   .     S
C408   H410    1.109   .     S
C408   H409    1.110   .     S
C408   H411    1.115   .     S
O412   C413    1.410   .     S
C413   H415    1.114   .     S
C413   H416    1.109   .     S
C413   H414    1.114   .     S
O420   C421    1.402   .     S
C421   H424    1.108   .     S
C421   H422    1.108   .     S
C421   H279    1.101   1_655 S
Br425  C1032   1.917   .     S
O427   C428    1.410   .     S
C428   H431    1.108   .     S
C428   H430    1.114   .     S
C428   H429    1.112   .     S
C433   C449    1.440   .     S
C433   O470    1.295   .     A
C433   O469    1.293   .     A
C434   C435    1.406   .     A
C434   C1084   1.415   .     S
C434   C1108   1.417   .     S
C435   C442    1.409   .     A
C435   C439    1.412   .     A
C436   C440    1.392   .     A
C436   C1082   1.415   1_554 S
C436   C1085   1.421   1_554 S
C437   C438    1.397   .     A
C437   C1084   1.421   .     S
C437   C1104   1.415   .     S
C438   C439    1.406   .     A
C438   O492    1.382   .     S
C439   O499    1.384   .     S
C440   C457    1.394   .     A
C440   H464    1.077   .     S
C441   C456    1.383   .     A
C441   H461    1.084   .     S
C441   C457    1.391   .     A
C442   C458    1.399   .     A
C442   C444    1.488   .     S
C443   Br504   1.926   .     S
C443   C449    1.405   .     A
C443   C13     1.372   1_565 S
C444   O472    1.298   .     A
C444   O471    1.316   .     A
C445   C446    1.398   .     A
C445   H462    1.084   .     S
C446   C454    1.438   .     S
C446   C447    1.413   .     A
C447   O479    1.392   .     S
C448   C449    1.410   .     A
C448   O484    1.384   .     S
C448   C15     1.389   1_565 S
C450   H463    1.082   .     S
C450   N468    1.361   .     A
C450   C523    1.417   .     S
C451   N467    1.377   .     A
C451   Br489   1.908   .     S
C451   C594    1.417   1_455 S
C452   Br490   1.925   .     S
C452   N467    1.375   .     A
C452   C597    1.428   1_455 S
C453   Br491   1.927   .     S
C453   N468    1.372   .     A
C453   C524    1.428   .     S
C454   O474    1.298   .     A
C454   O473    1.289   .     A
C455   C457    1.445   .     S
C455   O475    1.294   .     A
C455   O476    1.297   .     A
C456   C1085   1.415   1_554 S
C456   Br1145  1.917   1_554 S
C458   C459    1.397   .     A
C458   Br498   1.904   .     S
C459   H466    1.083   .     S
C459   C1108   1.396   .     S
C460   H465    1.078   .     S
C460   C1082   1.417   1_554 S
C460   C1107   1.396   1_554 S
N467   Zn477   2.025   .     S
N468   Zn478   2.025   .     S
O469   Zn477   1.995   .     S
O470   Zn478   2.006   .     S
O471   Zn477   1.991   .     S
O472   Zn478   1.989   .     S
O473   Zn477   2.006   .     S
O474   Zn478   1.995   .     S
O475   Zn477   1.989   .     S
O476   Zn478   1.991   .     S
O479   C480    1.415   .     S
C480   H482    1.109   .     S
C480   H481    1.110   .     S
C480   H483    1.115   .     S
O484   C485    1.410   .     S
C485   H487    1.114   .     S
C485   H488    1.109   .     S
C485   H486    1.114   .     S
O492   C493    1.402   .     S
C493   H496    1.108   .     S
C493   H494    1.108   .     S
C493   H567    1.101   .     S
H495   C637    1.101   1_455 S
Br497  C1104   1.917   .     S
O499   C500    1.410   .     S
C500   H503    1.108   .     S
C500   H502    1.114   .     S
C500   H501    1.112   .     S
C505   C521    1.440   .     S
C505   O542    1.295   .     A
C505   O541    1.293   .     A
C506   C507    1.406   .     A
C506   C1156   1.415   .     S
C506   C1180   1.417   .     S
C507   C514    1.409   .     A
C507   C511    1.412   .     A
C508   C512    1.392   .     A
C508   C1154   1.415   1_554 S
C508   C1157   1.421   1_554 S
C509   C510    1.397   .     A
C509   C1156   1.421   .     S
C509   C1176   1.415   .     S
C510   C511    1.406   .     A
C510   O564    1.382   .     S
C511   O571    1.384   .     S
C512   C529    1.394   .     A
C512   H536    1.077   .     S
C513   C528    1.383   .     A
C513   H533    1.084   .     S
C513   C529    1.391   .     A
C514   C530    1.399   .     A
C514   C516    1.488   .     S
C515   Br576   1.926   .     S
C515   C521    1.405   .     A
C515   C85     1.372   1_565 S
C516   O544    1.298   .     A
C516   O543    1.316   .     A
C517   C518    1.398   .     A
C517   H534    1.084   .     S
C518   C526    1.438   .     S
C518   C519    1.413   .     A
C519   O551    1.392   .     S
C520   C521    1.410   .     A
C520   O556    1.384   .     S
C520   C87     1.389   1_565 S
C522   H535    1.082   .     S
C522   N540    1.361   .     A
C522   C595    1.417   .     S
C523   N539    1.377   .     A
C523   Br561   1.908   .     S
C524   Br562   1.925   .     S
C524   N539    1.375   .     A
C525   Br563   1.927   .     S
C525   N540    1.372   .     A
C525   C596    1.428   .     S
C526   O546    1.298   .     A
C526   O545    1.289   .     A
C527   C529    1.445   .     S
C527   O547    1.294   .     A
C527   O548    1.297   .     A
C528   C1157   1.415   1_554 S
C528   Br1217  1.917   1_554 S
C530   C531    1.397   .     A
C530   Br570   1.904   .     S
C531   H538    1.083   .     S
C531   C1180   1.396   .     S
C532   H537    1.078   .     S
C532   C1154   1.417   1_554 S
C532   C1179   1.396   1_554 S
N539   Zn549   2.025   .     S
N540   Zn550   2.025   .     S
O541   Zn549   1.995   .     S
O542   Zn550   2.006   .     S
O543   Zn549   1.991   .     S
O544   Zn550   1.989   .     S
O545   Zn549   2.006   .     S
O546   Zn550   1.995   .     S
O547   Zn549   1.989   .     S
O548   Zn550   1.991   .     S
O551   C552    1.415   .     S
C552   H554    1.109   .     S
C552   H553    1.110   .     S
C552   H555    1.115   .     S
O556   C557    1.410   .     S
C557   H559    1.114   .     S
C557   H560    1.109   .     S
C557   H558    1.114   .     S
O564   C565    1.402   .     S
C565   H568    1.108   .     S
C565   H566    1.108   .     S
C565   H639    1.101   .     S
Br569  C1176   1.917   .     S
O571   C572    1.410   .     S
C572   H575    1.108   .     S
C572   H574    1.114   .     S
C572   H573    1.112   .     S
C577   C593    1.440   .     S
C577   O614    1.295   .     A
C577   O613    1.293   .     A
C578   C579    1.406   .     A
C578   C1228   1.415   .     S
C578   C1252   1.417   .     S
C579   C586    1.409   .     A
C579   C583    1.412   .     A
C580   C584    1.392   .     A
C580   C1226   1.415   1_554 S
C580   C1229   1.421   1_554 S
C581   C582    1.397   .     A
C581   C1228   1.421   .     S
C581   C1248   1.415   .     S
C582   C583    1.406   .     A
C582   O636    1.382   .     S
C583   O643    1.384   .     S
C584   C601    1.394   .     A
C584   H608    1.077   .     S
C585   C600    1.383   .     A
C585   H605    1.084   .     S
C585   C601    1.391   .     A
C586   C602    1.399   .     A
C586   C588    1.488   .     S
C587   Br648   1.926   .     S
C587   C593    1.405   .     A
C587   C157    1.372   1_565 S
C588   O616    1.298   .     A
C588   O615    1.316   .     A
C589   C590    1.398   .     A
C589   H606    1.084   .     S
C590   C598    1.438   .     S
C590   C591    1.413   .     A
C591   O623    1.392   .     S
C592   C593    1.410   .     A
C592   O628    1.384   .     S
C592   C159    1.389   1_565 S
C594   H607    1.082   .     S
C594   N612    1.361   .     A
C594   C451    1.417   1_655 S
C595   N611    1.377   .     A
C595   Br633   1.908   .     S
C596   Br634   1.925   .     S
C596   N611    1.375   .     A
C597   Br635   1.927   .     S
C597   N612    1.372   .     A
C597   C452    1.428   1_655 S
C598   O618    1.298   .     A
C598   O617    1.289   .     A
C599   C601    1.445   .     S
C599   O619    1.294   .     A
C599   O620    1.297   .     A
C600   C1229   1.415   1_554 S
C600   Br1289  1.917   1_554 S
C602   C603    1.397   .     A
C602   Br642   1.904   .     S
C603   H610    1.083   .     S
C603   C1252   1.396   .     S
C604   H609    1.078   .     S
C604   C1226   1.417   1_554 S
C604   C1251   1.396   1_554 S
N611   Zn621   2.025   .     S
N612   Zn622   2.025   .     S
O613   Zn621   1.995   .     S
O614   Zn622   2.006   .     S
O615   Zn621   1.991   .     S
O616   Zn622   1.989   .     S
O617   Zn621   2.006   .     S
O618   Zn622   1.995   .     S
O619   Zn621   1.989   .     S
O620   Zn622   1.991   .     S
O623   C624    1.415   .     S
C624   H626    1.109   .     S
C624   H625    1.110   .     S
C624   H627    1.115   .     S
O628   C629    1.410   .     S
C629   H631    1.114   .     S
C629   H632    1.109   .     S
C629   H630    1.114   .     S
O636   C637    1.402   .     S
C637   H640    1.108   .     S
C637   H638    1.108   .     S
C637   H495    1.101   1_655 S
Br641  C1248   1.917   .     S
O643   C644    1.410   .     S
C644   H647    1.108   .     S
C644   H646    1.114   .     S
C644   H645    1.112   .     S
C649   C665    1.440   .     S
C649   O686    1.295   .     A
C649   O685    1.293   .     A
C650   C651    1.406   .     A
C650   C4      1.415   1_556 S
C650   C28     1.417   1_556 S
C651   C658    1.409   .     A
C651   C655    1.412   .     A
C652   C656    1.392   .     A
C653   C654    1.397   .     A
C653   C4      1.421   1_556 S
C653   C24     1.415   1_556 S
C654   C655    1.406   .     A
C654   O708    1.382   .     S
C655   O715    1.384   .     S
C656   C673    1.394   .     A
C656   H680    1.077   .     S
C657   C672    1.383   .     A
C657   H677    1.084   .     S
C657   C673    1.391   .     A
C658   C674    1.399   .     A
C658   C660    1.488   .     S
C659   Br720   1.926   .     S
C659   C665    1.405   .     A
C659   C877    1.372   .     S
C660   O688    1.298   .     A
C660   O687    1.316   .     A
C661   C662    1.398   .     A
C661   H678    1.084   .     S
C661   C1091   1.372   1_545 S
C662   C670    1.438   .     S
C662   C663    1.413   .     A
C663   O695    1.392   .     S
C663   C1096   1.389   1_545 S
C664   C665    1.410   .     A
C664   O700    1.384   .     S
C664   C879    1.389   .     S
C666   H679    1.082   .     S
C666   N684    1.361   .     A
C666   C739    1.417   .     S
C667   N683    1.377   .     A
C667   Br705   1.908   .     S
C667   C810    1.417   1_455 S
C668   Br706   1.925   .     S
C668   N683    1.375   .     A
C668   C813    1.428   1_455 S
C669   Br707   1.927   .     S
C669   N684    1.372   .     A
C669   C740    1.428   .     S
C670   O690    1.298   .     A
C670   O689    1.289   .     A
C671   C673    1.445   .     S
C671   O691    1.294   .     A
C671   O692    1.297   .     A
C674   C675    1.397   .     A
C674   Br714   1.904   .     S
C675   H682    1.083   .     S
C675   C28     1.396   1_556 S
C676   H681    1.078   .     S
N683   Zn693   2.025   .     S
N684   Zn694   2.025   .     S
O685   Zn693   1.995   .     S
O686   Zn694   2.006   .     S
O687   Zn693   1.991   .     S
O688   Zn694   1.989   .     S
O689   Zn693   2.006   .     S
O690   Zn694   1.995   .     S
O691   Zn693   1.989   .     S
O692   Zn694   1.991   .     S
O695   C696    1.415   .     S
C696   H698    1.109   .     S
C696   H697    1.110   .     S
C696   H699    1.115   .     S
O700   C701    1.410   .     S
C701   H703    1.114   .     S
C701   H704    1.109   .     S
C701   H702    1.114   .     S
O708   C709    1.402   .     S
C709   H712    1.108   .     S
C709   H710    1.108   .     S
C709   H783    1.101   .     S
H711   C853    1.101   1_455 S
Br713  C24     1.917   1_556 S
O715   C716    1.410   .     S
C716   H719    1.108   .     S
C716   H718    1.114   .     S
C716   H717    1.112   .     S
C721   C737    1.440   .     S
C721   O758    1.295   .     A
C721   O757    1.293   .     A
C722   C723    1.406   .     A
C722   C76     1.415   1_556 S
C722   C100    1.417   1_556 S
C723   C730    1.409   .     A
C723   C727    1.412   .     A
C724   C728    1.392   .     A
C725   C726    1.397   .     A
C725   C76     1.421   1_556 S
C725   C96     1.415   1_556 S
C726   C727    1.406   .     A
C726   O780    1.382   .     S
C727   O787    1.384   .     S
C728   C745    1.394   .     A
C728   H752    1.077   .     S
C729   C744    1.383   .     A
C729   H749    1.084   .     S
C729   C745    1.391   .     A
C730   C746    1.399   .     A
C730   C732    1.488   .     S
C731   Br792   1.926   .     S
C731   C737    1.405   .     A
C731   C949    1.372   .     S
C732   O760    1.298   .     A
C732   O759    1.316   .     A
C733   C734    1.398   .     A
C733   H750    1.084   .     S
C733   C1163   1.372   1_545 S
C734   C742    1.438   .     S
C734   C735    1.413   .     A
C735   O767    1.392   .     S
C735   C1168   1.389   1_545 S
C736   C737    1.410   .     A
C736   O772    1.384   .     S
C736   C951    1.389   .     S
C738   H751    1.082   .     S
C738   N756    1.361   .     A
C738   C811    1.417   .     S
C739   N755    1.377   .     A
C739   Br777   1.908   .     S
C740   Br778   1.925   .     S
C740   N755    1.375   .     A
C741   Br779   1.927   .     S
C741   N756    1.372   .     A
C741   C812    1.428   .     S
C742   O762    1.298   .     A
C742   O761    1.289   .     A
C743   C745    1.445   .     S
C743   O763    1.294   .     A
C743   O764    1.297   .     A
C746   C747    1.397   .     A
C746   Br786   1.904   .     S
C747   H754    1.083   .     S
C747   C100    1.396   1_556 S
C748   H753    1.078   .     S
N755   Zn765   2.025   .     S
N756   Zn766   2.025   .     S
O757   Zn765   1.995   .     S
O758   Zn766   2.006   .     S
O759   Zn765   1.991   .     S
O760   Zn766   1.989   .     S
O761   Zn765   2.006   .     S
O762   Zn766   1.995   .     S
O763   Zn765   1.989   .     S
O764   Zn766   1.991   .     S
O767   C768    1.415   .     S
C768   H770    1.109   .     S
C768   H769    1.110   .     S
C768   H771    1.115   .     S
O772   C773    1.410   .     S
C773   H775    1.114   .     S
C773   H776    1.109   .     S
C773   H774    1.114   .     S
O780   C781    1.402   .     S
C781   H784    1.108   .     S
C781   H782    1.108   .     S
C781   H855    1.101   .     S
Br785  C96     1.917   1_556 S
O787   C788    1.410   .     S
C788   H791    1.108   .     S
C788   H790    1.114   .     S
C788   H789    1.112   .     S
C793   C809    1.440   .     S
C793   O830    1.295   .     A
C793   O829    1.293   .     A
C794   C795    1.406   .     A
C794   C148    1.415   1_556 S
C794   C172    1.417   1_556 S
C795   C802    1.409   .     A
C795   C799    1.412   .     A
C796   C800    1.392   .     A
C797   C798    1.397   .     A
C797   C148    1.421   1_556 S
C797   C168    1.415   1_556 S
C798   C799    1.406   .     A
C798   O852    1.382   .     S
C799   O859    1.384   .     S
C800   C817    1.394   .     A
C800   H824    1.077   .     S
C801   C816    1.383   .     A
C801   H821    1.084   .     S
C801   C817    1.391   .     A
C802   C818    1.399   .     A
C802   C804    1.488   .     S
C803   Br864   1.926   .     S
C803   C809    1.405   .     A
C803   C1021   1.372   .     S
C804   O832    1.298   .     A
C804   O831    1.316   .     A
C805   C806    1.398   .     A
C805   H822    1.084   .     S
C805   C1235   1.372   1_545 S
C806   C814    1.438   .     S
C806   C807    1.413   .     A
C807   O839    1.392   .     S
C807   C1240   1.389   1_545 S
C808   C809    1.410   .     A
C808   O844    1.384   .     S
C808   C1023   1.389   .     S
C810   H823    1.082   .     S
C810   N828    1.361   .     A
C810   C667    1.417   1_655 S
C811   N827    1.377   .     A
C811   Br849   1.908   .     S
C812   Br850   1.925   .     S
C812   N827    1.375   .     A
C813   Br851   1.927   .     S
C813   N828    1.372   .     A
C813   C668    1.428   1_655 S
C814   O834    1.298   .     A
C814   O833    1.289   .     A
C815   C817    1.445   .     S
C815   O835    1.294   .     A
C815   O836    1.297   .     A
C818   C819    1.397   .     A
C818   Br858   1.904   .     S
C819   H826    1.083   .     S
C819   C172    1.396   1_556 S
C820   H825    1.078   .     S
N827   Zn837   2.025   .     S
N828   Zn838   2.025   .     S
O829   Zn837   1.995   .     S
O830   Zn838   2.006   .     S
O831   Zn837   1.991   .     S
O832   Zn838   1.989   .     S
O833   Zn837   2.006   .     S
O834   Zn838   1.995   .     S
O835   Zn837   1.989   .     S
O836   Zn838   1.991   .     S
O839   C840    1.415   .     S
C840   H842    1.109   .     S
C840   H841    1.110   .     S
C840   H843    1.115   .     S
O844   C845    1.410   .     S
C845   H847    1.114   .     S
C845   H848    1.109   .     S
C845   H846    1.114   .     S
O852   C853    1.402   .     S
C853   H856    1.108   .     S
C853   H854    1.108   .     S
C853   H711    1.101   1_655 S
Br857  C168    1.917   1_556 S
O859   C860    1.410   .     S
C860   H863    1.108   .     S
C860   H862    1.114   .     S
C860   H861    1.112   .     S
C865   C881    1.440   .     S
C865   O902    1.295   .     A
C865   O901    1.293   .     A
C866   C867    1.406   .     A
C866   C220    1.415   1_556 S
C866   C244    1.417   1_556 S
C867   C874    1.409   .     A
C867   C871    1.412   .     A
C868   C872    1.392   .     A
C869   C870    1.397   .     A
C869   C220    1.421   1_556 S
C869   C240    1.415   1_556 S
C870   C871    1.406   .     A
C870   O924    1.382   .     S
C871   O931    1.384   .     S
C872   C889    1.394   .     A
C872   H896    1.077   .     S
C873   C888    1.383   .     A
C873   H893    1.084   .     S
C873   C889    1.391   .     A
C874   C890    1.399   .     A
C874   C876    1.488   .     S
C875   Br936   1.926   .     S
C875   C881    1.405   .     A
C875   C1093   1.372   .     S
C876   O904    1.298   .     A
C876   O903    1.316   .     A
C877   C878    1.398   .     A
C877   H894    1.084   .     S
C878   C886    1.438   .     S
C878   C879    1.413   .     A
C879   O911    1.392   .     S
C880   C881    1.410   .     A
C880   O916    1.384   .     S
C880   C1095   1.389   .     S
C882   H895    1.082   .     S
C882   N900    1.361   .     A
C882   C955    1.417   .     S
C883   N899    1.377   .     A
C883   Br921   1.908   .     S
C883   C1026   1.417   1_455 S
C884   Br922   1.925   .     S
C884   N899    1.375   .     A
C884   C1029   1.428   1_455 S
C885   Br923   1.927   .     S
C885   N900    1.372   .     A
C885   C956    1.428   .     S
C886   O906    1.298   .     A
C886   O905    1.289   .     A
C887   C889    1.445   .     S
C887   O907    1.294   .     A
C887   O908    1.297   .     A
C890   C891    1.397   .     A
C890   Br930   1.904   .     S
C891   H898    1.083   .     S
C891   C244    1.396   1_556 S
C892   H897    1.078   .     S
N899   Zn909   2.025   .     S
N900   Zn910   2.025   .     S
O901   Zn909   1.995   .     S
O902   Zn910   2.006   .     S
O903   Zn909   1.991   .     S
O904   Zn910   1.989   .     S
O905   Zn909   2.006   .     S
O906   Zn910   1.995   .     S
O907   Zn909   1.989   .     S
O908   Zn910   1.991   .     S
O911   C912    1.415   .     S
C912   H914    1.109   .     S
C912   H913    1.110   .     S
C912   H915    1.115   .     S
O916   C917    1.410   .     S
C917   H919    1.114   .     S
C917   H920    1.109   .     S
C917   H918    1.114   .     S
O924   C925    1.402   .     S
C925   H928    1.108   .     S
C925   H926    1.108   .     S
C925   H999    1.101   .     S
H927   C1069   1.101   1_455 S
Br929  C240    1.917   1_556 S
O931   C932    1.410   .     S
C932   H935    1.108   .     S
C932   H934    1.114   .     S
C932   H933    1.112   .     S
C937   C953    1.440   .     S
C937   O974    1.295   .     A
C937   O973    1.293   .     A
C938   C939    1.406   .     A
C938   C292    1.415   1_556 S
C938   C316    1.417   1_556 S
C939   C946    1.409   .     A
C939   C943    1.412   .     A
C940   C944    1.392   .     A
C941   C942    1.397   .     A
C941   C292    1.421   1_556 S
C941   C312    1.415   1_556 S
C942   C943    1.406   .     A
C942   O996    1.382   .     S
C943   O1003   1.384   .     S
C944   C961    1.394   .     A
C944   H968    1.077   .     S
C945   C960    1.383   .     A
C945   H965    1.084   .     S
C945   C961    1.391   .     A
C946   C962    1.399   .     A
C946   C948    1.488   .     S
C947   Br1008  1.926   .     S
C947   C953    1.405   .     A
C947   C1165   1.372   .     S
C948   O976    1.298   .     A
C948   O975    1.316   .     A
C949   C950    1.398   .     A
C949   H966    1.084   .     S
C950   C958    1.438   .     S
C950   C951    1.413   .     A
C951   O983    1.392   .     S
C952   C953    1.410   .     A
C952   O988    1.384   .     S
C952   C1167   1.389   .     S
C954   H967    1.082   .     S
C954   N972    1.361   .     A
C954   C1027   1.417   .     S
C955   N971    1.377   .     A
C955   Br993   1.908   .     S
C956   Br994   1.925   .     S
C956   N971    1.375   .     A
C957   Br995   1.927   .     S
C957   N972    1.372   .     A
C957   C1028   1.428   .     S
C958   O978    1.298   .     A
C958   O977    1.289   .     A
C959   C961    1.445   .     S
C959   O979    1.294   .     A
C959   O980    1.297   .     A
C962   C963    1.397   .     A
C962   Br1002  1.904   .     S
C963   H970    1.083   .     S
C963   C316    1.396   1_556 S
C964   H969    1.078   .     S
N971   Zn981   2.025   .     S
N972   Zn982   2.025   .     S
O973   Zn981   1.995   .     S
O974   Zn982   2.006   .     S
O975   Zn981   1.991   .     S
O976   Zn982   1.989   .     S
O977   Zn981   2.006   .     S
O978   Zn982   1.995   .     S
O979   Zn981   1.989   .     S
O980   Zn982   1.991   .     S
O983   C984    1.415   .     S
C984   H986    1.109   .     S
C984   H985    1.110   .     S
C984   H987    1.115   .     S
O988   C989    1.410   .     S
C989   H991    1.114   .     S
C989   H992    1.109   .     S
C989   H990    1.114   .     S
O996   C997    1.402   .     S
C997   H1000   1.108   .     S
C997   H998    1.108   .     S
C997   H1071   1.101   .     S
Br1001 C312    1.917   1_556 S
O1003  C1004   1.410   .     S
C1004  H1007   1.108   .     S
C1004  H1006   1.114   .     S
C1004  H1005   1.112   .     S
C1009  C1025   1.440   .     S
C1009  O1046   1.295   .     A
C1009  O1045   1.293   .     A
C1010  C1011   1.406   .     A
C1010  C364    1.415   1_556 S
C1010  C388    1.417   1_556 S
C1011  C1018   1.409   .     A
C1011  C1015   1.412   .     A
C1012  C1016   1.392   .     A
C1013  C1014   1.397   .     A
C1013  C364    1.421   1_556 S
C1013  C384    1.415   1_556 S
C1014  C1015   1.406   .     A
C1014  O1068   1.382   .     S
C1015  O1075   1.384   .     S
C1016  C1033   1.394   .     A
C1016  H1040   1.077   .     S
C1017  C1032   1.383   .     A
C1017  H1037   1.084   .     S
C1017  C1033   1.391   .     A
C1018  C1034   1.399   .     A
C1018  C1020   1.488   .     S
C1019  Br1080  1.926   .     S
C1019  C1025   1.405   .     A
C1019  C1237   1.372   .     S
C1020  O1048   1.298   .     A
C1020  O1047   1.316   .     A
C1021  C1022   1.398   .     A
C1021  H1038   1.084   .     S
C1022  C1030   1.438   .     S
C1022  C1023   1.413   .     A
C1023  O1055   1.392   .     S
C1024  C1025   1.410   .     A
C1024  O1060   1.384   .     S
C1024  C1239   1.389   .     S
C1026  H1039   1.082   .     S
C1026  N1044   1.361   .     A
C1026  C883    1.417   1_655 S
C1027  N1043   1.377   .     A
C1027  Br1065  1.908   .     S
C1028  Br1066  1.925   .     S
C1028  N1043   1.375   .     A
C1029  Br1067  1.927   .     S
C1029  N1044   1.372   .     A
C1029  C884    1.428   1_655 S
C1030  O1050   1.298   .     A
C1030  O1049   1.289   .     A
C1031  C1033   1.445   .     S
C1031  O1051   1.294   .     A
C1031  O1052   1.297   .     A
C1034  C1035   1.397   .     A
C1034  Br1074  1.904   .     S
C1035  H1042   1.083   .     S
C1035  C388    1.396   1_556 S
C1036  H1041   1.078   .     S
N1043  Zn1053  2.025   .     S
N1044  Zn1054  2.025   .     S
O1045  Zn1053  1.995   .     S
O1046  Zn1054  2.006   .     S
O1047  Zn1053  1.991   .     S
O1048  Zn1054  1.989   .     S
O1049  Zn1053  2.006   .     S
O1050  Zn1054  1.995   .     S
O1051  Zn1053  1.989   .     S
O1052  Zn1054  1.991   .     S
O1055  C1056   1.415   .     S
C1056  H1058   1.109   .     S
C1056  H1057   1.110   .     S
C1056  H1059   1.115   .     S
O1060  C1061   1.410   .     S
C1061  H1063   1.114   .     S
C1061  H1064   1.109   .     S
C1061  H1062   1.114   .     S
O1068  C1069   1.402   .     S
C1069  H1072   1.108   .     S
C1069  H1070   1.108   .     S
C1069  H927    1.101   1_655 S
Br1073 C384    1.917   1_556 S
O1075  C1076   1.410   .     S
C1076  H1079   1.108   .     S
C1076  H1078   1.114   .     S
C1076  H1077   1.112   .     S
C1081  C1097   1.440   .     S
C1081  O1118   1.295   .     A
C1081  O1117   1.293   .     A
C1082  C1083   1.406   .     A
C1082  C436    1.415   1_556 S
C1082  C460    1.417   1_556 S
C1083  C1090   1.409   .     A
C1083  C1087   1.412   .     A
C1084  C1088   1.392   .     A
C1085  C1086   1.397   .     A
C1085  C436    1.421   1_556 S
C1085  C456    1.415   1_556 S
C1086  C1087   1.406   .     A
C1086  O1140   1.382   .     S
C1087  O1147   1.384   .     S
C1088  C1105   1.394   .     A
C1088  H1112   1.077   .     S
C1089  C1104   1.383   .     A
C1089  H1109   1.084   .     S
C1089  C1105   1.391   .     A
C1090  C1106   1.399   .     A
C1090  C1092   1.488   .     S
C1091  Br1152  1.926   .     S
C1091  C1097   1.405   .     A
C1091  C661    1.372   1_565 S
C1092  O1120   1.298   .     A
C1092  O1119   1.316   .     A
C1093  C1094   1.398   .     A
C1093  H1110   1.084   .     S
C1094  C1102   1.438   .     S
C1094  C1095   1.413   .     A
C1095  O1127   1.392   .     S
C1096  C1097   1.410   .     A
C1096  O1132   1.384   .     S
C1096  C663    1.389   1_565 S
C1098  H1111   1.082   .     S
C1098  N1116   1.361   .     A
C1098  C1171   1.417   .     S
C1099  N1115   1.377   .     A
C1099  Br1137  1.908   .     S
C1099  C1242   1.417   1_455 S
C1100  Br1138  1.925   .     S
C1100  N1115   1.375   .     A
C1100  C1245   1.428   1_455 S
C1101  Br1139  1.927   .     S
C1101  N1116   1.372   .     A
C1101  C1172   1.428   .     S
C1102  O1122   1.298   .     A
C1102  O1121   1.289   .     A
C1103  C1105   1.445   .     S
C1103  O1123   1.294   .     A
C1103  O1124   1.297   .     A
C1106  C1107   1.397   .     A
C1106  Br1146  1.904   .     S
C1107  H1114   1.083   .     S
C1107  C460    1.396   1_556 S
C1108  H1113   1.078   .     S
N1115  Zn1125  2.025   .     S
N1116  Zn1126  2.025   .     S
O1117  Zn1125  1.995   .     S
O1118  Zn1126  2.006   .     S
O1119  Zn1125  1.991   .     S
O1120  Zn1126  1.989   .     S
O1121  Zn1125  2.006   .     S
O1122  Zn1126  1.995   .     S
O1123  Zn1125  1.989   .     S
O1124  Zn1126  1.991   .     S
O1127  C1128   1.415   .     S
C1128  H1130   1.109   .     S
C1128  H1129   1.110   .     S
C1128  H1131   1.115   .     S
O1132  C1133   1.410   .     S
C1133  H1135   1.114   .     S
C1133  H1136   1.109   .     S
C1133  H1134   1.114   .     S
O1140  C1141   1.402   .     S
C1141  H1144   1.108   .     S
C1141  H1142   1.108   .     S
C1141  H1215   1.101   .     S
H1143  C1285   1.101   1_455 S
Br1145 C456    1.917   1_556 S
O1147  C1148   1.410   .     S
C1148  H1151   1.108   .     S
C1148  H1150   1.114   .     S
C1148  H1149   1.112   .     S
C1153  C1169   1.440   .     S
C1153  O1190   1.295   .     A
C1153  O1189   1.293   .     A
C1154  C1155   1.406   .     A
C1154  C508    1.415   1_556 S
C1154  C532    1.417   1_556 S
C1155  C1162   1.409   .     A
C1155  C1159   1.412   .     A
C1156  C1160   1.392   .     A
C1157  C1158   1.397   .     A
C1157  C508    1.421   1_556 S
C1157  C528    1.415   1_556 S
C1158  C1159   1.406   .     A
C1158  O1212   1.382   .     S
C1159  O1219   1.384   .     S
C1160  C1177   1.394   .     A
C1160  H1184   1.077   .     S
C1161  C1176   1.383   .     A
C1161  H1181   1.084   .     S
C1161  C1177   1.391   .     A
C1162  C1178   1.399   .     A
C1162  C1164   1.488   .     S
C1163  Br1224  1.926   .     S
C1163  C1169   1.405   .     A
C1163  C733    1.372   1_565 S
C1164  O1192   1.298   .     A
C1164  O1191   1.316   .     A
C1165  C1166   1.398   .     A
C1165  H1182   1.084   .     S
C1166  C1174   1.438   .     S
C1166  C1167   1.413   .     A
C1167  O1199   1.392   .     S
C1168  C1169   1.410   .     A
C1168  O1204   1.384   .     S
C1168  C735    1.389   1_565 S
C1170  H1183   1.082   .     S
C1170  N1188   1.361   .     A
C1170  C1243   1.417   .     S
C1171  N1187   1.377   .     A
C1171  Br1209  1.908   .     S
C1172  Br1210  1.925   .     S
C1172  N1187   1.375   .     A
C1173  Br1211  1.927   .     S
C1173  N1188   1.372   .     A
C1173  C1244   1.428   .     S
C1174  O1194   1.298   .     A
C1174  O1193   1.289   .     A
C1175  C1177   1.445   .     S
C1175  O1195   1.294   .     A
C1175  O1196   1.297   .     A
C1178  C1179   1.397   .     A
C1178  Br1218  1.904   .     S
C1179  H1186   1.083   .     S
C1179  C532    1.396   1_556 S
C1180  H1185   1.078   .     S
N1187  Zn1197  2.025   .     S
N1188  Zn1198  2.025   .     S
O1189  Zn1197  1.995   .     S
O1190  Zn1198  2.006   .     S
O1191  Zn1197  1.991   .     S
O1192  Zn1198  1.989   .     S
O1193  Zn1197  2.006   .     S
O1194  Zn1198  1.995   .     S
O1195  Zn1197  1.989   .     S
O1196  Zn1198  1.991   .     S
O1199  C1200   1.415   .     S
C1200  H1202   1.109   .     S
C1200  H1201   1.110   .     S
C1200  H1203   1.115   .     S
O1204  C1205   1.410   .     S
C1205  H1207   1.114   .     S
C1205  H1208   1.109   .     S
C1205  H1206   1.114   .     S
O1212  C1213   1.402   .     S
C1213  H1216   1.108   .     S
C1213  H1214   1.108   .     S
C1213  H1287   1.101   .     S
Br1217 C528    1.917   1_556 S
O1219  C1220   1.410   .     S
C1220  H1223   1.108   .     S
C1220  H1222   1.114   .     S
C1220  H1221   1.112   .     S
C1225  C1241   1.440   .     S
C1225  O1262   1.295   .     A
C1225  O1261   1.293   .     A
C1226  C1227   1.406   .     A
C1226  C580    1.415   1_556 S
C1226  C604    1.417   1_556 S
C1227  C1234   1.409   .     A
C1227  C1231   1.412   .     A
C1228  C1232   1.392   .     A
C1229  C1230   1.397   .     A
C1229  C580    1.421   1_556 S
C1229  C600    1.415   1_556 S
C1230  C1231   1.406   .     A
C1230  O1284   1.382   .     S
C1231  O1291   1.384   .     S
C1232  C1249   1.394   .     A
C1232  H1256   1.077   .     S
C1233  C1248   1.383   .     A
C1233  H1253   1.084   .     S
C1233  C1249   1.391   .     A
C1234  C1250   1.399   .     A
C1234  C1236   1.488   .     S
C1235  Br1296  1.926   .     S
C1235  C1241   1.405   .     A
C1235  C805    1.372   1_565 S
C1236  O1264   1.298   .     A
C1236  O1263   1.316   .     A
C1237  C1238   1.398   .     A
C1237  H1254   1.084   .     S
C1238  C1246   1.438   .     S
C1238  C1239   1.413   .     A
C1239  O1271   1.392   .     S
C1240  C1241   1.410   .     A
C1240  O1276   1.384   .     S
C1240  C807    1.389   1_565 S
C1242  H1255   1.082   .     S
C1242  N1260   1.361   .     A
C1242  C1099   1.417   1_655 S
C1243  N1259   1.377   .     A
C1243  Br1281  1.908   .     S
C1244  Br1282  1.925   .     S
C1244  N1259   1.375   .     A
C1245  Br1283  1.927   .     S
C1245  N1260   1.372   .     A
C1245  C1100   1.428   1_655 S
C1246  O1266   1.298   .     A
C1246  O1265   1.289   .     A
C1247  C1249   1.445   .     S
C1247  O1267   1.294   .     A
C1247  O1268   1.297   .     A
C1250  C1251   1.397   .     A
C1250  Br1290  1.904   .     S
C1251  H1258   1.083   .     S
C1251  C604    1.396   1_556 S
C1252  H1257   1.078   .     S
N1259  Zn1269  2.025   .     S
N1260  Zn1270  2.025   .     S
O1261  Zn1269  1.995   .     S
O1262  Zn1270  2.006   .     S
O1263  Zn1269  1.991   .     S
O1264  Zn1270  1.989   .     S
O1265  Zn1269  2.006   .     S
O1266  Zn1270  1.995   .     S
O1267  Zn1269  1.989   .     S
O1268  Zn1270  1.991   .     S
O1271  C1272   1.415   .     S
C1272  H1274   1.109   .     S
C1272  H1273   1.110   .     S
C1272  H1275   1.115   .     S
O1276  C1277   1.410   .     S
C1277  H1279   1.114   .     S
C1277  H1280   1.109   .     S
C1277  H1278   1.114   .     S
O1284  C1285   1.402   .     S
C1285  H1288   1.108   .     S
C1285  H1286   1.108   .     S
C1285  H1143   1.101   1_655 S
Br1289 C600    1.917   1_556 S
O1291  C1292   1.410   .     S
C1292  H1295   1.108   .     S
C1292  H1294   1.114   .     S
C1292  H1293   1.112   .     S
