data_str_m2_o1_o17_pcu_sym.94
_audit_creation_date              2020-01-03
_audit_creation_method            'Materials Studio'
_symmetry_space_group_name_H-M    'P1'
_symmetry_Int_Tables_number       1
_symmetry_cell_setting            triclinic
loop_
_symmetry_equiv_pos_as_xyz
  x,y,z
_cell_length_a                    32.7328
_cell_length_b                    29.0023
_cell_length_c                    30.0373
_cell_angle_alpha                 90.0002
_cell_angle_beta                  102.0377
_cell_angle_gamma                 90.0053
loop_
_atom_site_label
_atom_site_type_symbol
_atom_site_fract_x
_atom_site_fract_y
_atom_site_fract_z
_atom_site_U_iso_or_equiv
_atom_site_adp_type
_atom_site_occupancy
C1     C     0.08777   0.16657   0.25176   0.00000  Uiso   1.00
C2     C     0.04337   0.16591   0.25381   0.00000  Uiso   1.00
C3     C     0.13798   0.02518   0.21724   0.00000  Uiso   1.00
C4     C     0.19584   0.30815   0.28205   0.00000  Uiso   1.00
C5     C     0.19535   0.02519   0.28276   0.00000  Uiso   1.00
C6     C     0.13749   0.30815   0.21795   0.00000  Uiso   1.00
C7     C     0.16714   0.16667   0.16467   0.00000  Uiso   1.00
C8     C     0.16616   0.16667   0.33533   0.00000  Uiso   1.00
C9     C     0.20268   0.17186   0.41447   0.00000  Uiso   1.00
C10    C     0.13054   0.17149   0.08551   0.00000  Uiso   1.00
C11    C     0.16504   0.16687   0.38339   0.00000  Uiso   1.00
C12    C     0.24556   0.16657   0.24821   0.00000  Uiso   1.00
C13    C     0.16823   0.16687   0.11660   0.00000  Uiso   1.00
C14    C     0.12680   0.16458   0.39807   0.00000  Uiso   1.00
C15    C     0.20648   0.16497   0.10192   0.00000  Uiso   1.00
C16    C     0.12661   0.17158   0.44473   0.00000  Uiso   1.00
C17    C     0.20662   0.17200   0.05526   0.00000  Uiso   1.00
C18    C     0.16578   0.17292   0.47636   0.00000  Uiso   1.00
C19    C     0.16744   0.17293   0.02362   0.00000  Uiso   1.00
C20    C     0.20348   0.17336   0.46082   0.00000  Uiso   1.00
C21    C     0.12974   0.17298   0.03916   0.00000  Uiso   1.00
C22    C     0.08910   0.17607   0.46148   0.00000  Uiso   1.00
C23    C     0.09142   0.17559   0.00844   0.00000  Uiso   1.00
C24    C     0.24409   0.17689   0.03850   0.00000  Uiso   1.00
C25    C     0.24177   0.17636   0.49154   0.00000  Uiso   1.00
C26    C     0.02140   0.12361   0.24982   0.00000  Uiso   1.00
C27    C     0.31176   0.20768   0.24434   0.00000  Uiso   1.00
C28    C     0.31190   0.12361   0.25002   0.00000  Uiso   1.00
C29    C     0.02158   0.20767   0.25564   0.00000  Uiso   1.00
C30    C     0.28995   0.16592   0.24612   0.00000  Uiso   1.00
Cu31   Cu    0.16667   0.21355   0.25000   0.00000  Uiso   1.00
Cu32   Cu    0.16667   0.11978   0.25000   0.00000  Uiso   1.00
H33    H     0.23166   0.17359   0.40252   0.00000  Uiso   1.00
H34    H     0.26890   0.24375   0.20651   0.00000  Uiso   1.00
H35    H     0.31083   0.06047   0.27171   0.00000  Uiso   1.00
H36    H     0.06443   0.24369   0.29355   0.00000  Uiso   1.00
H37    H     0.07202   0.11766   0.14225   0.00000  Uiso   1.00
H38    H     0.26838   0.21533   0.34853   0.00000  Uiso   1.00
H39    H     0.26104   0.11775   0.35795   0.00000  Uiso   1.00
H40    H     0.06522   0.21534   0.15091   0.00000  Uiso   1.00
H41    H     0.10156   0.17294   0.09747   0.00000  Uiso   1.00
H42    H     0.06294   0.17744   0.02137   0.00000  Uiso   1.00
H43    H     0.27023   0.17848   0.47861   0.00000  Uiso   1.00
H44    H     0.09636   0.13698   0.34150   0.00000  Uiso   1.00
H45    H     0.23710   0.13746   0.15844   0.00000  Uiso   1.00
H46    H     0.05662   0.25158   0.40060   0.00000  Uiso   1.00
H47    H     0.31692   0.22463   0.13659   0.00000  Uiso   1.00
H48    H     0.02243   0.06051   0.22803   0.00000  Uiso   1.00
N49    N     0.16667   0.28402   0.25000   0.00000  Uiso   1.00
N50    N     0.16667   0.04931   0.25000   0.00000  Uiso   1.00
O51    O     0.10655   0.20625   0.24999   0.00000  Uiso   1.00
O52    O     0.24323   0.15414   0.13192   0.00000  Uiso   1.00
O53    O     0.02093   0.14203   0.40564   0.00000  Uiso   1.00
O54    O     0.00973   0.20638   0.45404   0.00000  Uiso   1.00
O55    O     0.04251   0.22417   0.38472   0.00000  Uiso   1.00
O56    O     0.31243   0.14357   0.09459   0.00000  Uiso   1.00
O57    O     0.32307   0.20805   0.04582   0.00000  Uiso   1.00
O58    O     0.28970   0.22584   0.11476   0.00000  Uiso   1.00
O59    O     0.04209   0.08262   0.24641   0.00000  Uiso   1.00
O60    O     0.29210   0.24931   0.23298   0.00000  Uiso   1.00
O61    O     0.29119   0.08261   0.25335   0.00000  Uiso   1.00
O62    O     0.22679   0.12709   0.25001   0.00000  Uiso   1.00
O63    O     0.04126   0.24928   0.26707   0.00000  Uiso   1.00
O64    O     0.12448   0.04885   0.12882   0.00000  Uiso   1.00
O65    O     0.06120   0.03458   0.15721   0.00000  Uiso   1.00
O66    O     0.09298   0.11134   0.17051   0.00000  Uiso   1.00
O67    O     0.27769   0.29112   0.31017   0.00000  Uiso   1.00
O68    O     0.23682   0.29607   0.36988   0.00000  Uiso   1.00
O69    O     0.24004   0.22134   0.33013   0.00000  Uiso   1.00
O70    O     0.20884   0.04885   0.37118   0.00000  Uiso   1.00
O71    O     0.27213   0.03463   0.34280   0.00000  Uiso   1.00
O72    O     0.24035   0.11137   0.32951   0.00000  Uiso   1.00
O73    O     0.22679   0.20625   0.25001   0.00000  Uiso   1.00
O74    O     0.05564   0.29105   0.18981   0.00000  Uiso   1.00
O75    O     0.09653   0.29605   0.13011   0.00000  Uiso   1.00
O76    O     0.09333   0.22131   0.16987   0.00000  Uiso   1.00
O77    O     0.10655   0.12709   0.25000   0.00000  Uiso   1.00
O78    O     0.16666   0.20627   0.18513   0.00000  Uiso   1.00
O79    O     0.16668   0.12707   0.31487   0.00000  Uiso   1.00
O80    O     0.16668   0.20627   0.31487   0.00000  Uiso   1.00
O81    O     0.16666   0.12707   0.18513   0.00000  Uiso   1.00
O82    O     0.09012   0.15342   0.36810   0.00000  Uiso   1.00
S83    S     0.03893   0.18665   0.42646   0.00000  Uiso   1.00
S84    S     0.29412   0.18799   0.07354   0.00000  Uiso   1.00
S85    S     0.10410   0.05514   0.16888   0.00000  Uiso   1.00
S86    S     0.23709   0.27851   0.32290   0.00000  Uiso   1.00
S87    S     0.22923   0.05516   0.33113   0.00000  Uiso   1.00
S88    S     0.09625   0.27848   0.17709   0.00000  Uiso   1.00
C89    C     0.42111   0.16657   0.25176   0.00000  Uiso   1.00
C90    C     0.37670   0.16591   0.25381   0.00000  Uiso   1.00
C91    C     0.47131   0.02518   0.21724   0.00000  Uiso   1.00
C92    C     0.52917   0.30815   0.28205   0.00000  Uiso   1.00
C93    C     0.52868   0.02519   0.28276   0.00000  Uiso   1.00
C94    C     0.47083   0.30815   0.21795   0.00000  Uiso   1.00
C95    C     0.50048   0.16667   0.16467   0.00000  Uiso   1.00
C96    C     0.49949   0.16667   0.33533   0.00000  Uiso   1.00
C97    C     0.53602   0.17186   0.41447   0.00000  Uiso   1.00
C98    C     0.46388   0.17149   0.08551   0.00000  Uiso   1.00
C99    C     0.49838   0.16687   0.38339   0.00000  Uiso   1.00
C100   C     0.57889   0.16657   0.24821   0.00000  Uiso   1.00
C101   C     0.50156   0.16687   0.11660   0.00000  Uiso   1.00
C102   C     0.46014   0.16458   0.39807   0.00000  Uiso   1.00
C103   C     0.53981   0.16497   0.10192   0.00000  Uiso   1.00
C104   C     0.45994   0.17158   0.44473   0.00000  Uiso   1.00
C105   C     0.53995   0.17200   0.05526   0.00000  Uiso   1.00
C106   C     0.49911   0.17292   0.47636   0.00000  Uiso   1.00
C107   C     0.50077   0.17293   0.02362   0.00000  Uiso   1.00
C108   C     0.53681   0.17336   0.46082   0.00000  Uiso   1.00
C109   C     0.46307   0.17298   0.03916   0.00000  Uiso   1.00
C110   C     0.42244   0.17607   0.46148   0.00000  Uiso   1.00
C111   C     0.42475   0.17559   0.00844   0.00000  Uiso   1.00
C112   C     0.57742   0.17689   0.03850   0.00000  Uiso   1.00
C113   C     0.57511   0.17636   0.49154   0.00000  Uiso   1.00
C114   C     0.35473   0.12361   0.24982   0.00000  Uiso   1.00
C115   C     0.64509   0.20768   0.24434   0.00000  Uiso   1.00
C116   C     0.64523   0.12361   0.25002   0.00000  Uiso   1.00
C117   C     0.35491   0.20767   0.25564   0.00000  Uiso   1.00
C118   C     0.62329   0.16592   0.24612   0.00000  Uiso   1.00
Cu119  Cu    0.50000   0.21355   0.25000   0.00000  Uiso   1.00
Cu120  Cu    0.50000   0.11978   0.25000   0.00000  Uiso   1.00
H121   H     0.56499   0.17359   0.40252   0.00000  Uiso   1.00
H122   H     0.60223   0.24375   0.20651   0.00000  Uiso   1.00
H123   H     0.64416   0.06047   0.27171   0.00000  Uiso   1.00
H124   H     0.39777   0.24369   0.29355   0.00000  Uiso   1.00
H125   H     0.40535   0.11766   0.14225   0.00000  Uiso   1.00
H126   H     0.60171   0.21533   0.34853   0.00000  Uiso   1.00
H127   H     0.59437   0.11775   0.35795   0.00000  Uiso   1.00
H128   H     0.39856   0.21534   0.15091   0.00000  Uiso   1.00
H129   H     0.43490   0.17294   0.09747   0.00000  Uiso   1.00
H130   H     0.39627   0.17744   0.02137   0.00000  Uiso   1.00
H131   H     0.60356   0.17848   0.47861   0.00000  Uiso   1.00
H132   H     0.42969   0.13698   0.34150   0.00000  Uiso   1.00
H133   H     0.57043   0.13746   0.15844   0.00000  Uiso   1.00
H134   H     0.38995   0.25158   0.40060   0.00000  Uiso   1.00
H135   H     0.65025   0.22463   0.13659   0.00000  Uiso   1.00
H136   H     0.35577   0.06051   0.22803   0.00000  Uiso   1.00
N137   N     0.50000   0.28402   0.25000   0.00000  Uiso   1.00
N138   N     0.50000   0.04931   0.25000   0.00000  Uiso   1.00
O139   O     0.43988   0.20625   0.24999   0.00000  Uiso   1.00
O140   O     0.57656   0.15414   0.13192   0.00000  Uiso   1.00
O141   O     0.35426   0.14203   0.40564   0.00000  Uiso   1.00
O142   O     0.34306   0.20638   0.45404   0.00000  Uiso   1.00
O143   O     0.37584   0.22417   0.38472   0.00000  Uiso   1.00
O144   O     0.64576   0.14357   0.09459   0.00000  Uiso   1.00
O145   O     0.65640   0.20805   0.04582   0.00000  Uiso   1.00
O146   O     0.62303   0.22584   0.11476   0.00000  Uiso   1.00
O147   O     0.37542   0.08262   0.24641   0.00000  Uiso   1.00
O148   O     0.62543   0.24931   0.23298   0.00000  Uiso   1.00
O149   O     0.62452   0.08261   0.25335   0.00000  Uiso   1.00
O150   O     0.56012   0.12709   0.25001   0.00000  Uiso   1.00
O151   O     0.37459   0.24928   0.26707   0.00000  Uiso   1.00
O152   O     0.45782   0.04885   0.12882   0.00000  Uiso   1.00
O153   O     0.39454   0.03458   0.15721   0.00000  Uiso   1.00
O154   O     0.42631   0.11134   0.17051   0.00000  Uiso   1.00
O155   O     0.61103   0.29112   0.31017   0.00000  Uiso   1.00
O156   O     0.57015   0.29607   0.36988   0.00000  Uiso   1.00
O157   O     0.57337   0.22134   0.33013   0.00000  Uiso   1.00
O158   O     0.54217   0.04885   0.37118   0.00000  Uiso   1.00
O159   O     0.60546   0.03463   0.34280   0.00000  Uiso   1.00
O160   O     0.57368   0.11137   0.32951   0.00000  Uiso   1.00
O161   O     0.56012   0.20625   0.25001   0.00000  Uiso   1.00
O162   O     0.38897   0.29105   0.18981   0.00000  Uiso   1.00
O163   O     0.42986   0.29605   0.13011   0.00000  Uiso   1.00
O164   O     0.42667   0.22131   0.16987   0.00000  Uiso   1.00
O165   O     0.43988   0.12709   0.25000   0.00000  Uiso   1.00
O166   O     0.49999   0.20627   0.18513   0.00000  Uiso   1.00
O167   O     0.50001   0.12707   0.31487   0.00000  Uiso   1.00
O168   O     0.50001   0.20627   0.31487   0.00000  Uiso   1.00
O169   O     0.49999   0.12707   0.18513   0.00000  Uiso   1.00
O170   O     0.42346   0.15342   0.36810   0.00000  Uiso   1.00
S171   S     0.37227   0.18665   0.42646   0.00000  Uiso   1.00
S172   S     0.62745   0.18799   0.07354   0.00000  Uiso   1.00
S173   S     0.43743   0.05514   0.16888   0.00000  Uiso   1.00
S174   S     0.57042   0.27851   0.32290   0.00000  Uiso   1.00
S175   S     0.56256   0.05516   0.33113   0.00000  Uiso   1.00
S176   S     0.42959   0.27848   0.17709   0.00000  Uiso   1.00
C177   C     0.75444   0.16657   0.25176   0.00000  Uiso   1.00
C178   C     0.71003   0.16591   0.25381   0.00000  Uiso   1.00
C179   C     0.80465   0.02518   0.21724   0.00000  Uiso   1.00
C180   C     0.86251   0.30815   0.28205   0.00000  Uiso   1.00
C181   C     0.86202   0.02519   0.28276   0.00000  Uiso   1.00
C182   C     0.80416   0.30815   0.21795   0.00000  Uiso   1.00
C183   C     0.83381   0.16667   0.16467   0.00000  Uiso   1.00
C184   C     0.83282   0.16667   0.33533   0.00000  Uiso   1.00
C185   C     0.86935   0.17186   0.41447   0.00000  Uiso   1.00
C186   C     0.79721   0.17149   0.08551   0.00000  Uiso   1.00
C187   C     0.83171   0.16687   0.38339   0.00000  Uiso   1.00
C188   C     0.91222   0.16657   0.24821   0.00000  Uiso   1.00
C189   C     0.83489   0.16687   0.11660   0.00000  Uiso   1.00
C190   C     0.79347   0.16458   0.39807   0.00000  Uiso   1.00
C191   C     0.87314   0.16497   0.10192   0.00000  Uiso   1.00
C192   C     0.79327   0.17158   0.44473   0.00000  Uiso   1.00
C193   C     0.87329   0.17200   0.05526   0.00000  Uiso   1.00
C194   C     0.83244   0.17292   0.47636   0.00000  Uiso   1.00
C195   C     0.83410   0.17293   0.02362   0.00000  Uiso   1.00
C196   C     0.87014   0.17336   0.46082   0.00000  Uiso   1.00
C197   C     0.79640   0.17298   0.03916   0.00000  Uiso   1.00
C198   C     0.75577   0.17607   0.46148   0.00000  Uiso   1.00
C199   C     0.75808   0.17559   0.00844   0.00000  Uiso   1.00
C200   C     0.91075   0.17689   0.03850   0.00000  Uiso   1.00
C201   C     0.90844   0.17636   0.49154   0.00000  Uiso   1.00
C202   C     0.68807   0.12361   0.24982   0.00000  Uiso   1.00
C203   C     0.97842   0.20768   0.24434   0.00000  Uiso   1.00
C204   C     0.97856   0.12361   0.25002   0.00000  Uiso   1.00
C205   C     0.68824   0.20767   0.25564   0.00000  Uiso   1.00
C206   C     0.95662   0.16592   0.24612   0.00000  Uiso   1.00
Cu207  Cu    0.83333   0.21355   0.25000   0.00000  Uiso   1.00
Cu208  Cu    0.83333   0.11978   0.25000   0.00000  Uiso   1.00
H209   H     0.89832   0.17359   0.40252   0.00000  Uiso   1.00
H210   H     0.93556   0.24375   0.20651   0.00000  Uiso   1.00
H211   H     0.97749   0.06047   0.27171   0.00000  Uiso   1.00
H212   H     0.73110   0.24369   0.29355   0.00000  Uiso   1.00
H213   H     0.73869   0.11766   0.14225   0.00000  Uiso   1.00
H214   H     0.93505   0.21533   0.34853   0.00000  Uiso   1.00
H215   H     0.92770   0.11775   0.35795   0.00000  Uiso   1.00
H216   H     0.73189   0.21534   0.15091   0.00000  Uiso   1.00
H217   H     0.76823   0.17294   0.09747   0.00000  Uiso   1.00
H218   H     0.72961   0.17744   0.02137   0.00000  Uiso   1.00
H219   H     0.93690   0.17848   0.47861   0.00000  Uiso   1.00
H220   H     0.76303   0.13698   0.34150   0.00000  Uiso   1.00
H221   H     0.90376   0.13746   0.15844   0.00000  Uiso   1.00
H222   H     0.72329   0.25158   0.40060   0.00000  Uiso   1.00
H223   H     0.98358   0.22463   0.13659   0.00000  Uiso   1.00
H224   H     0.68910   0.06051   0.22803   0.00000  Uiso   1.00
N225   N     0.83333   0.28402   0.25000   0.00000  Uiso   1.00
N226   N     0.83333   0.04931   0.25000   0.00000  Uiso   1.00
O227   O     0.77321   0.20625   0.24999   0.00000  Uiso   1.00
O228   O     0.90990   0.15414   0.13192   0.00000  Uiso   1.00
O229   O     0.68760   0.14203   0.40564   0.00000  Uiso   1.00
O230   O     0.67639   0.20638   0.45404   0.00000  Uiso   1.00
O231   O     0.70917   0.22417   0.38472   0.00000  Uiso   1.00
O232   O     0.97910   0.14357   0.09459   0.00000  Uiso   1.00
O233   O     0.98974   0.20805   0.04582   0.00000  Uiso   1.00
O234   O     0.95636   0.22584   0.11476   0.00000  Uiso   1.00
O235   O     0.70876   0.08262   0.24641   0.00000  Uiso   1.00
O236   O     0.95876   0.24931   0.23298   0.00000  Uiso   1.00
O237   O     0.95785   0.08261   0.25335   0.00000  Uiso   1.00
O238   O     0.89345   0.12709   0.25001   0.00000  Uiso   1.00
O239   O     0.70792   0.24928   0.26707   0.00000  Uiso   1.00
O240   O     0.79115   0.04885   0.12882   0.00000  Uiso   1.00
O241   O     0.72787   0.03458   0.15721   0.00000  Uiso   1.00
O242   O     0.75964   0.11134   0.17051   0.00000  Uiso   1.00
O243   O     0.94436   0.29112   0.31017   0.00000  Uiso   1.00
O244   O     0.90348   0.29607   0.36988   0.00000  Uiso   1.00
O245   O     0.90671   0.22134   0.33013   0.00000  Uiso   1.00
O246   O     0.87550   0.04885   0.37118   0.00000  Uiso   1.00
O247   O     0.93880   0.03463   0.34280   0.00000  Uiso   1.00
O248   O     0.90701   0.11137   0.32951   0.00000  Uiso   1.00
O249   O     0.89345   0.20625   0.25001   0.00000  Uiso   1.00
O250   O     0.72230   0.29105   0.18981   0.00000  Uiso   1.00
O251   O     0.76320   0.29605   0.13011   0.00000  Uiso   1.00
O252   O     0.76000   0.22131   0.16987   0.00000  Uiso   1.00
O253   O     0.77321   0.12709   0.25000   0.00000  Uiso   1.00
O254   O     0.83332   0.20627   0.18513   0.00000  Uiso   1.00
O255   O     0.83334   0.12707   0.31487   0.00000  Uiso   1.00
O256   O     0.83334   0.20627   0.31487   0.00000  Uiso   1.00
O257   O     0.83332   0.12707   0.18513   0.00000  Uiso   1.00
O258   O     0.75679   0.15342   0.36810   0.00000  Uiso   1.00
S259   S     0.70560   0.18665   0.42646   0.00000  Uiso   1.00
S260   S     0.96079   0.18799   0.07354   0.00000  Uiso   1.00
S261   S     0.77077   0.05514   0.16888   0.00000  Uiso   1.00
S262   S     0.90375   0.27851   0.32290   0.00000  Uiso   1.00
S263   S     0.89589   0.05516   0.33113   0.00000  Uiso   1.00
S264   S     0.76292   0.27848   0.17709   0.00000  Uiso   1.00
C265   C     0.08777   0.49990   0.25176   0.00000  Uiso   1.00
C266   C     0.04337   0.49925   0.25381   0.00000  Uiso   1.00
C267   C     0.13798   0.35851   0.21724   0.00000  Uiso   1.00
C268   C     0.19584   0.64149   0.28205   0.00000  Uiso   1.00
C269   C     0.19535   0.35852   0.28276   0.00000  Uiso   1.00
C270   C     0.13749   0.64148   0.21795   0.00000  Uiso   1.00
C271   C     0.16714   0.50000   0.16467   0.00000  Uiso   1.00
C272   C     0.16616   0.50000   0.33533   0.00000  Uiso   1.00
C273   C     0.20268   0.50519   0.41447   0.00000  Uiso   1.00
C274   C     0.13054   0.50482   0.08551   0.00000  Uiso   1.00
C275   C     0.16504   0.50020   0.38339   0.00000  Uiso   1.00
C276   C     0.24556   0.49991   0.24821   0.00000  Uiso   1.00
C277   C     0.16823   0.50020   0.11660   0.00000  Uiso   1.00
C278   C     0.12680   0.49792   0.39807   0.00000  Uiso   1.00
C279   C     0.20648   0.49831   0.10192   0.00000  Uiso   1.00
C280   C     0.12661   0.50492   0.44473   0.00000  Uiso   1.00
C281   C     0.20662   0.50533   0.05526   0.00000  Uiso   1.00
C282   C     0.16578   0.50625   0.47636   0.00000  Uiso   1.00
C283   C     0.16744   0.50626   0.02362   0.00000  Uiso   1.00
C284   C     0.20348   0.50670   0.46082   0.00000  Uiso   1.00
C285   C     0.12974   0.50632   0.03916   0.00000  Uiso   1.00
C286   C     0.08910   0.50941   0.46148   0.00000  Uiso   1.00
C287   C     0.09142   0.50893   0.00844   0.00000  Uiso   1.00
C288   C     0.24409   0.51022   0.03850   0.00000  Uiso   1.00
C289   C     0.24177   0.50970   0.49154   0.00000  Uiso   1.00
C290   C     0.02140   0.45695   0.24982   0.00000  Uiso   1.00
C291   C     0.31176   0.54102   0.24434   0.00000  Uiso   1.00
C292   C     0.31190   0.45695   0.25002   0.00000  Uiso   1.00
C293   C     0.02158   0.54101   0.25564   0.00000  Uiso   1.00
C294   C     0.28995   0.49925   0.24612   0.00000  Uiso   1.00
Cu295  Cu    0.16667   0.54689   0.25000   0.00000  Uiso   1.00
Cu296  Cu    0.16667   0.45311   0.25000   0.00000  Uiso   1.00
H297   H     0.23166   0.50692   0.40252   0.00000  Uiso   1.00
H298   H     0.26890   0.57708   0.20651   0.00000  Uiso   1.00
H299   H     0.31083   0.39381   0.27171   0.00000  Uiso   1.00
H300   H     0.06443   0.57702   0.29355   0.00000  Uiso   1.00
H301   H     0.07202   0.45099   0.14225   0.00000  Uiso   1.00
H302   H     0.26838   0.54866   0.34853   0.00000  Uiso   1.00
H303   H     0.26104   0.45109   0.35795   0.00000  Uiso   1.00
H304   H     0.06522   0.54867   0.15091   0.00000  Uiso   1.00
H305   H     0.10156   0.50627   0.09747   0.00000  Uiso   1.00
H306   H     0.06294   0.51077   0.02137   0.00000  Uiso   1.00
H307   H     0.27023   0.51181   0.47861   0.00000  Uiso   1.00
H308   H     0.09636   0.47031   0.34150   0.00000  Uiso   1.00
H309   H     0.23710   0.47079   0.15844   0.00000  Uiso   1.00
H310   H     0.05662   0.58491   0.40060   0.00000  Uiso   1.00
H311   H     0.31692   0.55797   0.13659   0.00000  Uiso   1.00
H312   H     0.02243   0.39384   0.22803   0.00000  Uiso   1.00
N313   N     0.16667   0.61736   0.25000   0.00000  Uiso   1.00
N314   N     0.16667   0.38264   0.25000   0.00000  Uiso   1.00
O315   O     0.10655   0.53958   0.24999   0.00000  Uiso   1.00
O316   O     0.24323   0.48748   0.13192   0.00000  Uiso   1.00
O317   O     0.02093   0.47536   0.40564   0.00000  Uiso   1.00
O318   O     0.00973   0.53971   0.45404   0.00000  Uiso   1.00
O319   O     0.04251   0.55750   0.38472   0.00000  Uiso   1.00
O320   O     0.31243   0.47690   0.09459   0.00000  Uiso   1.00
O321   O     0.32307   0.54139   0.04582   0.00000  Uiso   1.00
O322   O     0.28970   0.55917   0.11476   0.00000  Uiso   1.00
O323   O     0.04209   0.41596   0.24641   0.00000  Uiso   1.00
O324   O     0.29210   0.58264   0.23298   0.00000  Uiso   1.00
O325   O     0.29119   0.41595   0.25335   0.00000  Uiso   1.00
O326   O     0.22679   0.46042   0.25001   0.00000  Uiso   1.00
O327   O     0.04126   0.58262   0.26707   0.00000  Uiso   1.00
O328   O     0.12448   0.38218   0.12882   0.00000  Uiso   1.00
O329   O     0.06120   0.36791   0.15721   0.00000  Uiso   1.00
O330   O     0.09298   0.44468   0.17051   0.00000  Uiso   1.00
O331   O     0.27769   0.62446   0.31017   0.00000  Uiso   1.00
O332   O     0.23682   0.62940   0.36988   0.00000  Uiso   1.00
O333   O     0.24004   0.55467   0.33013   0.00000  Uiso   1.00
O334   O     0.20884   0.38219   0.37118   0.00000  Uiso   1.00
O335   O     0.27213   0.36796   0.34280   0.00000  Uiso   1.00
O336   O     0.24035   0.44470   0.32951   0.00000  Uiso   1.00
O337   O     0.22679   0.53958   0.25001   0.00000  Uiso   1.00
O338   O     0.05564   0.62438   0.18981   0.00000  Uiso   1.00
O339   O     0.09653   0.62939   0.13011   0.00000  Uiso   1.00
O340   O     0.09333   0.55464   0.16987   0.00000  Uiso   1.00
O341   O     0.10655   0.46042   0.25000   0.00000  Uiso   1.00
O342   O     0.16666   0.53960   0.18513   0.00000  Uiso   1.00
O343   O     0.16668   0.46040   0.31487   0.00000  Uiso   1.00
O344   O     0.16668   0.53960   0.31487   0.00000  Uiso   1.00
O345   O     0.16666   0.46040   0.18513   0.00000  Uiso   1.00
O346   O     0.09012   0.48675   0.36810   0.00000  Uiso   1.00
S347   S     0.03893   0.51998   0.42646   0.00000  Uiso   1.00
S348   S     0.29412   0.52133   0.07354   0.00000  Uiso   1.00
S349   S     0.10410   0.38847   0.16888   0.00000  Uiso   1.00
S350   S     0.23709   0.61184   0.32290   0.00000  Uiso   1.00
S351   S     0.22923   0.38849   0.33113   0.00000  Uiso   1.00
S352   S     0.09625   0.61182   0.17709   0.00000  Uiso   1.00
C353   C     0.42111   0.49990   0.25176   0.00000  Uiso   1.00
C354   C     0.37670   0.49925   0.25381   0.00000  Uiso   1.00
C355   C     0.47131   0.35851   0.21724   0.00000  Uiso   1.00
C356   C     0.52917   0.64149   0.28205   0.00000  Uiso   1.00
C357   C     0.52868   0.35852   0.28276   0.00000  Uiso   1.00
C358   C     0.47083   0.64148   0.21795   0.00000  Uiso   1.00
C359   C     0.50048   0.50000   0.16467   0.00000  Uiso   1.00
C360   C     0.49949   0.50000   0.33533   0.00000  Uiso   1.00
C361   C     0.53602   0.50519   0.41447   0.00000  Uiso   1.00
C362   C     0.46388   0.50482   0.08551   0.00000  Uiso   1.00
C363   C     0.49838   0.50020   0.38339   0.00000  Uiso   1.00
C364   C     0.57889   0.49991   0.24821   0.00000  Uiso   1.00
C365   C     0.50156   0.50020   0.11660   0.00000  Uiso   1.00
C366   C     0.46014   0.49792   0.39807   0.00000  Uiso   1.00
C367   C     0.53981   0.49831   0.10192   0.00000  Uiso   1.00
C368   C     0.45994   0.50492   0.44473   0.00000  Uiso   1.00
C369   C     0.53995   0.50533   0.05526   0.00000  Uiso   1.00
C370   C     0.49911   0.50625   0.47636   0.00000  Uiso   1.00
C371   C     0.50077   0.50626   0.02362   0.00000  Uiso   1.00
C372   C     0.53681   0.50670   0.46082   0.00000  Uiso   1.00
C373   C     0.46307   0.50632   0.03916   0.00000  Uiso   1.00
C374   C     0.42244   0.50941   0.46148   0.00000  Uiso   1.00
C375   C     0.42475   0.50893   0.00844   0.00000  Uiso   1.00
C376   C     0.57742   0.51022   0.03850   0.00000  Uiso   1.00
C377   C     0.57511   0.50970   0.49154   0.00000  Uiso   1.00
C378   C     0.35473   0.45695   0.24982   0.00000  Uiso   1.00
C379   C     0.64509   0.54102   0.24434   0.00000  Uiso   1.00
C380   C     0.64523   0.45695   0.25002   0.00000  Uiso   1.00
C381   C     0.35491   0.54101   0.25564   0.00000  Uiso   1.00
C382   C     0.62329   0.49925   0.24612   0.00000  Uiso   1.00
Cu383  Cu    0.50000   0.54689   0.25000   0.00000  Uiso   1.00
Cu384  Cu    0.50000   0.45311   0.25000   0.00000  Uiso   1.00
H385   H     0.56499   0.50692   0.40252   0.00000  Uiso   1.00
H386   H     0.60223   0.57708   0.20651   0.00000  Uiso   1.00
H387   H     0.64416   0.39381   0.27171   0.00000  Uiso   1.00
H388   H     0.39777   0.57702   0.29355   0.00000  Uiso   1.00
H389   H     0.40535   0.45099   0.14225   0.00000  Uiso   1.00
H390   H     0.60171   0.54866   0.34853   0.00000  Uiso   1.00
H391   H     0.59437   0.45109   0.35795   0.00000  Uiso   1.00
H392   H     0.39856   0.54867   0.15091   0.00000  Uiso   1.00
H393   H     0.43490   0.50627   0.09747   0.00000  Uiso   1.00
H394   H     0.39627   0.51077   0.02137   0.00000  Uiso   1.00
H395   H     0.60356   0.51181   0.47861   0.00000  Uiso   1.00
H396   H     0.42969   0.47031   0.34150   0.00000  Uiso   1.00
H397   H     0.57043   0.47079   0.15844   0.00000  Uiso   1.00
H398   H     0.38995   0.58491   0.40060   0.00000  Uiso   1.00
H399   H     0.65025   0.55797   0.13659   0.00000  Uiso   1.00
H400   H     0.35577   0.39384   0.22803   0.00000  Uiso   1.00
N401   N     0.50000   0.61736   0.25000   0.00000  Uiso   1.00
N402   N     0.50000   0.38264   0.25000   0.00000  Uiso   1.00
O403   O     0.43988   0.53958   0.24999   0.00000  Uiso   1.00
O404   O     0.57656   0.48748   0.13192   0.00000  Uiso   1.00
O405   O     0.35426   0.47536   0.40564   0.00000  Uiso   1.00
O406   O     0.34306   0.53971   0.45404   0.00000  Uiso   1.00
O407   O     0.37584   0.55750   0.38472   0.00000  Uiso   1.00
O408   O     0.64576   0.47690   0.09459   0.00000  Uiso   1.00
O409   O     0.65640   0.54139   0.04582   0.00000  Uiso   1.00
O410   O     0.62303   0.55917   0.11476   0.00000  Uiso   1.00
O411   O     0.37542   0.41596   0.24641   0.00000  Uiso   1.00
O412   O     0.62543   0.58264   0.23298   0.00000  Uiso   1.00
O413   O     0.62452   0.41595   0.25335   0.00000  Uiso   1.00
O414   O     0.56012   0.46042   0.25001   0.00000  Uiso   1.00
O415   O     0.37459   0.58262   0.26707   0.00000  Uiso   1.00
O416   O     0.45782   0.38218   0.12882   0.00000  Uiso   1.00
O417   O     0.39454   0.36791   0.15721   0.00000  Uiso   1.00
O418   O     0.42631   0.44468   0.17051   0.00000  Uiso   1.00
O419   O     0.61103   0.62446   0.31017   0.00000  Uiso   1.00
O420   O     0.57015   0.62940   0.36988   0.00000  Uiso   1.00
O421   O     0.57337   0.55467   0.33013   0.00000  Uiso   1.00
O422   O     0.54217   0.38219   0.37118   0.00000  Uiso   1.00
O423   O     0.60546   0.36796   0.34280   0.00000  Uiso   1.00
O424   O     0.57368   0.44470   0.32951   0.00000  Uiso   1.00
O425   O     0.56012   0.53958   0.25001   0.00000  Uiso   1.00
O426   O     0.38897   0.62438   0.18981   0.00000  Uiso   1.00
O427   O     0.42986   0.62939   0.13011   0.00000  Uiso   1.00
O428   O     0.42667   0.55464   0.16987   0.00000  Uiso   1.00
O429   O     0.43988   0.46042   0.25000   0.00000  Uiso   1.00
O430   O     0.49999   0.53960   0.18513   0.00000  Uiso   1.00
O431   O     0.50001   0.46040   0.31487   0.00000  Uiso   1.00
O432   O     0.50001   0.53960   0.31487   0.00000  Uiso   1.00
O433   O     0.49999   0.46040   0.18513   0.00000  Uiso   1.00
O434   O     0.42346   0.48675   0.36810   0.00000  Uiso   1.00
S435   S     0.37227   0.51998   0.42646   0.00000  Uiso   1.00
S436   S     0.62745   0.52133   0.07354   0.00000  Uiso   1.00
S437   S     0.43743   0.38847   0.16888   0.00000  Uiso   1.00
S438   S     0.57042   0.61184   0.32290   0.00000  Uiso   1.00
S439   S     0.56256   0.38849   0.33113   0.00000  Uiso   1.00
S440   S     0.42959   0.61182   0.17709   0.00000  Uiso   1.00
C441   C     0.75444   0.49990   0.25176   0.00000  Uiso   1.00
C442   C     0.71003   0.49925   0.25381   0.00000  Uiso   1.00
C443   C     0.80465   0.35851   0.21724   0.00000  Uiso   1.00
C444   C     0.86251   0.64149   0.28205   0.00000  Uiso   1.00
C445   C     0.86202   0.35852   0.28276   0.00000  Uiso   1.00
C446   C     0.80416   0.64148   0.21795   0.00000  Uiso   1.00
C447   C     0.83381   0.50000   0.16467   0.00000  Uiso   1.00
C448   C     0.83282   0.50000   0.33533   0.00000  Uiso   1.00
C449   C     0.86935   0.50519   0.41447   0.00000  Uiso   1.00
C450   C     0.79721   0.50482   0.08551   0.00000  Uiso   1.00
C451   C     0.83171   0.50020   0.38339   0.00000  Uiso   1.00
C452   C     0.91222   0.49991   0.24821   0.00000  Uiso   1.00
C453   C     0.83489   0.50020   0.11660   0.00000  Uiso   1.00
C454   C     0.79347   0.49792   0.39807   0.00000  Uiso   1.00
C455   C     0.87314   0.49831   0.10192   0.00000  Uiso   1.00
C456   C     0.79327   0.50492   0.44473   0.00000  Uiso   1.00
C457   C     0.87329   0.50533   0.05526   0.00000  Uiso   1.00
C458   C     0.83244   0.50625   0.47636   0.00000  Uiso   1.00
C459   C     0.83410   0.50626   0.02362   0.00000  Uiso   1.00
C460   C     0.87014   0.50670   0.46082   0.00000  Uiso   1.00
C461   C     0.79640   0.50632   0.03916   0.00000  Uiso   1.00
C462   C     0.75577   0.50941   0.46148   0.00000  Uiso   1.00
C463   C     0.75808   0.50893   0.00844   0.00000  Uiso   1.00
C464   C     0.91075   0.51022   0.03850   0.00000  Uiso   1.00
C465   C     0.90844   0.50970   0.49154   0.00000  Uiso   1.00
C466   C     0.68807   0.45695   0.24982   0.00000  Uiso   1.00
C467   C     0.97842   0.54102   0.24434   0.00000  Uiso   1.00
C468   C     0.97856   0.45695   0.25002   0.00000  Uiso   1.00
C469   C     0.68824   0.54101   0.25564   0.00000  Uiso   1.00
C470   C     0.95662   0.49925   0.24612   0.00000  Uiso   1.00
Cu471  Cu    0.83333   0.54689   0.25000   0.00000  Uiso   1.00
Cu472  Cu    0.83333   0.45311   0.25000   0.00000  Uiso   1.00
H473   H     0.89832   0.50692   0.40252   0.00000  Uiso   1.00
H474   H     0.93556   0.57708   0.20651   0.00000  Uiso   1.00
H475   H     0.97749   0.39381   0.27171   0.00000  Uiso   1.00
H476   H     0.73110   0.57702   0.29355   0.00000  Uiso   1.00
H477   H     0.73869   0.45099   0.14225   0.00000  Uiso   1.00
H478   H     0.93505   0.54866   0.34853   0.00000  Uiso   1.00
H479   H     0.92770   0.45109   0.35795   0.00000  Uiso   1.00
H480   H     0.73189   0.54867   0.15091   0.00000  Uiso   1.00
H481   H     0.76823   0.50627   0.09747   0.00000  Uiso   1.00
H482   H     0.72961   0.51077   0.02137   0.00000  Uiso   1.00
H483   H     0.93690   0.51181   0.47861   0.00000  Uiso   1.00
H484   H     0.76303   0.47031   0.34150   0.00000  Uiso   1.00
H485   H     0.90376   0.47079   0.15844   0.00000  Uiso   1.00
H486   H     0.72329   0.58491   0.40060   0.00000  Uiso   1.00
H487   H     0.98358   0.55797   0.13659   0.00000  Uiso   1.00
H488   H     0.68910   0.39384   0.22803   0.00000  Uiso   1.00
N489   N     0.83333   0.61736   0.25000   0.00000  Uiso   1.00
N490   N     0.83333   0.38264   0.25000   0.00000  Uiso   1.00
O491   O     0.77321   0.53958   0.24999   0.00000  Uiso   1.00
O492   O     0.90990   0.48748   0.13192   0.00000  Uiso   1.00
O493   O     0.68760   0.47536   0.40564   0.00000  Uiso   1.00
O494   O     0.67639   0.53971   0.45404   0.00000  Uiso   1.00
O495   O     0.70917   0.55750   0.38472   0.00000  Uiso   1.00
O496   O     0.97910   0.47690   0.09459   0.00000  Uiso   1.00
O497   O     0.98974   0.54139   0.04582   0.00000  Uiso   1.00
O498   O     0.95636   0.55917   0.11476   0.00000  Uiso   1.00
O499   O     0.70876   0.41596   0.24641   0.00000  Uiso   1.00
O500   O     0.95876   0.58264   0.23298   0.00000  Uiso   1.00
O501   O     0.95785   0.41595   0.25335   0.00000  Uiso   1.00
O502   O     0.89345   0.46042   0.25001   0.00000  Uiso   1.00
O503   O     0.70792   0.58262   0.26707   0.00000  Uiso   1.00
O504   O     0.79115   0.38218   0.12882   0.00000  Uiso   1.00
O505   O     0.72787   0.36791   0.15721   0.00000  Uiso   1.00
O506   O     0.75964   0.44468   0.17051   0.00000  Uiso   1.00
O507   O     0.94436   0.62446   0.31017   0.00000  Uiso   1.00
O508   O     0.90348   0.62940   0.36988   0.00000  Uiso   1.00
O509   O     0.90671   0.55467   0.33013   0.00000  Uiso   1.00
O510   O     0.87550   0.38219   0.37118   0.00000  Uiso   1.00
O511   O     0.93880   0.36796   0.34280   0.00000  Uiso   1.00
O512   O     0.90701   0.44470   0.32951   0.00000  Uiso   1.00
O513   O     0.89345   0.53958   0.25001   0.00000  Uiso   1.00
O514   O     0.72230   0.62438   0.18981   0.00000  Uiso   1.00
O515   O     0.76320   0.62939   0.13011   0.00000  Uiso   1.00
O516   O     0.76000   0.55464   0.16987   0.00000  Uiso   1.00
O517   O     0.77321   0.46042   0.25000   0.00000  Uiso   1.00
O518   O     0.83332   0.53960   0.18513   0.00000  Uiso   1.00
O519   O     0.83334   0.46040   0.31487   0.00000  Uiso   1.00
O520   O     0.83334   0.53960   0.31487   0.00000  Uiso   1.00
O521   O     0.83332   0.46040   0.18513   0.00000  Uiso   1.00
O522   O     0.75679   0.48675   0.36810   0.00000  Uiso   1.00
S523   S     0.70560   0.51998   0.42646   0.00000  Uiso   1.00
S524   S     0.96079   0.52133   0.07354   0.00000  Uiso   1.00
S525   S     0.77077   0.38847   0.16888   0.00000  Uiso   1.00
S526   S     0.90375   0.61184   0.32290   0.00000  Uiso   1.00
S527   S     0.89589   0.38849   0.33113   0.00000  Uiso   1.00
S528   S     0.76292   0.61182   0.17709   0.00000  Uiso   1.00
C529   C     0.08777   0.83324   0.25176   0.00000  Uiso   1.00
C530   C     0.04337   0.83258   0.25381   0.00000  Uiso   1.00
C531   C     0.13798   0.69185   0.21724   0.00000  Uiso   1.00
C532   C     0.19584   0.97482   0.28205   0.00000  Uiso   1.00
C533   C     0.19535   0.69186   0.28276   0.00000  Uiso   1.00
C534   C     0.13749   0.97481   0.21795   0.00000  Uiso   1.00
C535   C     0.16714   0.83333   0.16467   0.00000  Uiso   1.00
C536   C     0.16616   0.83333   0.33533   0.00000  Uiso   1.00
C537   C     0.20268   0.83853   0.41447   0.00000  Uiso   1.00
C538   C     0.13054   0.83815   0.08551   0.00000  Uiso   1.00
C539   C     0.16504   0.83354   0.38339   0.00000  Uiso   1.00
C540   C     0.24556   0.83324   0.24821   0.00000  Uiso   1.00
C541   C     0.16823   0.83354   0.11660   0.00000  Uiso   1.00
C542   C     0.12680   0.83125   0.39807   0.00000  Uiso   1.00
C543   C     0.20648   0.83164   0.10192   0.00000  Uiso   1.00
C544   C     0.12661   0.83825   0.44473   0.00000  Uiso   1.00
C545   C     0.20662   0.83866   0.05526   0.00000  Uiso   1.00
C546   C     0.16578   0.83959   0.47636   0.00000  Uiso   1.00
C547   C     0.16744   0.83959   0.02362   0.00000  Uiso   1.00
C548   C     0.20348   0.84003   0.46082   0.00000  Uiso   1.00
C549   C     0.12974   0.83965   0.03916   0.00000  Uiso   1.00
C550   C     0.08910   0.84274   0.46148   0.00000  Uiso   1.00
C551   C     0.09142   0.84226   0.00844   0.00000  Uiso   1.00
C552   C     0.24409   0.84355   0.03850   0.00000  Uiso   1.00
C553   C     0.24177   0.84303   0.49154   0.00000  Uiso   1.00
C554   C     0.02140   0.79028   0.24982   0.00000  Uiso   1.00
C555   C     0.31176   0.87435   0.24434   0.00000  Uiso   1.00
C556   C     0.31190   0.79028   0.25002   0.00000  Uiso   1.00
C557   C     0.02158   0.87434   0.25564   0.00000  Uiso   1.00
C558   C     0.28995   0.83259   0.24612   0.00000  Uiso   1.00
Cu559  Cu    0.16667   0.88022   0.25000   0.00000  Uiso   1.00
Cu560  Cu    0.16667   0.78645   0.25000   0.00000  Uiso   1.00
H561   H     0.23166   0.84026   0.40252   0.00000  Uiso   1.00
H562   H     0.26890   0.91042   0.20651   0.00000  Uiso   1.00
H563   H     0.31083   0.72714   0.27171   0.00000  Uiso   1.00
H564   H     0.06443   0.91035   0.29355   0.00000  Uiso   1.00
H565   H     0.07202   0.78432   0.14225   0.00000  Uiso   1.00
H566   H     0.26838   0.88199   0.34853   0.00000  Uiso   1.00
H567   H     0.26104   0.78442   0.35795   0.00000  Uiso   1.00
H568   H     0.06522   0.88201   0.15091   0.00000  Uiso   1.00
H569   H     0.10156   0.83961   0.09747   0.00000  Uiso   1.00
H570   H     0.06294   0.84411   0.02137   0.00000  Uiso   1.00
H571   H     0.27023   0.84515   0.47861   0.00000  Uiso   1.00
H572   H     0.09636   0.80365   0.34150   0.00000  Uiso   1.00
H573   H     0.23710   0.80413   0.15844   0.00000  Uiso   1.00
H574   H     0.05662   0.91824   0.40060   0.00000  Uiso   1.00
H575   H     0.31692   0.89130   0.13659   0.00000  Uiso   1.00
H576   H     0.02243   0.72717   0.22803   0.00000  Uiso   1.00
N577   N     0.16667   0.95069   0.25000   0.00000  Uiso   1.00
N578   N     0.16667   0.71598   0.25000   0.00000  Uiso   1.00
O579   O     0.10655   0.87291   0.24999   0.00000  Uiso   1.00
O580   O     0.24323   0.82081   0.13192   0.00000  Uiso   1.00
O581   O     0.02093   0.80870   0.40564   0.00000  Uiso   1.00
O582   O     0.00973   0.87305   0.45404   0.00000  Uiso   1.00
O583   O     0.04251   0.89084   0.38472   0.00000  Uiso   1.00
O584   O     0.31243   0.81024   0.09459   0.00000  Uiso   1.00
O585   O     0.32307   0.87472   0.04582   0.00000  Uiso   1.00
O586   O     0.28970   0.89250   0.11476   0.00000  Uiso   1.00
O587   O     0.04209   0.74929   0.24641   0.00000  Uiso   1.00
O588   O     0.29210   0.91597   0.23298   0.00000  Uiso   1.00
O589   O     0.29119   0.74928   0.25335   0.00000  Uiso   1.00
O590   O     0.22679   0.79375   0.25001   0.00000  Uiso   1.00
O591   O     0.04126   0.91595   0.26707   0.00000  Uiso   1.00
O592   O     0.12448   0.71551   0.12882   0.00000  Uiso   1.00
O593   O     0.06120   0.70125   0.15721   0.00000  Uiso   1.00
O594   O     0.09298   0.77801   0.17051   0.00000  Uiso   1.00
O595   O     0.27769   0.95779   0.31017   0.00000  Uiso   1.00
O596   O     0.23682   0.96273   0.36988   0.00000  Uiso   1.00
O597   O     0.24004   0.88800   0.33013   0.00000  Uiso   1.00
O598   O     0.20884   0.71552   0.37118   0.00000  Uiso   1.00
O599   O     0.27213   0.70130   0.34280   0.00000  Uiso   1.00
O600   O     0.24035   0.77803   0.32951   0.00000  Uiso   1.00
O601   O     0.22679   0.87291   0.25001   0.00000  Uiso   1.00
O602   O     0.05564   0.95772   0.18981   0.00000  Uiso   1.00
O603   O     0.09653   0.96272   0.13011   0.00000  Uiso   1.00
O604   O     0.09333   0.88798   0.16987   0.00000  Uiso   1.00
O605   O     0.10655   0.79375   0.25000   0.00000  Uiso   1.00
O606   O     0.16666   0.87293   0.18513   0.00000  Uiso   1.00
O607   O     0.16668   0.79373   0.31487   0.00000  Uiso   1.00
O608   O     0.16668   0.87293   0.31487   0.00000  Uiso   1.00
O609   O     0.16666   0.79373   0.18513   0.00000  Uiso   1.00
O610   O     0.09012   0.82009   0.36810   0.00000  Uiso   1.00
S611   S     0.03893   0.85331   0.42646   0.00000  Uiso   1.00
S612   S     0.29412   0.85466   0.07354   0.00000  Uiso   1.00
S613   S     0.10410   0.72180   0.16888   0.00000  Uiso   1.00
S614   S     0.23709   0.94517   0.32290   0.00000  Uiso   1.00
S615   S     0.22923   0.72182   0.33113   0.00000  Uiso   1.00
S616   S     0.09625   0.94515   0.17709   0.00000  Uiso   1.00
C617   C     0.42111   0.83324   0.25176   0.00000  Uiso   1.00
C618   C     0.37670   0.83258   0.25381   0.00000  Uiso   1.00
C619   C     0.47131   0.69185   0.21724   0.00000  Uiso   1.00
C620   C     0.52917   0.97482   0.28205   0.00000  Uiso   1.00
C621   C     0.52868   0.69186   0.28276   0.00000  Uiso   1.00
C622   C     0.47083   0.97481   0.21795   0.00000  Uiso   1.00
C623   C     0.50048   0.83333   0.16467   0.00000  Uiso   1.00
C624   C     0.49949   0.83333   0.33533   0.00000  Uiso   1.00
C625   C     0.53602   0.83853   0.41447   0.00000  Uiso   1.00
C626   C     0.46388   0.83815   0.08551   0.00000  Uiso   1.00
C627   C     0.49838   0.83354   0.38339   0.00000  Uiso   1.00
C628   C     0.57889   0.83324   0.24821   0.00000  Uiso   1.00
C629   C     0.50156   0.83354   0.11660   0.00000  Uiso   1.00
C630   C     0.46014   0.83125   0.39807   0.00000  Uiso   1.00
C631   C     0.53981   0.83164   0.10192   0.00000  Uiso   1.00
C632   C     0.45994   0.83825   0.44473   0.00000  Uiso   1.00
C633   C     0.53995   0.83866   0.05526   0.00000  Uiso   1.00
C634   C     0.49911   0.83959   0.47636   0.00000  Uiso   1.00
C635   C     0.50077   0.83959   0.02362   0.00000  Uiso   1.00
C636   C     0.53681   0.84003   0.46082   0.00000  Uiso   1.00
C637   C     0.46307   0.83965   0.03916   0.00000  Uiso   1.00
C638   C     0.42244   0.84274   0.46148   0.00000  Uiso   1.00
C639   C     0.42475   0.84226   0.00844   0.00000  Uiso   1.00
C640   C     0.57742   0.84355   0.03850   0.00000  Uiso   1.00
C641   C     0.57511   0.84303   0.49154   0.00000  Uiso   1.00
C642   C     0.35473   0.79028   0.24982   0.00000  Uiso   1.00
C643   C     0.64509   0.87435   0.24434   0.00000  Uiso   1.00
C644   C     0.64523   0.79028   0.25002   0.00000  Uiso   1.00
C645   C     0.35491   0.87434   0.25564   0.00000  Uiso   1.00
C646   C     0.62329   0.83259   0.24612   0.00000  Uiso   1.00
Cu647  Cu    0.50000   0.88022   0.25000   0.00000  Uiso   1.00
Cu648  Cu    0.50000   0.78645   0.25000   0.00000  Uiso   1.00
H649   H     0.56499   0.84026   0.40252   0.00000  Uiso   1.00
H650   H     0.60223   0.91042   0.20651   0.00000  Uiso   1.00
H651   H     0.64416   0.72714   0.27171   0.00000  Uiso   1.00
H652   H     0.39777   0.91035   0.29355   0.00000  Uiso   1.00
H653   H     0.40535   0.78432   0.14225   0.00000  Uiso   1.00
H654   H     0.60171   0.88199   0.34853   0.00000  Uiso   1.00
H655   H     0.59437   0.78442   0.35795   0.00000  Uiso   1.00
H656   H     0.39856   0.88201   0.15091   0.00000  Uiso   1.00
H657   H     0.43490   0.83961   0.09747   0.00000  Uiso   1.00
H658   H     0.39627   0.84411   0.02137   0.00000  Uiso   1.00
H659   H     0.60356   0.84515   0.47861   0.00000  Uiso   1.00
H660   H     0.42969   0.80365   0.34150   0.00000  Uiso   1.00
H661   H     0.57043   0.80413   0.15844   0.00000  Uiso   1.00
H662   H     0.38995   0.91824   0.40060   0.00000  Uiso   1.00
H663   H     0.65025   0.89130   0.13659   0.00000  Uiso   1.00
H664   H     0.35577   0.72717   0.22803   0.00000  Uiso   1.00
N665   N     0.50000   0.95069   0.25000   0.00000  Uiso   1.00
N666   N     0.50000   0.71598   0.25000   0.00000  Uiso   1.00
O667   O     0.43988   0.87291   0.24999   0.00000  Uiso   1.00
O668   O     0.57656   0.82081   0.13192   0.00000  Uiso   1.00
O669   O     0.35426   0.80870   0.40564   0.00000  Uiso   1.00
O670   O     0.34306   0.87305   0.45404   0.00000  Uiso   1.00
O671   O     0.37584   0.89084   0.38472   0.00000  Uiso   1.00
O672   O     0.64576   0.81024   0.09459   0.00000  Uiso   1.00
O673   O     0.65640   0.87472   0.04582   0.00000  Uiso   1.00
O674   O     0.62303   0.89250   0.11476   0.00000  Uiso   1.00
O675   O     0.37542   0.74929   0.24641   0.00000  Uiso   1.00
O676   O     0.62543   0.91597   0.23298   0.00000  Uiso   1.00
O677   O     0.62452   0.74928   0.25335   0.00000  Uiso   1.00
O678   O     0.56012   0.79375   0.25001   0.00000  Uiso   1.00
O679   O     0.37459   0.91595   0.26707   0.00000  Uiso   1.00
O680   O     0.45782   0.71551   0.12882   0.00000  Uiso   1.00
O681   O     0.39454   0.70125   0.15721   0.00000  Uiso   1.00
O682   O     0.42631   0.77801   0.17051   0.00000  Uiso   1.00
O683   O     0.61103   0.95779   0.31017   0.00000  Uiso   1.00
O684   O     0.57015   0.96273   0.36988   0.00000  Uiso   1.00
O685   O     0.57337   0.88800   0.33013   0.00000  Uiso   1.00
O686   O     0.54217   0.71552   0.37118   0.00000  Uiso   1.00
O687   O     0.60546   0.70130   0.34280   0.00000  Uiso   1.00
O688   O     0.57368   0.77803   0.32951   0.00000  Uiso   1.00
O689   O     0.56012   0.87291   0.25001   0.00000  Uiso   1.00
O690   O     0.38897   0.95772   0.18981   0.00000  Uiso   1.00
O691   O     0.42986   0.96272   0.13011   0.00000  Uiso   1.00
O692   O     0.42667   0.88798   0.16987   0.00000  Uiso   1.00
O693   O     0.43988   0.79375   0.25000   0.00000  Uiso   1.00
O694   O     0.49999   0.87293   0.18513   0.00000  Uiso   1.00
O695   O     0.50001   0.79373   0.31487   0.00000  Uiso   1.00
O696   O     0.50001   0.87293   0.31487   0.00000  Uiso   1.00
O697   O     0.49999   0.79373   0.18513   0.00000  Uiso   1.00
O698   O     0.42346   0.82009   0.36810   0.00000  Uiso   1.00
S699   S     0.37227   0.85331   0.42646   0.00000  Uiso   1.00
S700   S     0.62745   0.85466   0.07354   0.00000  Uiso   1.00
S701   S     0.43743   0.72180   0.16888   0.00000  Uiso   1.00
S702   S     0.57042   0.94517   0.32290   0.00000  Uiso   1.00
S703   S     0.56256   0.72182   0.33113   0.00000  Uiso   1.00
S704   S     0.42959   0.94515   0.17709   0.00000  Uiso   1.00
C705   C     0.75444   0.83324   0.25176   0.00000  Uiso   1.00
C706   C     0.71003   0.83258   0.25381   0.00000  Uiso   1.00
C707   C     0.80465   0.69185   0.21724   0.00000  Uiso   1.00
C708   C     0.86251   0.97482   0.28205   0.00000  Uiso   1.00
C709   C     0.86202   0.69186   0.28276   0.00000  Uiso   1.00
C710   C     0.80416   0.97481   0.21795   0.00000  Uiso   1.00
C711   C     0.83381   0.83333   0.16467   0.00000  Uiso   1.00
C712   C     0.83282   0.83333   0.33533   0.00000  Uiso   1.00
C713   C     0.86935   0.83853   0.41447   0.00000  Uiso   1.00
C714   C     0.79721   0.83815   0.08551   0.00000  Uiso   1.00
C715   C     0.83171   0.83354   0.38339   0.00000  Uiso   1.00
C716   C     0.91222   0.83324   0.24821   0.00000  Uiso   1.00
C717   C     0.83489   0.83354   0.11660   0.00000  Uiso   1.00
C718   C     0.79347   0.83125   0.39807   0.00000  Uiso   1.00
C719   C     0.87314   0.83164   0.10192   0.00000  Uiso   1.00
C720   C     0.79327   0.83825   0.44473   0.00000  Uiso   1.00
C721   C     0.87329   0.83866   0.05526   0.00000  Uiso   1.00
C722   C     0.83244   0.83959   0.47636   0.00000  Uiso   1.00
C723   C     0.83410   0.83959   0.02362   0.00000  Uiso   1.00
C724   C     0.87014   0.84003   0.46082   0.00000  Uiso   1.00
C725   C     0.79640   0.83965   0.03916   0.00000  Uiso   1.00
C726   C     0.75577   0.84274   0.46148   0.00000  Uiso   1.00
C727   C     0.75808   0.84226   0.00844   0.00000  Uiso   1.00
C728   C     0.91075   0.84355   0.03850   0.00000  Uiso   1.00
C729   C     0.90844   0.84303   0.49154   0.00000  Uiso   1.00
C730   C     0.68807   0.79028   0.24982   0.00000  Uiso   1.00
C731   C     0.97842   0.87435   0.24434   0.00000  Uiso   1.00
C732   C     0.97856   0.79028   0.25002   0.00000  Uiso   1.00
C733   C     0.68824   0.87434   0.25564   0.00000  Uiso   1.00
C734   C     0.95662   0.83259   0.24612   0.00000  Uiso   1.00
Cu735  Cu    0.83333   0.88022   0.25000   0.00000  Uiso   1.00
Cu736  Cu    0.83333   0.78645   0.25000   0.00000  Uiso   1.00
H737   H     0.89832   0.84026   0.40252   0.00000  Uiso   1.00
H738   H     0.93556   0.91042   0.20651   0.00000  Uiso   1.00
H739   H     0.97749   0.72714   0.27171   0.00000  Uiso   1.00
H740   H     0.73110   0.91035   0.29355   0.00000  Uiso   1.00
H741   H     0.73869   0.78432   0.14225   0.00000  Uiso   1.00
H742   H     0.93505   0.88199   0.34853   0.00000  Uiso   1.00
H743   H     0.92770   0.78442   0.35795   0.00000  Uiso   1.00
H744   H     0.73189   0.88201   0.15091   0.00000  Uiso   1.00
H745   H     0.76823   0.83961   0.09747   0.00000  Uiso   1.00
H746   H     0.72961   0.84411   0.02137   0.00000  Uiso   1.00
H747   H     0.93690   0.84515   0.47861   0.00000  Uiso   1.00
H748   H     0.76303   0.80365   0.34150   0.00000  Uiso   1.00
H749   H     0.90376   0.80413   0.15844   0.00000  Uiso   1.00
H750   H     0.72329   0.91824   0.40060   0.00000  Uiso   1.00
H751   H     0.98358   0.89130   0.13659   0.00000  Uiso   1.00
H752   H     0.68910   0.72717   0.22803   0.00000  Uiso   1.00
N753   N     0.83333   0.95069   0.25000   0.00000  Uiso   1.00
N754   N     0.83333   0.71598   0.25000   0.00000  Uiso   1.00
O755   O     0.77321   0.87291   0.24999   0.00000  Uiso   1.00
O756   O     0.90990   0.82081   0.13192   0.00000  Uiso   1.00
O757   O     0.68760   0.80870   0.40564   0.00000  Uiso   1.00
O758   O     0.67639   0.87305   0.45404   0.00000  Uiso   1.00
O759   O     0.70917   0.89084   0.38472   0.00000  Uiso   1.00
O760   O     0.97910   0.81024   0.09459   0.00000  Uiso   1.00
O761   O     0.98974   0.87472   0.04582   0.00000  Uiso   1.00
O762   O     0.95636   0.89250   0.11476   0.00000  Uiso   1.00
O763   O     0.70876   0.74929   0.24641   0.00000  Uiso   1.00
O764   O     0.95876   0.91597   0.23298   0.00000  Uiso   1.00
O765   O     0.95785   0.74928   0.25335   0.00000  Uiso   1.00
O766   O     0.89345   0.79375   0.25001   0.00000  Uiso   1.00
O767   O     0.70792   0.91595   0.26707   0.00000  Uiso   1.00
O768   O     0.79115   0.71551   0.12882   0.00000  Uiso   1.00
O769   O     0.72787   0.70125   0.15721   0.00000  Uiso   1.00
O770   O     0.75964   0.77801   0.17051   0.00000  Uiso   1.00
O771   O     0.94436   0.95779   0.31017   0.00000  Uiso   1.00
O772   O     0.90348   0.96273   0.36988   0.00000  Uiso   1.00
O773   O     0.90671   0.88800   0.33013   0.00000  Uiso   1.00
O774   O     0.87550   0.71552   0.37118   0.00000  Uiso   1.00
O775   O     0.93880   0.70130   0.34280   0.00000  Uiso   1.00
O776   O     0.90701   0.77803   0.32951   0.00000  Uiso   1.00
O777   O     0.89345   0.87291   0.25001   0.00000  Uiso   1.00
O778   O     0.72230   0.95772   0.18981   0.00000  Uiso   1.00
O779   O     0.76320   0.96272   0.13011   0.00000  Uiso   1.00
O780   O     0.76000   0.88798   0.16987   0.00000  Uiso   1.00
O781   O     0.77321   0.79375   0.25000   0.00000  Uiso   1.00
O782   O     0.83332   0.87293   0.18513   0.00000  Uiso   1.00
O783   O     0.83334   0.79373   0.31487   0.00000  Uiso   1.00
O784   O     0.83334   0.87293   0.31487   0.00000  Uiso   1.00
O785   O     0.83332   0.79373   0.18513   0.00000  Uiso   1.00
O786   O     0.75679   0.82009   0.36810   0.00000  Uiso   1.00
S787   S     0.70560   0.85331   0.42646   0.00000  Uiso   1.00
S788   S     0.96079   0.85466   0.07354   0.00000  Uiso   1.00
S789   S     0.77077   0.72180   0.16888   0.00000  Uiso   1.00
S790   S     0.90375   0.94517   0.32290   0.00000  Uiso   1.00
S791   S     0.89589   0.72182   0.33113   0.00000  Uiso   1.00
S792   S     0.76292   0.94515   0.17709   0.00000  Uiso   1.00
C793   C     0.08777   0.16657   0.75176   0.00000  Uiso   1.00
C794   C     0.04337   0.16591   0.75381   0.00000  Uiso   1.00
C795   C     0.13798   0.02518   0.71724   0.00000  Uiso   1.00
C796   C     0.19584   0.30815   0.78205   0.00000  Uiso   1.00
C797   C     0.19535   0.02519   0.78276   0.00000  Uiso   1.00
C798   C     0.13749   0.30815   0.71795   0.00000  Uiso   1.00
C799   C     0.16714   0.16667   0.66467   0.00000  Uiso   1.00
C800   C     0.16616   0.16667   0.83533   0.00000  Uiso   1.00
C801   C     0.20268   0.17186   0.91447   0.00000  Uiso   1.00
C802   C     0.13054   0.17149   0.58551   0.00000  Uiso   1.00
C803   C     0.16504   0.16687   0.88339   0.00000  Uiso   1.00
C804   C     0.24556   0.16657   0.74821   0.00000  Uiso   1.00
C805   C     0.16823   0.16687   0.61660   0.00000  Uiso   1.00
C806   C     0.12680   0.16458   0.89807   0.00000  Uiso   1.00
C807   C     0.20648   0.16497   0.60192   0.00000  Uiso   1.00
C808   C     0.12661   0.17158   0.94473   0.00000  Uiso   1.00
C809   C     0.20662   0.17200   0.55526   0.00000  Uiso   1.00
C810   C     0.16578   0.17292   0.97636   0.00000  Uiso   1.00
C811   C     0.16744   0.17293   0.52362   0.00000  Uiso   1.00
C812   C     0.20348   0.17336   0.96082   0.00000  Uiso   1.00
C813   C     0.12974   0.17298   0.53916   0.00000  Uiso   1.00
C814   C     0.08910   0.17607   0.96148   0.00000  Uiso   1.00
C815   C     0.09142   0.17559   0.50844   0.00000  Uiso   1.00
C816   C     0.24409   0.17689   0.53850   0.00000  Uiso   1.00
C817   C     0.24177   0.17636   0.99154   0.00000  Uiso   1.00
C818   C     0.02140   0.12361   0.74982   0.00000  Uiso   1.00
C819   C     0.31176   0.20768   0.74434   0.00000  Uiso   1.00
C820   C     0.31190   0.12361   0.75002   0.00000  Uiso   1.00
C821   C     0.02158   0.20767   0.75564   0.00000  Uiso   1.00
C822   C     0.28995   0.16592   0.74612   0.00000  Uiso   1.00
Cu823  Cu    0.16667   0.21355   0.75000   0.00000  Uiso   1.00
Cu824  Cu    0.16667   0.11978   0.75000   0.00000  Uiso   1.00
H825   H     0.23166   0.17359   0.90252   0.00000  Uiso   1.00
H826   H     0.26890   0.24375   0.70651   0.00000  Uiso   1.00
H827   H     0.31083   0.06047   0.77171   0.00000  Uiso   1.00
H828   H     0.06443   0.24369   0.79355   0.00000  Uiso   1.00
H829   H     0.07202   0.11766   0.64225   0.00000  Uiso   1.00
H830   H     0.26838   0.21533   0.84853   0.00000  Uiso   1.00
H831   H     0.26104   0.11775   0.85795   0.00000  Uiso   1.00
H832   H     0.06522   0.21534   0.65091   0.00000  Uiso   1.00
H833   H     0.10156   0.17294   0.59747   0.00000  Uiso   1.00
H834   H     0.06294   0.17744   0.52137   0.00000  Uiso   1.00
H835   H     0.27023   0.17848   0.97861   0.00000  Uiso   1.00
H836   H     0.09636   0.13698   0.84150   0.00000  Uiso   1.00
H837   H     0.23710   0.13746   0.65844   0.00000  Uiso   1.00
H838   H     0.05662   0.25158   0.90060   0.00000  Uiso   1.00
H839   H     0.31692   0.22463   0.63659   0.00000  Uiso   1.00
H840   H     0.02243   0.06051   0.72803   0.00000  Uiso   1.00
N841   N     0.16667   0.28402   0.75000   0.00000  Uiso   1.00
N842   N     0.16667   0.04931   0.75000   0.00000  Uiso   1.00
O843   O     0.10655   0.20625   0.74999   0.00000  Uiso   1.00
O844   O     0.24323   0.15414   0.63192   0.00000  Uiso   1.00
O845   O     0.02093   0.14203   0.90564   0.00000  Uiso   1.00
O846   O     0.00973   0.20638   0.95404   0.00000  Uiso   1.00
O847   O     0.04251   0.22417   0.88472   0.00000  Uiso   1.00
O848   O     0.31243   0.14357   0.59459   0.00000  Uiso   1.00
O849   O     0.32307   0.20805   0.54582   0.00000  Uiso   1.00
O850   O     0.28970   0.22584   0.61476   0.00000  Uiso   1.00
O851   O     0.04209   0.08262   0.74641   0.00000  Uiso   1.00
O852   O     0.29210   0.24931   0.73298   0.00000  Uiso   1.00
O853   O     0.29119   0.08261   0.75335   0.00000  Uiso   1.00
O854   O     0.22679   0.12709   0.75001   0.00000  Uiso   1.00
O855   O     0.04126   0.24928   0.76707   0.00000  Uiso   1.00
O856   O     0.12448   0.04885   0.62882   0.00000  Uiso   1.00
O857   O     0.06120   0.03458   0.65721   0.00000  Uiso   1.00
O858   O     0.09298   0.11134   0.67051   0.00000  Uiso   1.00
O859   O     0.27769   0.29112   0.81017   0.00000  Uiso   1.00
O860   O     0.23682   0.29607   0.86988   0.00000  Uiso   1.00
O861   O     0.24004   0.22134   0.83013   0.00000  Uiso   1.00
O862   O     0.20884   0.04885   0.87118   0.00000  Uiso   1.00
O863   O     0.27213   0.03463   0.84280   0.00000  Uiso   1.00
O864   O     0.24035   0.11137   0.82951   0.00000  Uiso   1.00
O865   O     0.22679   0.20625   0.75001   0.00000  Uiso   1.00
O866   O     0.05564   0.29105   0.68981   0.00000  Uiso   1.00
O867   O     0.09653   0.29605   0.63011   0.00000  Uiso   1.00
O868   O     0.09333   0.22131   0.66987   0.00000  Uiso   1.00
O869   O     0.10655   0.12709   0.75000   0.00000  Uiso   1.00
O870   O     0.16666   0.20627   0.68513   0.00000  Uiso   1.00
O871   O     0.16668   0.12707   0.81487   0.00000  Uiso   1.00
O872   O     0.16668   0.20627   0.81487   0.00000  Uiso   1.00
O873   O     0.16666   0.12707   0.68513   0.00000  Uiso   1.00
O874   O     0.09012   0.15342   0.86810   0.00000  Uiso   1.00
S875   S     0.03893   0.18665   0.92646   0.00000  Uiso   1.00
S876   S     0.29412   0.18799   0.57354   0.00000  Uiso   1.00
S877   S     0.10410   0.05514   0.66888   0.00000  Uiso   1.00
S878   S     0.23709   0.27851   0.82290   0.00000  Uiso   1.00
S879   S     0.22923   0.05516   0.83113   0.00000  Uiso   1.00
S880   S     0.09625   0.27848   0.67709   0.00000  Uiso   1.00
C881   C     0.42111   0.16657   0.75176   0.00000  Uiso   1.00
C882   C     0.37670   0.16591   0.75381   0.00000  Uiso   1.00
C883   C     0.47131   0.02518   0.71724   0.00000  Uiso   1.00
C884   C     0.52917   0.30815   0.78205   0.00000  Uiso   1.00
C885   C     0.52868   0.02519   0.78276   0.00000  Uiso   1.00
C886   C     0.47083   0.30815   0.71795   0.00000  Uiso   1.00
C887   C     0.50048   0.16667   0.66467   0.00000  Uiso   1.00
C888   C     0.49949   0.16667   0.83533   0.00000  Uiso   1.00
C889   C     0.53602   0.17186   0.91447   0.00000  Uiso   1.00
C890   C     0.46388   0.17149   0.58551   0.00000  Uiso   1.00
C891   C     0.49838   0.16687   0.88339   0.00000  Uiso   1.00
C892   C     0.57889   0.16657   0.74821   0.00000  Uiso   1.00
C893   C     0.50156   0.16687   0.61660   0.00000  Uiso   1.00
C894   C     0.46014   0.16458   0.89807   0.00000  Uiso   1.00
C895   C     0.53981   0.16497   0.60192   0.00000  Uiso   1.00
C896   C     0.45994   0.17158   0.94473   0.00000  Uiso   1.00
C897   C     0.53995   0.17200   0.55526   0.00000  Uiso   1.00
C898   C     0.49911   0.17292   0.97636   0.00000  Uiso   1.00
C899   C     0.50077   0.17293   0.52362   0.00000  Uiso   1.00
C900   C     0.53681   0.17336   0.96082   0.00000  Uiso   1.00
C901   C     0.46307   0.17298   0.53916   0.00000  Uiso   1.00
C902   C     0.42244   0.17607   0.96148   0.00000  Uiso   1.00
C903   C     0.42475   0.17559   0.50844   0.00000  Uiso   1.00
C904   C     0.57742   0.17689   0.53850   0.00000  Uiso   1.00
C905   C     0.57511   0.17636   0.99154   0.00000  Uiso   1.00
C906   C     0.35473   0.12361   0.74982   0.00000  Uiso   1.00
C907   C     0.64509   0.20768   0.74434   0.00000  Uiso   1.00
C908   C     0.64523   0.12361   0.75002   0.00000  Uiso   1.00
C909   C     0.35491   0.20767   0.75564   0.00000  Uiso   1.00
C910   C     0.62329   0.16592   0.74612   0.00000  Uiso   1.00
Cu911  Cu    0.50000   0.21355   0.75000   0.00000  Uiso   1.00
Cu912  Cu    0.50000   0.11978   0.75000   0.00000  Uiso   1.00
H913   H     0.56499   0.17359   0.90252   0.00000  Uiso   1.00
H914   H     0.60223   0.24375   0.70651   0.00000  Uiso   1.00
H915   H     0.64416   0.06047   0.77171   0.00000  Uiso   1.00
H916   H     0.39777   0.24369   0.79355   0.00000  Uiso   1.00
H917   H     0.40535   0.11766   0.64225   0.00000  Uiso   1.00
H918   H     0.60171   0.21533   0.84853   0.00000  Uiso   1.00
H919   H     0.59437   0.11775   0.85795   0.00000  Uiso   1.00
H920   H     0.39856   0.21534   0.65091   0.00000  Uiso   1.00
H921   H     0.43490   0.17294   0.59747   0.00000  Uiso   1.00
H922   H     0.39627   0.17744   0.52137   0.00000  Uiso   1.00
H923   H     0.60356   0.17848   0.97861   0.00000  Uiso   1.00
H924   H     0.42969   0.13698   0.84150   0.00000  Uiso   1.00
H925   H     0.57043   0.13746   0.65844   0.00000  Uiso   1.00
H926   H     0.38995   0.25158   0.90060   0.00000  Uiso   1.00
H927   H     0.65025   0.22463   0.63659   0.00000  Uiso   1.00
H928   H     0.35577   0.06051   0.72803   0.00000  Uiso   1.00
N929   N     0.50000   0.28402   0.75000   0.00000  Uiso   1.00
N930   N     0.50000   0.04931   0.75000   0.00000  Uiso   1.00
O931   O     0.43988   0.20625   0.74999   0.00000  Uiso   1.00
O932   O     0.57656   0.15414   0.63192   0.00000  Uiso   1.00
O933   O     0.35426   0.14203   0.90564   0.00000  Uiso   1.00
O934   O     0.34306   0.20638   0.95404   0.00000  Uiso   1.00
O935   O     0.37584   0.22417   0.88472   0.00000  Uiso   1.00
O936   O     0.64576   0.14357   0.59459   0.00000  Uiso   1.00
O937   O     0.65640   0.20805   0.54582   0.00000  Uiso   1.00
O938   O     0.62303   0.22584   0.61476   0.00000  Uiso   1.00
O939   O     0.37542   0.08262   0.74641   0.00000  Uiso   1.00
O940   O     0.62543   0.24931   0.73298   0.00000  Uiso   1.00
O941   O     0.62452   0.08261   0.75335   0.00000  Uiso   1.00
O942   O     0.56012   0.12709   0.75001   0.00000  Uiso   1.00
O943   O     0.37459   0.24928   0.76707   0.00000  Uiso   1.00
O944   O     0.45782   0.04885   0.62882   0.00000  Uiso   1.00
O945   O     0.39454   0.03458   0.65721   0.00000  Uiso   1.00
O946   O     0.42631   0.11134   0.67051   0.00000  Uiso   1.00
O947   O     0.61103   0.29112   0.81017   0.00000  Uiso   1.00
O948   O     0.57015   0.29607   0.86988   0.00000  Uiso   1.00
O949   O     0.57337   0.22134   0.83013   0.00000  Uiso   1.00
O950   O     0.54217   0.04885   0.87118   0.00000  Uiso   1.00
O951   O     0.60546   0.03463   0.84280   0.00000  Uiso   1.00
O952   O     0.57368   0.11137   0.82951   0.00000  Uiso   1.00
O953   O     0.56012   0.20625   0.75001   0.00000  Uiso   1.00
O954   O     0.38897   0.29105   0.68981   0.00000  Uiso   1.00
O955   O     0.42986   0.29605   0.63011   0.00000  Uiso   1.00
O956   O     0.42667   0.22131   0.66987   0.00000  Uiso   1.00
O957   O     0.43988   0.12709   0.75000   0.00000  Uiso   1.00
O958   O     0.49999   0.20627   0.68513   0.00000  Uiso   1.00
O959   O     0.50001   0.12707   0.81487   0.00000  Uiso   1.00
O960   O     0.50001   0.20627   0.81487   0.00000  Uiso   1.00
O961   O     0.49999   0.12707   0.68513   0.00000  Uiso   1.00
O962   O     0.42346   0.15342   0.86810   0.00000  Uiso   1.00
S963   S     0.37227   0.18665   0.92646   0.00000  Uiso   1.00
S964   S     0.62745   0.18799   0.57354   0.00000  Uiso   1.00
S965   S     0.43743   0.05514   0.66888   0.00000  Uiso   1.00
S966   S     0.57042   0.27851   0.82290   0.00000  Uiso   1.00
S967   S     0.56256   0.05516   0.83113   0.00000  Uiso   1.00
S968   S     0.42959   0.27848   0.67709   0.00000  Uiso   1.00
C969   C     0.75444   0.16657   0.75176   0.00000  Uiso   1.00
C970   C     0.71003   0.16591   0.75381   0.00000  Uiso   1.00
C971   C     0.80465   0.02518   0.71724   0.00000  Uiso   1.00
C972   C     0.86251   0.30815   0.78205   0.00000  Uiso   1.00
C973   C     0.86202   0.02519   0.78276   0.00000  Uiso   1.00
C974   C     0.80416   0.30815   0.71795   0.00000  Uiso   1.00
C975   C     0.83381   0.16667   0.66467   0.00000  Uiso   1.00
C976   C     0.83282   0.16667   0.83533   0.00000  Uiso   1.00
C977   C     0.86935   0.17186   0.91447   0.00000  Uiso   1.00
C978   C     0.79721   0.17149   0.58551   0.00000  Uiso   1.00
C979   C     0.83171   0.16687   0.88339   0.00000  Uiso   1.00
C980   C     0.91222   0.16657   0.74821   0.00000  Uiso   1.00
C981   C     0.83489   0.16687   0.61660   0.00000  Uiso   1.00
C982   C     0.79347   0.16458   0.89807   0.00000  Uiso   1.00
C983   C     0.87314   0.16497   0.60192   0.00000  Uiso   1.00
C984   C     0.79327   0.17158   0.94473   0.00000  Uiso   1.00
C985   C     0.87329   0.17200   0.55526   0.00000  Uiso   1.00
C986   C     0.83244   0.17292   0.97636   0.00000  Uiso   1.00
C987   C     0.83410   0.17293   0.52362   0.00000  Uiso   1.00
C988   C     0.87014   0.17336   0.96082   0.00000  Uiso   1.00
C989   C     0.79640   0.17298   0.53916   0.00000  Uiso   1.00
C990   C     0.75577   0.17607   0.96148   0.00000  Uiso   1.00
C991   C     0.75808   0.17559   0.50844   0.00000  Uiso   1.00
C992   C     0.91075   0.17689   0.53850   0.00000  Uiso   1.00
C993   C     0.90844   0.17636   0.99154   0.00000  Uiso   1.00
C994   C     0.68807   0.12361   0.74982   0.00000  Uiso   1.00
C995   C     0.97842   0.20768   0.74434   0.00000  Uiso   1.00
C996   C     0.97856   0.12361   0.75002   0.00000  Uiso   1.00
C997   C     0.68824   0.20767   0.75564   0.00000  Uiso   1.00
C998   C     0.95662   0.16592   0.74612   0.00000  Uiso   1.00
Cu999  Cu    0.83333   0.21355   0.75000   0.00000  Uiso   1.00
Cu1000 Cu    0.83333   0.11978   0.75000   0.00000  Uiso   1.00
H1001  H     0.89832   0.17359   0.90252   0.00000  Uiso   1.00
H1002  H     0.93556   0.24375   0.70651   0.00000  Uiso   1.00
H1003  H     0.97749   0.06047   0.77171   0.00000  Uiso   1.00
H1004  H     0.73110   0.24369   0.79355   0.00000  Uiso   1.00
H1005  H     0.73869   0.11766   0.64225   0.00000  Uiso   1.00
H1006  H     0.93505   0.21533   0.84853   0.00000  Uiso   1.00
H1007  H     0.92770   0.11775   0.85795   0.00000  Uiso   1.00
H1008  H     0.73189   0.21534   0.65091   0.00000  Uiso   1.00
H1009  H     0.76823   0.17294   0.59747   0.00000  Uiso   1.00
H1010  H     0.72961   0.17744   0.52137   0.00000  Uiso   1.00
H1011  H     0.93690   0.17848   0.97861   0.00000  Uiso   1.00
H1012  H     0.76303   0.13698   0.84150   0.00000  Uiso   1.00
H1013  H     0.90376   0.13746   0.65844   0.00000  Uiso   1.00
H1014  H     0.72329   0.25158   0.90060   0.00000  Uiso   1.00
H1015  H     0.98358   0.22463   0.63659   0.00000  Uiso   1.00
H1016  H     0.68910   0.06051   0.72803   0.00000  Uiso   1.00
N1017  N     0.83333   0.28402   0.75000   0.00000  Uiso   1.00
N1018  N     0.83333   0.04931   0.75000   0.00000  Uiso   1.00
O1019  O     0.77321   0.20625   0.74999   0.00000  Uiso   1.00
O1020  O     0.90990   0.15414   0.63192   0.00000  Uiso   1.00
O1021  O     0.68760   0.14203   0.90564   0.00000  Uiso   1.00
O1022  O     0.67639   0.20638   0.95404   0.00000  Uiso   1.00
O1023  O     0.70917   0.22417   0.88472   0.00000  Uiso   1.00
O1024  O     0.97910   0.14357   0.59459   0.00000  Uiso   1.00
O1025  O     0.98974   0.20805   0.54582   0.00000  Uiso   1.00
O1026  O     0.95636   0.22584   0.61476   0.00000  Uiso   1.00
O1027  O     0.70876   0.08262   0.74641   0.00000  Uiso   1.00
O1028  O     0.95876   0.24931   0.73298   0.00000  Uiso   1.00
O1029  O     0.95785   0.08261   0.75335   0.00000  Uiso   1.00
O1030  O     0.89345   0.12709   0.75001   0.00000  Uiso   1.00
O1031  O     0.70792   0.24928   0.76707   0.00000  Uiso   1.00
O1032  O     0.79115   0.04885   0.62882   0.00000  Uiso   1.00
O1033  O     0.72787   0.03458   0.65721   0.00000  Uiso   1.00
O1034  O     0.75964   0.11134   0.67051   0.00000  Uiso   1.00
O1035  O     0.94436   0.29112   0.81017   0.00000  Uiso   1.00
O1036  O     0.90348   0.29607   0.86988   0.00000  Uiso   1.00
O1037  O     0.90671   0.22134   0.83013   0.00000  Uiso   1.00
O1038  O     0.87550   0.04885   0.87118   0.00000  Uiso   1.00
O1039  O     0.93880   0.03463   0.84280   0.00000  Uiso   1.00
O1040  O     0.90701   0.11137   0.82951   0.00000  Uiso   1.00
O1041  O     0.89345   0.20625   0.75001   0.00000  Uiso   1.00
O1042  O     0.72230   0.29105   0.68981   0.00000  Uiso   1.00
O1043  O     0.76320   0.29605   0.63011   0.00000  Uiso   1.00
O1044  O     0.76000   0.22131   0.66987   0.00000  Uiso   1.00
O1045  O     0.77321   0.12709   0.75000   0.00000  Uiso   1.00
O1046  O     0.83332   0.20627   0.68513   0.00000  Uiso   1.00
O1047  O     0.83334   0.12707   0.81487   0.00000  Uiso   1.00
O1048  O     0.83334   0.20627   0.81487   0.00000  Uiso   1.00
O1049  O     0.83332   0.12707   0.68513   0.00000  Uiso   1.00
O1050  O     0.75679   0.15342   0.86810   0.00000  Uiso   1.00
S1051  S     0.70560   0.18665   0.92646   0.00000  Uiso   1.00
S1052  S     0.96079   0.18799   0.57354   0.00000  Uiso   1.00
S1053  S     0.77077   0.05514   0.66888   0.00000  Uiso   1.00
S1054  S     0.90375   0.27851   0.82290   0.00000  Uiso   1.00
S1055  S     0.89589   0.05516   0.83113   0.00000  Uiso   1.00
S1056  S     0.76292   0.27848   0.67709   0.00000  Uiso   1.00
C1057  C     0.08777   0.49990   0.75176   0.00000  Uiso   1.00
C1058  C     0.04337   0.49925   0.75381   0.00000  Uiso   1.00
C1059  C     0.13798   0.35851   0.71724   0.00000  Uiso   1.00
C1060  C     0.19584   0.64149   0.78205   0.00000  Uiso   1.00
C1061  C     0.19535   0.35852   0.78276   0.00000  Uiso   1.00
C1062  C     0.13749   0.64148   0.71795   0.00000  Uiso   1.00
C1063  C     0.16714   0.50000   0.66467   0.00000  Uiso   1.00
C1064  C     0.16616   0.50000   0.83533   0.00000  Uiso   1.00
C1065  C     0.20268   0.50519   0.91447   0.00000  Uiso   1.00
C1066  C     0.13054   0.50482   0.58551   0.00000  Uiso   1.00
C1067  C     0.16504   0.50020   0.88339   0.00000  Uiso   1.00
C1068  C     0.24556   0.49991   0.74821   0.00000  Uiso   1.00
C1069  C     0.16823   0.50020   0.61660   0.00000  Uiso   1.00
C1070  C     0.12680   0.49792   0.89807   0.00000  Uiso   1.00
C1071  C     0.20648   0.49831   0.60192   0.00000  Uiso   1.00
C1072  C     0.12661   0.50492   0.94473   0.00000  Uiso   1.00
C1073  C     0.20662   0.50533   0.55526   0.00000  Uiso   1.00
C1074  C     0.16578   0.50625   0.97636   0.00000  Uiso   1.00
C1075  C     0.16744   0.50626   0.52362   0.00000  Uiso   1.00
C1076  C     0.20348   0.50670   0.96082   0.00000  Uiso   1.00
C1077  C     0.12974   0.50632   0.53916   0.00000  Uiso   1.00
C1078  C     0.08910   0.50941   0.96148   0.00000  Uiso   1.00
C1079  C     0.09142   0.50893   0.50844   0.00000  Uiso   1.00
C1080  C     0.24409   0.51022   0.53850   0.00000  Uiso   1.00
C1081  C     0.24177   0.50970   0.99154   0.00000  Uiso   1.00
C1082  C     0.02140   0.45695   0.74982   0.00000  Uiso   1.00
C1083  C     0.31176   0.54102   0.74434   0.00000  Uiso   1.00
C1084  C     0.31190   0.45695   0.75002   0.00000  Uiso   1.00
C1085  C     0.02158   0.54101   0.75564   0.00000  Uiso   1.00
C1086  C     0.28995   0.49925   0.74612   0.00000  Uiso   1.00
Cu1087 Cu    0.16667   0.54689   0.75000   0.00000  Uiso   1.00
Cu1088 Cu    0.16667   0.45311   0.75000   0.00000  Uiso   1.00
H1089  H     0.23166   0.50692   0.90252   0.00000  Uiso   1.00
H1090  H     0.26890   0.57708   0.70651   0.00000  Uiso   1.00
H1091  H     0.31083   0.39381   0.77171   0.00000  Uiso   1.00
H1092  H     0.06443   0.57702   0.79355   0.00000  Uiso   1.00
H1093  H     0.07202   0.45099   0.64225   0.00000  Uiso   1.00
H1094  H     0.26838   0.54866   0.84853   0.00000  Uiso   1.00
H1095  H     0.26104   0.45109   0.85795   0.00000  Uiso   1.00
H1096  H     0.06522   0.54867   0.65091   0.00000  Uiso   1.00
H1097  H     0.10156   0.50627   0.59747   0.00000  Uiso   1.00
H1098  H     0.06294   0.51077   0.52137   0.00000  Uiso   1.00
H1099  H     0.27023   0.51181   0.97861   0.00000  Uiso   1.00
H1100  H     0.09636   0.47031   0.84150   0.00000  Uiso   1.00
H1101  H     0.23710   0.47079   0.65844   0.00000  Uiso   1.00
H1102  H     0.05662   0.58491   0.90060   0.00000  Uiso   1.00
H1103  H     0.31692   0.55797   0.63659   0.00000  Uiso   1.00
H1104  H     0.02243   0.39384   0.72803   0.00000  Uiso   1.00
N1105  N     0.16667   0.61736   0.75000   0.00000  Uiso   1.00
N1106  N     0.16667   0.38264   0.75000   0.00000  Uiso   1.00
O1107  O     0.10655   0.53958   0.74999   0.00000  Uiso   1.00
O1108  O     0.24323   0.48748   0.63192   0.00000  Uiso   1.00
O1109  O     0.02093   0.47536   0.90564   0.00000  Uiso   1.00
O1110  O     0.00973   0.53971   0.95404   0.00000  Uiso   1.00
O1111  O     0.04251   0.55750   0.88472   0.00000  Uiso   1.00
O1112  O     0.31243   0.47690   0.59459   0.00000  Uiso   1.00
O1113  O     0.32307   0.54139   0.54582   0.00000  Uiso   1.00
O1114  O     0.28970   0.55917   0.61476   0.00000  Uiso   1.00
O1115  O     0.04209   0.41596   0.74641   0.00000  Uiso   1.00
O1116  O     0.29210   0.58264   0.73298   0.00000  Uiso   1.00
O1117  O     0.29119   0.41595   0.75335   0.00000  Uiso   1.00
O1118  O     0.22679   0.46042   0.75001   0.00000  Uiso   1.00
O1119  O     0.04126   0.58262   0.76707   0.00000  Uiso   1.00
O1120  O     0.12448   0.38218   0.62882   0.00000  Uiso   1.00
O1121  O     0.06120   0.36791   0.65721   0.00000  Uiso   1.00
O1122  O     0.09298   0.44468   0.67051   0.00000  Uiso   1.00
O1123  O     0.27769   0.62446   0.81017   0.00000  Uiso   1.00
O1124  O     0.23682   0.62940   0.86988   0.00000  Uiso   1.00
O1125  O     0.24004   0.55467   0.83013   0.00000  Uiso   1.00
O1126  O     0.20884   0.38219   0.87118   0.00000  Uiso   1.00
O1127  O     0.27213   0.36796   0.84280   0.00000  Uiso   1.00
O1128  O     0.24035   0.44470   0.82951   0.00000  Uiso   1.00
O1129  O     0.22679   0.53958   0.75001   0.00000  Uiso   1.00
O1130  O     0.05564   0.62438   0.68981   0.00000  Uiso   1.00
O1131  O     0.09653   0.62939   0.63011   0.00000  Uiso   1.00
O1132  O     0.09333   0.55464   0.66987   0.00000  Uiso   1.00
O1133  O     0.10655   0.46042   0.75000   0.00000  Uiso   1.00
O1134  O     0.16666   0.53960   0.68513   0.00000  Uiso   1.00
O1135  O     0.16668   0.46040   0.81487   0.00000  Uiso   1.00
O1136  O     0.16668   0.53960   0.81487   0.00000  Uiso   1.00
O1137  O     0.16666   0.46040   0.68513   0.00000  Uiso   1.00
O1138  O     0.09012   0.48675   0.86810   0.00000  Uiso   1.00
S1139  S     0.03893   0.51998   0.92646   0.00000  Uiso   1.00
S1140  S     0.29412   0.52133   0.57354   0.00000  Uiso   1.00
S1141  S     0.10410   0.38847   0.66888   0.00000  Uiso   1.00
S1142  S     0.23709   0.61184   0.82290   0.00000  Uiso   1.00
S1143  S     0.22923   0.38849   0.83113   0.00000  Uiso   1.00
S1144  S     0.09625   0.61182   0.67709   0.00000  Uiso   1.00
C1145  C     0.42111   0.49990   0.75176   0.00000  Uiso   1.00
C1146  C     0.37670   0.49925   0.75381   0.00000  Uiso   1.00
C1147  C     0.47131   0.35851   0.71724   0.00000  Uiso   1.00
C1148  C     0.52917   0.64149   0.78205   0.00000  Uiso   1.00
C1149  C     0.52868   0.35852   0.78276   0.00000  Uiso   1.00
C1150  C     0.47083   0.64148   0.71795   0.00000  Uiso   1.00
C1151  C     0.50048   0.50000   0.66467   0.00000  Uiso   1.00
C1152  C     0.49949   0.50000   0.83533   0.00000  Uiso   1.00
C1153  C     0.53602   0.50519   0.91447   0.00000  Uiso   1.00
C1154  C     0.46388   0.50482   0.58551   0.00000  Uiso   1.00
C1155  C     0.49838   0.50020   0.88339   0.00000  Uiso   1.00
C1156  C     0.57889   0.49991   0.74821   0.00000  Uiso   1.00
C1157  C     0.50156   0.50020   0.61660   0.00000  Uiso   1.00
C1158  C     0.46014   0.49792   0.89807   0.00000  Uiso   1.00
C1159  C     0.53981   0.49831   0.60192   0.00000  Uiso   1.00
C1160  C     0.45994   0.50492   0.94473   0.00000  Uiso   1.00
C1161  C     0.53995   0.50533   0.55526   0.00000  Uiso   1.00
C1162  C     0.49911   0.50625   0.97636   0.00000  Uiso   1.00
C1163  C     0.50077   0.50626   0.52362   0.00000  Uiso   1.00
C1164  C     0.53681   0.50670   0.96082   0.00000  Uiso   1.00
C1165  C     0.46307   0.50632   0.53916   0.00000  Uiso   1.00
C1166  C     0.42244   0.50941   0.96148   0.00000  Uiso   1.00
C1167  C     0.42475   0.50893   0.50844   0.00000  Uiso   1.00
C1168  C     0.57742   0.51022   0.53850   0.00000  Uiso   1.00
C1169  C     0.57511   0.50970   0.99154   0.00000  Uiso   1.00
C1170  C     0.35473   0.45695   0.74982   0.00000  Uiso   1.00
C1171  C     0.64509   0.54102   0.74434   0.00000  Uiso   1.00
C1172  C     0.64523   0.45695   0.75002   0.00000  Uiso   1.00
C1173  C     0.35491   0.54101   0.75564   0.00000  Uiso   1.00
C1174  C     0.62329   0.49925   0.74612   0.00000  Uiso   1.00
Cu1175 Cu    0.50000   0.54689   0.75000   0.00000  Uiso   1.00
Cu1176 Cu    0.50000   0.45311   0.75000   0.00000  Uiso   1.00
H1177  H     0.56499   0.50692   0.90252   0.00000  Uiso   1.00
H1178  H     0.60223   0.57708   0.70651   0.00000  Uiso   1.00
H1179  H     0.64416   0.39381   0.77171   0.00000  Uiso   1.00
H1180  H     0.39777   0.57702   0.79355   0.00000  Uiso   1.00
H1181  H     0.40535   0.45099   0.64225   0.00000  Uiso   1.00
H1182  H     0.60171   0.54866   0.84853   0.00000  Uiso   1.00
H1183  H     0.59437   0.45109   0.85795   0.00000  Uiso   1.00
H1184  H     0.39856   0.54867   0.65091   0.00000  Uiso   1.00
H1185  H     0.43490   0.50627   0.59747   0.00000  Uiso   1.00
H1186  H     0.39627   0.51077   0.52137   0.00000  Uiso   1.00
H1187  H     0.60356   0.51181   0.97861   0.00000  Uiso   1.00
H1188  H     0.42969   0.47031   0.84150   0.00000  Uiso   1.00
H1189  H     0.57043   0.47079   0.65844   0.00000  Uiso   1.00
H1190  H     0.38995   0.58491   0.90060   0.00000  Uiso   1.00
H1191  H     0.65025   0.55797   0.63659   0.00000  Uiso   1.00
H1192  H     0.35577   0.39384   0.72803   0.00000  Uiso   1.00
N1193  N     0.50000   0.61736   0.75000   0.00000  Uiso   1.00
N1194  N     0.50000   0.38264   0.75000   0.00000  Uiso   1.00
O1195  O     0.43988   0.53958   0.74999   0.00000  Uiso   1.00
O1196  O     0.57656   0.48748   0.63192   0.00000  Uiso   1.00
O1197  O     0.35426   0.47536   0.90564   0.00000  Uiso   1.00
O1198  O     0.34306   0.53971   0.95404   0.00000  Uiso   1.00
O1199  O     0.37584   0.55750   0.88472   0.00000  Uiso   1.00
O1200  O     0.64576   0.47690   0.59459   0.00000  Uiso   1.00
O1201  O     0.65640   0.54139   0.54582   0.00000  Uiso   1.00
O1202  O     0.62303   0.55917   0.61476   0.00000  Uiso   1.00
O1203  O     0.37542   0.41596   0.74641   0.00000  Uiso   1.00
O1204  O     0.62543   0.58264   0.73298   0.00000  Uiso   1.00
O1205  O     0.62452   0.41595   0.75335   0.00000  Uiso   1.00
O1206  O     0.56012   0.46042   0.75001   0.00000  Uiso   1.00
O1207  O     0.37459   0.58262   0.76707   0.00000  Uiso   1.00
O1208  O     0.45782   0.38218   0.62882   0.00000  Uiso   1.00
O1209  O     0.39454   0.36791   0.65721   0.00000  Uiso   1.00
O1210  O     0.42631   0.44468   0.67051   0.00000  Uiso   1.00
O1211  O     0.61103   0.62446   0.81017   0.00000  Uiso   1.00
O1212  O     0.57015   0.62940   0.86988   0.00000  Uiso   1.00
O1213  O     0.57337   0.55467   0.83013   0.00000  Uiso   1.00
O1214  O     0.54217   0.38219   0.87118   0.00000  Uiso   1.00
O1215  O     0.60546   0.36796   0.84280   0.00000  Uiso   1.00
O1216  O     0.57368   0.44470   0.82951   0.00000  Uiso   1.00
O1217  O     0.56012   0.53958   0.75001   0.00000  Uiso   1.00
O1218  O     0.38897   0.62438   0.68981   0.00000  Uiso   1.00
O1219  O     0.42986   0.62939   0.63011   0.00000  Uiso   1.00
O1220  O     0.42667   0.55464   0.66987   0.00000  Uiso   1.00
O1221  O     0.43988   0.46042   0.75000   0.00000  Uiso   1.00
O1222  O     0.49999   0.53960   0.68513   0.00000  Uiso   1.00
O1223  O     0.50001   0.46040   0.81487   0.00000  Uiso   1.00
O1224  O     0.50001   0.53960   0.81487   0.00000  Uiso   1.00
O1225  O     0.49999   0.46040   0.68513   0.00000  Uiso   1.00
O1226  O     0.42346   0.48675   0.86810   0.00000  Uiso   1.00
S1227  S     0.37227   0.51998   0.92646   0.00000  Uiso   1.00
S1228  S     0.62745   0.52133   0.57354   0.00000  Uiso   1.00
S1229  S     0.43743   0.38847   0.66888   0.00000  Uiso   1.00
S1230  S     0.57042   0.61184   0.82290   0.00000  Uiso   1.00
S1231  S     0.56256   0.38849   0.83113   0.00000  Uiso   1.00
S1232  S     0.42959   0.61182   0.67709   0.00000  Uiso   1.00
C1233  C     0.75444   0.49990   0.75176   0.00000  Uiso   1.00
C1234  C     0.71003   0.49925   0.75381   0.00000  Uiso   1.00
C1235  C     0.80465   0.35851   0.71724   0.00000  Uiso   1.00
C1236  C     0.86251   0.64149   0.78205   0.00000  Uiso   1.00
C1237  C     0.86202   0.35852   0.78276   0.00000  Uiso   1.00
C1238  C     0.80416   0.64148   0.71795   0.00000  Uiso   1.00
C1239  C     0.83381   0.50000   0.66467   0.00000  Uiso   1.00
C1240  C     0.83282   0.50000   0.83533   0.00000  Uiso   1.00
C1241  C     0.86935   0.50519   0.91447   0.00000  Uiso   1.00
C1242  C     0.79721   0.50482   0.58551   0.00000  Uiso   1.00
C1243  C     0.83171   0.50020   0.88339   0.00000  Uiso   1.00
C1244  C     0.91222   0.49991   0.74821   0.00000  Uiso   1.00
C1245  C     0.83489   0.50020   0.61660   0.00000  Uiso   1.00
C1246  C     0.79347   0.49792   0.89807   0.00000  Uiso   1.00
C1247  C     0.87314   0.49831   0.60192   0.00000  Uiso   1.00
C1248  C     0.79327   0.50492   0.94473   0.00000  Uiso   1.00
C1249  C     0.87329   0.50533   0.55526   0.00000  Uiso   1.00
C1250  C     0.83244   0.50625   0.97636   0.00000  Uiso   1.00
C1251  C     0.83410   0.50626   0.52362   0.00000  Uiso   1.00
C1252  C     0.87014   0.50670   0.96082   0.00000  Uiso   1.00
C1253  C     0.79640   0.50632   0.53916   0.00000  Uiso   1.00
C1254  C     0.75577   0.50941   0.96148   0.00000  Uiso   1.00
C1255  C     0.75808   0.50893   0.50844   0.00000  Uiso   1.00
C1256  C     0.91075   0.51022   0.53850   0.00000  Uiso   1.00
C1257  C     0.90844   0.50970   0.99154   0.00000  Uiso   1.00
C1258  C     0.68807   0.45695   0.74982   0.00000  Uiso   1.00
C1259  C     0.97842   0.54102   0.74434   0.00000  Uiso   1.00
C1260  C     0.97856   0.45695   0.75002   0.00000  Uiso   1.00
C1261  C     0.68824   0.54101   0.75564   0.00000  Uiso   1.00
C1262  C     0.95662   0.49925   0.74612   0.00000  Uiso   1.00
Cu1263 Cu    0.83333   0.54689   0.75000   0.00000  Uiso   1.00
Cu1264 Cu    0.83333   0.45311   0.75000   0.00000  Uiso   1.00
H1265  H     0.89832   0.50692   0.90252   0.00000  Uiso   1.00
H1266  H     0.93556   0.57708   0.70651   0.00000  Uiso   1.00
H1267  H     0.97749   0.39381   0.77171   0.00000  Uiso   1.00
H1268  H     0.73110   0.57702   0.79355   0.00000  Uiso   1.00
H1269  H     0.73869   0.45099   0.64225   0.00000  Uiso   1.00
H1270  H     0.93505   0.54866   0.84853   0.00000  Uiso   1.00
H1271  H     0.92770   0.45109   0.85795   0.00000  Uiso   1.00
H1272  H     0.73189   0.54867   0.65091   0.00000  Uiso   1.00
H1273  H     0.76823   0.50627   0.59747   0.00000  Uiso   1.00
H1274  H     0.72961   0.51077   0.52137   0.00000  Uiso   1.00
H1275  H     0.93690   0.51181   0.97861   0.00000  Uiso   1.00
H1276  H     0.76303   0.47031   0.84150   0.00000  Uiso   1.00
H1277  H     0.90376   0.47079   0.65844   0.00000  Uiso   1.00
H1278  H     0.72329   0.58491   0.90060   0.00000  Uiso   1.00
H1279  H     0.98358   0.55797   0.63659   0.00000  Uiso   1.00
H1280  H     0.68910   0.39384   0.72803   0.00000  Uiso   1.00
N1281  N     0.83333   0.61736   0.75000   0.00000  Uiso   1.00
N1282  N     0.83333   0.38264   0.75000   0.00000  Uiso   1.00
O1283  O     0.77321   0.53958   0.74999   0.00000  Uiso   1.00
O1284  O     0.90990   0.48748   0.63192   0.00000  Uiso   1.00
O1285  O     0.68760   0.47536   0.90564   0.00000  Uiso   1.00
O1286  O     0.67639   0.53971   0.95404   0.00000  Uiso   1.00
O1287  O     0.70917   0.55750   0.88472   0.00000  Uiso   1.00
O1288  O     0.97910   0.47690   0.59459   0.00000  Uiso   1.00
O1289  O     0.98974   0.54139   0.54582   0.00000  Uiso   1.00
O1290  O     0.95636   0.55917   0.61476   0.00000  Uiso   1.00
O1291  O     0.70876   0.41596   0.74641   0.00000  Uiso   1.00
O1292  O     0.95876   0.58264   0.73298   0.00000  Uiso   1.00
O1293  O     0.95785   0.41595   0.75335   0.00000  Uiso   1.00
O1294  O     0.89345   0.46042   0.75001   0.00000  Uiso   1.00
O1295  O     0.70792   0.58262   0.76707   0.00000  Uiso   1.00
O1296  O     0.79115   0.38218   0.62882   0.00000  Uiso   1.00
O1297  O     0.72787   0.36791   0.65721   0.00000  Uiso   1.00
O1298  O     0.75964   0.44468   0.67051   0.00000  Uiso   1.00
O1299  O     0.94436   0.62446   0.81017   0.00000  Uiso   1.00
O1300  O     0.90348   0.62940   0.86988   0.00000  Uiso   1.00
O1301  O     0.90671   0.55467   0.83013   0.00000  Uiso   1.00
O1302  O     0.87550   0.38219   0.87118   0.00000  Uiso   1.00
O1303  O     0.93880   0.36796   0.84280   0.00000  Uiso   1.00
O1304  O     0.90701   0.44470   0.82951   0.00000  Uiso   1.00
O1305  O     0.89345   0.53958   0.75001   0.00000  Uiso   1.00
O1306  O     0.72230   0.62438   0.68981   0.00000  Uiso   1.00
O1307  O     0.76320   0.62939   0.63011   0.00000  Uiso   1.00
O1308  O     0.76000   0.55464   0.66987   0.00000  Uiso   1.00
O1309  O     0.77321   0.46042   0.75000   0.00000  Uiso   1.00
O1310  O     0.83332   0.53960   0.68513   0.00000  Uiso   1.00
O1311  O     0.83334   0.46040   0.81487   0.00000  Uiso   1.00
O1312  O     0.83334   0.53960   0.81487   0.00000  Uiso   1.00
O1313  O     0.83332   0.46040   0.68513   0.00000  Uiso   1.00
O1314  O     0.75679   0.48675   0.86810   0.00000  Uiso   1.00
S1315  S     0.70560   0.51998   0.92646   0.00000  Uiso   1.00
S1316  S     0.96079   0.52133   0.57354   0.00000  Uiso   1.00
S1317  S     0.77077   0.38847   0.66888   0.00000  Uiso   1.00
S1318  S     0.90375   0.61184   0.82290   0.00000  Uiso   1.00
S1319  S     0.89589   0.38849   0.83113   0.00000  Uiso   1.00
S1320  S     0.76292   0.61182   0.67709   0.00000  Uiso   1.00
C1321  C     0.08777   0.83324   0.75176   0.00000  Uiso   1.00
C1322  C     0.04337   0.83258   0.75381   0.00000  Uiso   1.00
C1323  C     0.13798   0.69185   0.71724   0.00000  Uiso   1.00
C1324  C     0.19584   0.97482   0.78205   0.00000  Uiso   1.00
C1325  C     0.19535   0.69186   0.78276   0.00000  Uiso   1.00
C1326  C     0.13749   0.97481   0.71795   0.00000  Uiso   1.00
C1327  C     0.16714   0.83333   0.66467   0.00000  Uiso   1.00
C1328  C     0.16616   0.83333   0.83533   0.00000  Uiso   1.00
C1329  C     0.20268   0.83853   0.91447   0.00000  Uiso   1.00
C1330  C     0.13054   0.83815   0.58551   0.00000  Uiso   1.00
C1331  C     0.16504   0.83354   0.88339   0.00000  Uiso   1.00
C1332  C     0.24556   0.83324   0.74821   0.00000  Uiso   1.00
C1333  C     0.16823   0.83354   0.61660   0.00000  Uiso   1.00
C1334  C     0.12680   0.83125   0.89807   0.00000  Uiso   1.00
C1335  C     0.20648   0.83164   0.60192   0.00000  Uiso   1.00
C1336  C     0.12661   0.83825   0.94473   0.00000  Uiso   1.00
C1337  C     0.20662   0.83866   0.55526   0.00000  Uiso   1.00
C1338  C     0.16578   0.83959   0.97636   0.00000  Uiso   1.00
C1339  C     0.16744   0.83959   0.52362   0.00000  Uiso   1.00
C1340  C     0.20348   0.84003   0.96082   0.00000  Uiso   1.00
C1341  C     0.12974   0.83965   0.53916   0.00000  Uiso   1.00
C1342  C     0.08910   0.84274   0.96148   0.00000  Uiso   1.00
C1343  C     0.09142   0.84226   0.50844   0.00000  Uiso   1.00
C1344  C     0.24409   0.84355   0.53850   0.00000  Uiso   1.00
C1345  C     0.24177   0.84303   0.99154   0.00000  Uiso   1.00
C1346  C     0.02140   0.79028   0.74982   0.00000  Uiso   1.00
C1347  C     0.31176   0.87435   0.74434   0.00000  Uiso   1.00
C1348  C     0.31190   0.79028   0.75002   0.00000  Uiso   1.00
C1349  C     0.02158   0.87434   0.75564   0.00000  Uiso   1.00
C1350  C     0.28995   0.83259   0.74612   0.00000  Uiso   1.00
Cu1351 Cu    0.16667   0.88022   0.75000   0.00000  Uiso   1.00
Cu1352 Cu    0.16667   0.78645   0.75000   0.00000  Uiso   1.00
H1353  H     0.23166   0.84026   0.90252   0.00000  Uiso   1.00
H1354  H     0.26890   0.91042   0.70651   0.00000  Uiso   1.00
H1355  H     0.31083   0.72714   0.77171   0.00000  Uiso   1.00
H1356  H     0.06443   0.91035   0.79355   0.00000  Uiso   1.00
H1357  H     0.07202   0.78432   0.64225   0.00000  Uiso   1.00
H1358  H     0.26838   0.88199   0.84853   0.00000  Uiso   1.00
H1359  H     0.26104   0.78442   0.85795   0.00000  Uiso   1.00
H1360  H     0.06522   0.88201   0.65091   0.00000  Uiso   1.00
H1361  H     0.10156   0.83961   0.59747   0.00000  Uiso   1.00
H1362  H     0.06294   0.84411   0.52137   0.00000  Uiso   1.00
H1363  H     0.27023   0.84515   0.97861   0.00000  Uiso   1.00
H1364  H     0.09636   0.80365   0.84150   0.00000  Uiso   1.00
H1365  H     0.23710   0.80413   0.65844   0.00000  Uiso   1.00
H1366  H     0.05662   0.91824   0.90060   0.00000  Uiso   1.00
H1367  H     0.31692   0.89130   0.63659   0.00000  Uiso   1.00
H1368  H     0.02243   0.72717   0.72803   0.00000  Uiso   1.00
N1369  N     0.16667   0.95069   0.75000   0.00000  Uiso   1.00
N1370  N     0.16667   0.71598   0.75000   0.00000  Uiso   1.00
O1371  O     0.10655   0.87291   0.74999   0.00000  Uiso   1.00
O1372  O     0.24323   0.82081   0.63192   0.00000  Uiso   1.00
O1373  O     0.02093   0.80870   0.90564   0.00000  Uiso   1.00
O1374  O     0.00973   0.87305   0.95404   0.00000  Uiso   1.00
O1375  O     0.04251   0.89084   0.88472   0.00000  Uiso   1.00
O1376  O     0.31243   0.81024   0.59459   0.00000  Uiso   1.00
O1377  O     0.32307   0.87472   0.54582   0.00000  Uiso   1.00
O1378  O     0.28970   0.89250   0.61476   0.00000  Uiso   1.00
O1379  O     0.04209   0.74929   0.74641   0.00000  Uiso   1.00
O1380  O     0.29210   0.91597   0.73298   0.00000  Uiso   1.00
O1381  O     0.29119   0.74928   0.75335   0.00000  Uiso   1.00
O1382  O     0.22679   0.79375   0.75001   0.00000  Uiso   1.00
O1383  O     0.04126   0.91595   0.76707   0.00000  Uiso   1.00
O1384  O     0.12448   0.71551   0.62882   0.00000  Uiso   1.00
O1385  O     0.06120   0.70125   0.65721   0.00000  Uiso   1.00
O1386  O     0.09298   0.77801   0.67051   0.00000  Uiso   1.00
O1387  O     0.27769   0.95779   0.81017   0.00000  Uiso   1.00
O1388  O     0.23682   0.96273   0.86988   0.00000  Uiso   1.00
O1389  O     0.24004   0.88800   0.83013   0.00000  Uiso   1.00
O1390  O     0.20884   0.71552   0.87118   0.00000  Uiso   1.00
O1391  O     0.27213   0.70130   0.84280   0.00000  Uiso   1.00
O1392  O     0.24035   0.77803   0.82951   0.00000  Uiso   1.00
O1393  O     0.22679   0.87291   0.75001   0.00000  Uiso   1.00
O1394  O     0.05564   0.95772   0.68981   0.00000  Uiso   1.00
O1395  O     0.09653   0.96272   0.63011   0.00000  Uiso   1.00
O1396  O     0.09333   0.88798   0.66987   0.00000  Uiso   1.00
O1397  O     0.10655   0.79375   0.75000   0.00000  Uiso   1.00
O1398  O     0.16666   0.87293   0.68513   0.00000  Uiso   1.00
O1399  O     0.16668   0.79373   0.81487   0.00000  Uiso   1.00
O1400  O     0.16668   0.87293   0.81487   0.00000  Uiso   1.00
O1401  O     0.16666   0.79373   0.68513   0.00000  Uiso   1.00
O1402  O     0.09012   0.82009   0.86810   0.00000  Uiso   1.00
S1403  S     0.03893   0.85331   0.92646   0.00000  Uiso   1.00
S1404  S     0.29412   0.85466   0.57354   0.00000  Uiso   1.00
S1405  S     0.10410   0.72180   0.66888   0.00000  Uiso   1.00
S1406  S     0.23709   0.94517   0.82290   0.00000  Uiso   1.00
S1407  S     0.22923   0.72182   0.83113   0.00000  Uiso   1.00
S1408  S     0.09625   0.94515   0.67709   0.00000  Uiso   1.00
C1409  C     0.42111   0.83324   0.75176   0.00000  Uiso   1.00
C1410  C     0.37670   0.83258   0.75381   0.00000  Uiso   1.00
C1411  C     0.47131   0.69185   0.71724   0.00000  Uiso   1.00
C1412  C     0.52917   0.97482   0.78205   0.00000  Uiso   1.00
C1413  C     0.52868   0.69186   0.78276   0.00000  Uiso   1.00
C1414  C     0.47083   0.97481   0.71795   0.00000  Uiso   1.00
C1415  C     0.50048   0.83333   0.66467   0.00000  Uiso   1.00
C1416  C     0.49949   0.83333   0.83533   0.00000  Uiso   1.00
C1417  C     0.53602   0.83853   0.91447   0.00000  Uiso   1.00
C1418  C     0.46388   0.83815   0.58551   0.00000  Uiso   1.00
C1419  C     0.49838   0.83354   0.88339   0.00000  Uiso   1.00
C1420  C     0.57889   0.83324   0.74821   0.00000  Uiso   1.00
C1421  C     0.50156   0.83354   0.61660   0.00000  Uiso   1.00
C1422  C     0.46014   0.83125   0.89807   0.00000  Uiso   1.00
C1423  C     0.53981   0.83164   0.60192   0.00000  Uiso   1.00
C1424  C     0.45994   0.83825   0.94473   0.00000  Uiso   1.00
C1425  C     0.53995   0.83866   0.55526   0.00000  Uiso   1.00
C1426  C     0.49911   0.83959   0.97636   0.00000  Uiso   1.00
C1427  C     0.50077   0.83959   0.52362   0.00000  Uiso   1.00
C1428  C     0.53681   0.84003   0.96082   0.00000  Uiso   1.00
C1429  C     0.46307   0.83965   0.53916   0.00000  Uiso   1.00
C1430  C     0.42244   0.84274   0.96148   0.00000  Uiso   1.00
C1431  C     0.42475   0.84226   0.50844   0.00000  Uiso   1.00
C1432  C     0.57742   0.84355   0.53850   0.00000  Uiso   1.00
C1433  C     0.57511   0.84303   0.99154   0.00000  Uiso   1.00
C1434  C     0.35473   0.79028   0.74982   0.00000  Uiso   1.00
C1435  C     0.64509   0.87435   0.74434   0.00000  Uiso   1.00
C1436  C     0.64523   0.79028   0.75002   0.00000  Uiso   1.00
C1437  C     0.35491   0.87434   0.75564   0.00000  Uiso   1.00
C1438  C     0.62329   0.83259   0.74612   0.00000  Uiso   1.00
Cu1439 Cu    0.50000   0.88022   0.75000   0.00000  Uiso   1.00
Cu1440 Cu    0.50000   0.78645   0.75000   0.00000  Uiso   1.00
H1441  H     0.56499   0.84026   0.90252   0.00000  Uiso   1.00
H1442  H     0.60223   0.91042   0.70651   0.00000  Uiso   1.00
H1443  H     0.64416   0.72714   0.77171   0.00000  Uiso   1.00
H1444  H     0.39777   0.91035   0.79355   0.00000  Uiso   1.00
H1445  H     0.40535   0.78432   0.64225   0.00000  Uiso   1.00
H1446  H     0.60171   0.88199   0.84853   0.00000  Uiso   1.00
H1447  H     0.59437   0.78442   0.85795   0.00000  Uiso   1.00
H1448  H     0.39856   0.88201   0.65091   0.00000  Uiso   1.00
H1449  H     0.43490   0.83961   0.59747   0.00000  Uiso   1.00
H1450  H     0.39627   0.84411   0.52137   0.00000  Uiso   1.00
H1451  H     0.60356   0.84515   0.97861   0.00000  Uiso   1.00
H1452  H     0.42969   0.80365   0.84150   0.00000  Uiso   1.00
H1453  H     0.57043   0.80413   0.65844   0.00000  Uiso   1.00
H1454  H     0.38995   0.91824   0.90060   0.00000  Uiso   1.00
H1455  H     0.65025   0.89130   0.63659   0.00000  Uiso   1.00
H1456  H     0.35577   0.72717   0.72803   0.00000  Uiso   1.00
N1457  N     0.50000   0.95069   0.75000   0.00000  Uiso   1.00
N1458  N     0.50000   0.71598   0.75000   0.00000  Uiso   1.00
O1459  O     0.43988   0.87291   0.74999   0.00000  Uiso   1.00
O1460  O     0.57656   0.82081   0.63192   0.00000  Uiso   1.00
O1461  O     0.35426   0.80870   0.90564   0.00000  Uiso   1.00
O1462  O     0.34306   0.87305   0.95404   0.00000  Uiso   1.00
O1463  O     0.37584   0.89084   0.88472   0.00000  Uiso   1.00
O1464  O     0.64576   0.81024   0.59459   0.00000  Uiso   1.00
O1465  O     0.65640   0.87472   0.54582   0.00000  Uiso   1.00
O1466  O     0.62303   0.89250   0.61476   0.00000  Uiso   1.00
O1467  O     0.37542   0.74929   0.74641   0.00000  Uiso   1.00
O1468  O     0.62543   0.91597   0.73298   0.00000  Uiso   1.00
O1469  O     0.62452   0.74928   0.75335   0.00000  Uiso   1.00
O1470  O     0.56012   0.79375   0.75001   0.00000  Uiso   1.00
O1471  O     0.37459   0.91595   0.76707   0.00000  Uiso   1.00
O1472  O     0.45782   0.71551   0.62882   0.00000  Uiso   1.00
O1473  O     0.39454   0.70125   0.65721   0.00000  Uiso   1.00
O1474  O     0.42631   0.77801   0.67051   0.00000  Uiso   1.00
O1475  O     0.61103   0.95779   0.81017   0.00000  Uiso   1.00
O1476  O     0.57015   0.96273   0.86988   0.00000  Uiso   1.00
O1477  O     0.57337   0.88800   0.83013   0.00000  Uiso   1.00
O1478  O     0.54217   0.71552   0.87118   0.00000  Uiso   1.00
O1479  O     0.60546   0.70130   0.84280   0.00000  Uiso   1.00
O1480  O     0.57368   0.77803   0.82951   0.00000  Uiso   1.00
O1481  O     0.56012   0.87291   0.75001   0.00000  Uiso   1.00
O1482  O     0.38897   0.95772   0.68981   0.00000  Uiso   1.00
O1483  O     0.42986   0.96272   0.63011   0.00000  Uiso   1.00
O1484  O     0.42667   0.88798   0.66987   0.00000  Uiso   1.00
O1485  O     0.43988   0.79375   0.75000   0.00000  Uiso   1.00
O1486  O     0.49999   0.87293   0.68513   0.00000  Uiso   1.00
O1487  O     0.50001   0.79373   0.81487   0.00000  Uiso   1.00
O1488  O     0.50001   0.87293   0.81487   0.00000  Uiso   1.00
O1489  O     0.49999   0.79373   0.68513   0.00000  Uiso   1.00
O1490  O     0.42346   0.82009   0.86810   0.00000  Uiso   1.00
S1491  S     0.37227   0.85331   0.92646   0.00000  Uiso   1.00
S1492  S     0.62745   0.85466   0.57354   0.00000  Uiso   1.00
S1493  S     0.43743   0.72180   0.66888   0.00000  Uiso   1.00
S1494  S     0.57042   0.94517   0.82290   0.00000  Uiso   1.00
S1495  S     0.56256   0.72182   0.83113   0.00000  Uiso   1.00
S1496  S     0.42959   0.94515   0.67709   0.00000  Uiso   1.00
C1497  C     0.75444   0.83324   0.75176   0.00000  Uiso   1.00
C1498  C     0.71003   0.83258   0.75381   0.00000  Uiso   1.00
C1499  C     0.80465   0.69185   0.71724   0.00000  Uiso   1.00
C1500  C     0.86251   0.97482   0.78205   0.00000  Uiso   1.00
C1501  C     0.86202   0.69186   0.78276   0.00000  Uiso   1.00
C1502  C     0.80416   0.97481   0.71795   0.00000  Uiso   1.00
C1503  C     0.83381   0.83333   0.66467   0.00000  Uiso   1.00
C1504  C     0.83282   0.83333   0.83533   0.00000  Uiso   1.00
C1505  C     0.86935   0.83853   0.91447   0.00000  Uiso   1.00
C1506  C     0.79721   0.83815   0.58551   0.00000  Uiso   1.00
C1507  C     0.83171   0.83354   0.88339   0.00000  Uiso   1.00
C1508  C     0.91222   0.83324   0.74821   0.00000  Uiso   1.00
C1509  C     0.83489   0.83354   0.61660   0.00000  Uiso   1.00
C1510  C     0.79347   0.83125   0.89807   0.00000  Uiso   1.00
C1511  C     0.87314   0.83164   0.60192   0.00000  Uiso   1.00
C1512  C     0.79327   0.83825   0.94473   0.00000  Uiso   1.00
C1513  C     0.87329   0.83866   0.55526   0.00000  Uiso   1.00
C1514  C     0.83244   0.83959   0.97636   0.00000  Uiso   1.00
C1515  C     0.83410   0.83959   0.52362   0.00000  Uiso   1.00
C1516  C     0.87014   0.84003   0.96082   0.00000  Uiso   1.00
C1517  C     0.79640   0.83965   0.53916   0.00000  Uiso   1.00
C1518  C     0.75577   0.84274   0.96148   0.00000  Uiso   1.00
C1519  C     0.75808   0.84226   0.50844   0.00000  Uiso   1.00
C1520  C     0.91075   0.84355   0.53850   0.00000  Uiso   1.00
C1521  C     0.90844   0.84303   0.99154   0.00000  Uiso   1.00
C1522  C     0.68807   0.79028   0.74982   0.00000  Uiso   1.00
C1523  C     0.97842   0.87435   0.74434   0.00000  Uiso   1.00
C1524  C     0.97856   0.79028   0.75002   0.00000  Uiso   1.00
C1525  C     0.68824   0.87434   0.75564   0.00000  Uiso   1.00
C1526  C     0.95662   0.83259   0.74612   0.00000  Uiso   1.00
Cu1527 Cu    0.83333   0.88022   0.75000   0.00000  Uiso   1.00
Cu1528 Cu    0.83333   0.78645   0.75000   0.00000  Uiso   1.00
H1529  H     0.89832   0.84026   0.90252   0.00000  Uiso   1.00
H1530  H     0.93556   0.91042   0.70651   0.00000  Uiso   1.00
H1531  H     0.97749   0.72714   0.77171   0.00000  Uiso   1.00
H1532  H     0.73110   0.91035   0.79355   0.00000  Uiso   1.00
H1533  H     0.73869   0.78432   0.64225   0.00000  Uiso   1.00
H1534  H     0.93505   0.88199   0.84853   0.00000  Uiso   1.00
H1535  H     0.92770   0.78442   0.85795   0.00000  Uiso   1.00
H1536  H     0.73189   0.88201   0.65091   0.00000  Uiso   1.00
H1537  H     0.76823   0.83961   0.59747   0.00000  Uiso   1.00
H1538  H     0.72961   0.84411   0.52137   0.00000  Uiso   1.00
H1539  H     0.93690   0.84515   0.97861   0.00000  Uiso   1.00
H1540  H     0.76303   0.80365   0.84150   0.00000  Uiso   1.00
H1541  H     0.90376   0.80413   0.65844   0.00000  Uiso   1.00
H1542  H     0.72329   0.91824   0.90060   0.00000  Uiso   1.00
H1543  H     0.98358   0.89130   0.63659   0.00000  Uiso   1.00
H1544  H     0.68910   0.72717   0.72803   0.00000  Uiso   1.00
N1545  N     0.83333   0.95069   0.75000   0.00000  Uiso   1.00
N1546  N     0.83333   0.71598   0.75000   0.00000  Uiso   1.00
O1547  O     0.77321   0.87291   0.74999   0.00000  Uiso   1.00
O1548  O     0.90990   0.82081   0.63192   0.00000  Uiso   1.00
O1549  O     0.68760   0.80870   0.90564   0.00000  Uiso   1.00
O1550  O     0.67639   0.87305   0.95404   0.00000  Uiso   1.00
O1551  O     0.70917   0.89084   0.88472   0.00000  Uiso   1.00
O1552  O     0.97910   0.81024   0.59459   0.00000  Uiso   1.00
O1553  O     0.98974   0.87472   0.54582   0.00000  Uiso   1.00
O1554  O     0.95636   0.89250   0.61476   0.00000  Uiso   1.00
O1555  O     0.70876   0.74929   0.74641   0.00000  Uiso   1.00
O1556  O     0.95876   0.91597   0.73298   0.00000  Uiso   1.00
O1557  O     0.95785   0.74928   0.75335   0.00000  Uiso   1.00
O1558  O     0.89345   0.79375   0.75001   0.00000  Uiso   1.00
O1559  O     0.70792   0.91595   0.76707   0.00000  Uiso   1.00
O1560  O     0.79115   0.71551   0.62882   0.00000  Uiso   1.00
O1561  O     0.72787   0.70125   0.65721   0.00000  Uiso   1.00
O1562  O     0.75964   0.77801   0.67051   0.00000  Uiso   1.00
O1563  O     0.94436   0.95779   0.81017   0.00000  Uiso   1.00
O1564  O     0.90348   0.96273   0.86988   0.00000  Uiso   1.00
O1565  O     0.90671   0.88800   0.83013   0.00000  Uiso   1.00
O1566  O     0.87550   0.71552   0.87118   0.00000  Uiso   1.00
O1567  O     0.93880   0.70130   0.84280   0.00000  Uiso   1.00
O1568  O     0.90701   0.77803   0.82951   0.00000  Uiso   1.00
O1569  O     0.89345   0.87291   0.75001   0.00000  Uiso   1.00
O1570  O     0.72230   0.95772   0.68981   0.00000  Uiso   1.00
O1571  O     0.76320   0.96272   0.63011   0.00000  Uiso   1.00
O1572  O     0.76000   0.88798   0.66987   0.00000  Uiso   1.00
O1573  O     0.77321   0.79375   0.75000   0.00000  Uiso   1.00
O1574  O     0.83332   0.87293   0.68513   0.00000  Uiso   1.00
O1575  O     0.83334   0.79373   0.81487   0.00000  Uiso   1.00
O1576  O     0.83334   0.87293   0.81487   0.00000  Uiso   1.00
O1577  O     0.83332   0.79373   0.68513   0.00000  Uiso   1.00
O1578  O     0.75679   0.82009   0.86810   0.00000  Uiso   1.00
S1579  S     0.70560   0.85331   0.92646   0.00000  Uiso   1.00
S1580  S     0.96079   0.85466   0.57354   0.00000  Uiso   1.00
S1581  S     0.77077   0.72180   0.66888   0.00000  Uiso   1.00
S1582  S     0.90375   0.94517   0.82290   0.00000  Uiso   1.00
S1583  S     0.89589   0.72182   0.83113   0.00000  Uiso   1.00
S1584  S     0.76292   0.94515   0.67709   0.00000  Uiso   1.00
loop_
_geom_bond_atom_site_label_1
_geom_bond_atom_site_label_2
_geom_bond_distance
_geom_bond_site_symmetry_2
_ccdc_geom_bond_type
C1     O77     1.306   .     A
C1     C2      1.468   .     S
C1     O51     1.311   .     A
C2     C29     1.412   .     A
C2     C26     1.414   .     A
C3     S85     1.850   .     S
C3     N50     1.398   .     A
C3     C534    1.461   1_545 S
C4     S86     1.838   .     S
C4     N49     1.395   .     A
C4     C269    1.461   .     S
C5     N50     1.398   .     A
C5     S87     1.850   .     S
C5     C532    1.461   1_545 S
C6     S88     1.838   .     S
C6     N49     1.395   .     A
C6     C267    1.461   .     S
C7     O78     1.304   .     A
C7     O81     1.304   .     A
C7     C13     1.452   .     S
C8     O79     1.304   .     A
C8     C11     1.452   .     S
C8     O80     1.304   .     A
C9     H33     1.083   .     S
C9     C11     1.390   .     A
C9     C20     1.388   .     A
C10    C21     1.388   .     A
C10    C13     1.389   .     A
C10    H41     1.083   .     S
C11    C14     1.413   .     A
C12    O62     1.306   .     A
C12    O73     1.311   .     A
C12    C30     1.468   .     S
C13    C15     1.412   .     A
C14    C16     1.417   .     A
C14    O82     1.380   .     S
C15    O52     1.380   .     S
C15    C17     1.417   .     A
C16    C22     1.427   .     A
C16    C18     1.428   .     A
C17    C24     1.427   .     A
C17    C19     1.428   .     A
C18    C20     1.408   .     A
C18    C811    1.409   .     S
C19    C21     1.408   .     A
C19    C810    1.409   1_554 S
C20    C25     1.396   .     A
C21    C23     1.396   .     A
C22    S83     1.782   .     S
C22    C815    1.397   .     S
C23    H42     1.083   .     S
C23    C814    1.397   1_554 S
C24    S84     1.782   .     S
C24    C817    1.397   1_554 S
C25    H43     1.083   .     S
C25    C816    1.397   .     S
C26    O59     1.383   .     S
C26    C204    1.403   1_455 S
C27    O60     1.377   .     S
C27    C30     1.412   .     A
C27    C117    1.382   .     S
C28    O61     1.383   .     S
C28    C30     1.414   .     A
C28    C114    1.403   .     S
C29    O63     1.377   .     S
C29    C203    1.382   1_455 S
Cu31   O80     1.960   .     S
Cu31   O78     1.960   .     S
Cu31   O73     1.979   .     S
Cu31   N49     2.044   .     S
Cu31   Cu32    2.720   .     S
Cu31   O51     1.979   .     S
Cu32   O81     1.960   .     S
Cu32   O77     1.979   .     S
Cu32   N50     2.044   .     S
Cu32   O62     1.979   .     S
Cu32   O79     1.960   .     S
H34    O60     0.991   .     S
H35    O61     0.991   .     S
H36    O63     0.991   .     S
H37    O66     0.991   .     S
H38    O69     0.991   .     S
H39    O72     0.991   .     S
H40    O76     0.991   .     S
H44    O82     0.988   .     S
H45    O52     0.988   .     S
H46    O55     0.990   .     S
H47    O58     0.991   .     S
H48    O59     0.991   .     S
O53    S83     1.503   .     D
O54    S83     1.503   .     D
O55    S83     1.683   .     S
O56    S84     1.504   .     D
O57    S84     1.503   .     D
O58    S84     1.683   .     S
O64    S85     1.504   .     D
O65    S85     1.498   .     D
O66    S85     1.673   .     S
O67    S86     1.503   .     D
O68    S86     1.502   .     D
O69    S86     1.672   .     S
O70    S87     1.504   .     D
O71    S87     1.498   .     D
O72    S87     1.673   .     S
O74    S88     1.503   .     D
O75    S88     1.502   .     D
O76    S88     1.672   .     S
C89    O165    1.306   .     A
C89    C90     1.468   .     S
C89    O139    1.311   .     A
C90    C117    1.412   .     A
C90    C114    1.414   .     A
C91    S173    1.850   .     S
C91    N138    1.398   .     A
C91    C622    1.461   1_545 S
C92    S174    1.838   .     S
C92    N137    1.395   .     A
C92    C357    1.461   .     S
C93    N138    1.398   .     A
C93    S175    1.850   .     S
C93    C620    1.461   1_545 S
C94    S176    1.838   .     S
C94    N137    1.395   .     A
C94    C355    1.461   .     S
C95    O166    1.304   .     A
C95    O169    1.304   .     A
C95    C101    1.452   .     S
C96    O167    1.304   .     A
C96    C99     1.452   .     S
C96    O168    1.304   .     A
C97    H121    1.083   .     S
C97    C99     1.390   .     A
C97    C108    1.388   .     A
C98    C109    1.388   .     A
C98    C101    1.389   .     A
C98    H129    1.083   .     S
C99    C102    1.413   .     A
C100   O150    1.306   .     A
C100   O161    1.311   .     A
C100   C118    1.468   .     S
C101   C103    1.412   .     A
C102   C104    1.417   .     A
C102   O170    1.380   .     S
C103   O140    1.380   .     S
C103   C105    1.417   .     A
C104   C110    1.427   .     A
C104   C106    1.428   .     A
C105   C112    1.427   .     A
C105   C107    1.428   .     A
C106   C108    1.408   .     A
C106   C899    1.409   .     S
C107   C109    1.408   .     A
C107   C898    1.409   1_554 S
C108   C113    1.396   .     A
C109   C111    1.396   .     A
C110   S171    1.782   .     S
C110   C903    1.397   .     S
C111   H130    1.083   .     S
C111   C902    1.397   1_554 S
C112   S172    1.782   .     S
C112   C905    1.397   1_554 S
C113   H131    1.083   .     S
C113   C904    1.397   .     S
C114   O147    1.383   .     S
C115   O148    1.377   .     S
C115   C118    1.412   .     A
C115   C205    1.382   .     S
C116   O149    1.383   .     S
C116   C118    1.414   .     A
C116   C202    1.403   .     S
C117   O151    1.377   .     S
Cu119  O168    1.960   .     S
Cu119  O166    1.960   .     S
Cu119  O161    1.979   .     S
Cu119  N137    2.044   .     S
Cu119  Cu120   2.720   .     S
Cu119  O139    1.979   .     S
Cu120  O169    1.960   .     S
Cu120  O165    1.979   .     S
Cu120  N138    2.044   .     S
Cu120  O150    1.979   .     S
Cu120  O167    1.960   .     S
H122   O148    0.991   .     S
H123   O149    0.991   .     S
H124   O151    0.991   .     S
H125   O154    0.991   .     S
H126   O157    0.991   .     S
H127   O160    0.991   .     S
H128   O164    0.991   .     S
H132   O170    0.988   .     S
H133   O140    0.988   .     S
H134   O143    0.990   .     S
H135   O146    0.991   .     S
H136   O147    0.991   .     S
O141   S171    1.503   .     D
O142   S171    1.503   .     D
O143   S171    1.683   .     S
O144   S172    1.504   .     D
O145   S172    1.503   .     D
O146   S172    1.683   .     S
O152   S173    1.504   .     D
O153   S173    1.498   .     D
O154   S173    1.673   .     S
O155   S174    1.503   .     D
O156   S174    1.502   .     D
O157   S174    1.672   .     S
O158   S175    1.504   .     D
O159   S175    1.498   .     D
O160   S175    1.673   .     S
O162   S176    1.503   .     D
O163   S176    1.502   .     D
O164   S176    1.672   .     S
C177   O253    1.306   .     A
C177   C178    1.468   .     S
C177   O227    1.311   .     A
C178   C205    1.412   .     A
C178   C202    1.414   .     A
C179   S261    1.850   .     S
C179   N226    1.398   .     A
C179   C710    1.461   1_545 S
C180   S262    1.838   .     S
C180   N225    1.395   .     A
C180   C445    1.461   .     S
C181   N226    1.398   .     A
C181   S263    1.850   .     S
C181   C708    1.461   1_545 S
C182   S264    1.838   .     S
C182   N225    1.395   .     A
C182   C443    1.461   .     S
C183   O254    1.304   .     A
C183   O257    1.304   .     A
C183   C189    1.452   .     S
C184   O255    1.304   .     A
C184   C187    1.452   .     S
C184   O256    1.304   .     A
C185   H209    1.083   .     S
C185   C187    1.390   .     A
C185   C196    1.388   .     A
C186   C197    1.388   .     A
C186   C189    1.389   .     A
C186   H217    1.083   .     S
C187   C190    1.413   .     A
C188   O238    1.306   .     A
C188   O249    1.311   .     A
C188   C206    1.468   .     S
C189   C191    1.412   .     A
C190   C192    1.417   .     A
C190   O258    1.380   .     S
C191   O228    1.380   .     S
C191   C193    1.417   .     A
C192   C198    1.427   .     A
C192   C194    1.428   .     A
C193   C200    1.427   .     A
C193   C195    1.428   .     A
C194   C196    1.408   .     A
C194   C987    1.409   .     S
C195   C197    1.408   .     A
C195   C986    1.409   1_554 S
C196   C201    1.396   .     A
C197   C199    1.396   .     A
C198   S259    1.782   .     S
C198   C991    1.397   .     S
C199   H218    1.083   .     S
C199   C990    1.397   1_554 S
C200   S260    1.782   .     S
C200   C993    1.397   1_554 S
C201   H219    1.083   .     S
C201   C992    1.397   .     S
C202   O235    1.383   .     S
C203   O236    1.377   .     S
C203   C206    1.412   .     A
C203   C29     1.382   1_655 S
C204   O237    1.383   .     S
C204   C206    1.414   .     A
C204   C26     1.403   1_655 S
C205   O239    1.377   .     S
Cu207  O256    1.960   .     S
Cu207  O254    1.960   .     S
Cu207  O249    1.979   .     S
Cu207  N225    2.044   .     S
Cu207  Cu208   2.720   .     S
Cu207  O227    1.979   .     S
Cu208  O257    1.960   .     S
Cu208  O253    1.979   .     S
Cu208  N226    2.044   .     S
Cu208  O238    1.979   .     S
Cu208  O255    1.960   .     S
H210   O236    0.991   .     S
H211   O237    0.991   .     S
H212   O239    0.991   .     S
H213   O242    0.991   .     S
H214   O245    0.991   .     S
H215   O248    0.991   .     S
H216   O252    0.991   .     S
H220   O258    0.988   .     S
H221   O228    0.988   .     S
H222   O231    0.990   .     S
H223   O234    0.991   .     S
H224   O235    0.991   .     S
O229   S259    1.503   .     D
O230   S259    1.503   .     D
O231   S259    1.683   .     S
O232   S260    1.504   .     D
O233   S260    1.503   .     D
O234   S260    1.683   .     S
O240   S261    1.504   .     D
O241   S261    1.498   .     D
O242   S261    1.673   .     S
O243   S262    1.503   .     D
O244   S262    1.502   .     D
O245   S262    1.672   .     S
O246   S263    1.504   .     D
O247   S263    1.498   .     D
O248   S263    1.673   .     S
O250   S264    1.503   .     D
O251   S264    1.502   .     D
O252   S264    1.672   .     S
C265   O341    1.306   .     A
C265   C266    1.468   .     S
C265   O315    1.311   .     A
C266   C293    1.412   .     A
C266   C290    1.414   .     A
C267   S349    1.850   .     S
C267   N314    1.398   .     A
C268   S350    1.838   .     S
C268   N313    1.395   .     A
C268   C533    1.461   .     S
C269   N314    1.398   .     A
C269   S351    1.850   .     S
C270   S352    1.838   .     S
C270   N313    1.395   .     A
C270   C531    1.461   .     S
C271   O342    1.304   .     A
C271   O345    1.304   .     A
C271   C277    1.452   .     S
C272   O343    1.304   .     A
C272   C275    1.452   .     S
C272   O344    1.304   .     A
C273   H297    1.083   .     S
C273   C275    1.390   .     A
C273   C284    1.388   .     A
C274   C285    1.388   .     A
C274   C277    1.389   .     A
C274   H305    1.083   .     S
C275   C278    1.413   .     A
C276   O326    1.306   .     A
C276   O337    1.311   .     A
C276   C294    1.468   .     S
C277   C279    1.412   .     A
C278   C280    1.417   .     A
C278   O346    1.380   .     S
C279   O316    1.380   .     S
C279   C281    1.417   .     A
C280   C286    1.427   .     A
C280   C282    1.428   .     A
C281   C288    1.427   .     A
C281   C283    1.428   .     A
C282   C284    1.408   .     A
C282   C1075   1.409   .     S
C283   C285    1.408   .     A
C283   C1074   1.409   1_554 S
C284   C289    1.396   .     A
C285   C287    1.396   .     A
C286   S347    1.782   .     S
C286   C1079   1.397   .     S
C287   H306    1.083   .     S
C287   C1078   1.397   1_554 S
C288   S348    1.782   .     S
C288   C1081   1.397   1_554 S
C289   H307    1.083   .     S
C289   C1080   1.397   .     S
C290   O323    1.383   .     S
C290   C468    1.403   1_455 S
C291   O324    1.377   .     S
C291   C294    1.412   .     A
C291   C381    1.382   .     S
C292   O325    1.383   .     S
C292   C294    1.414   .     A
C292   C378    1.403   .     S
C293   O327    1.377   .     S
C293   C467    1.382   1_455 S
Cu295  O344    1.960   .     S
Cu295  O342    1.960   .     S
Cu295  O337    1.979   .     S
Cu295  N313    2.044   .     S
Cu295  Cu296   2.720   .     S
Cu295  O315    1.979   .     S
Cu296  O345    1.960   .     S
Cu296  O341    1.979   .     S
Cu296  N314    2.044   .     S
Cu296  O326    1.979   .     S
Cu296  O343    1.960   .     S
H298   O324    0.991   .     S
H299   O325    0.991   .     S
H300   O327    0.991   .     S
H301   O330    0.991   .     S
H302   O333    0.991   .     S
H303   O336    0.991   .     S
H304   O340    0.991   .     S
H308   O346    0.988   .     S
H309   O316    0.988   .     S
H310   O319    0.990   .     S
H311   O322    0.991   .     S
H312   O323    0.991   .     S
O317   S347    1.503   .     D
O318   S347    1.503   .     D
O319   S347    1.683   .     S
O320   S348    1.504   .     D
O321   S348    1.503   .     D
O322   S348    1.683   .     S
O328   S349    1.504   .     D
O329   S349    1.498   .     D
O330   S349    1.673   .     S
O331   S350    1.503   .     D
O332   S350    1.502   .     D
O333   S350    1.672   .     S
O334   S351    1.504   .     D
O335   S351    1.498   .     D
O336   S351    1.673   .     S
O338   S352    1.503   .     D
O339   S352    1.502   .     D
O340   S352    1.672   .     S
C353   O429    1.306   .     A
C353   C354    1.468   .     S
C353   O403    1.311   .     A
C354   C381    1.412   .     A
C354   C378    1.414   .     A
C355   S437    1.850   .     S
C355   N402    1.398   .     A
C356   S438    1.838   .     S
C356   N401    1.395   .     A
C356   C621    1.461   .     S
C357   N402    1.398   .     A
C357   S439    1.850   .     S
C358   S440    1.838   .     S
C358   N401    1.395   .     A
C358   C619    1.461   .     S
C359   O430    1.304   .     A
C359   O433    1.304   .     A
C359   C365    1.452   .     S
C360   O431    1.304   .     A
C360   C363    1.452   .     S
C360   O432    1.304   .     A
C361   H385    1.083   .     S
C361   C363    1.390   .     A
C361   C372    1.388   .     A
C362   C373    1.388   .     A
C362   C365    1.389   .     A
C362   H393    1.083   .     S
C363   C366    1.413   .     A
C364   O414    1.306   .     A
C364   O425    1.311   .     A
C364   C382    1.468   .     S
C365   C367    1.412   .     A
C366   C368    1.417   .     A
C366   O434    1.380   .     S
C367   O404    1.380   .     S
C367   C369    1.417   .     A
C368   C374    1.427   .     A
C368   C370    1.428   .     A
C369   C376    1.427   .     A
C369   C371    1.428   .     A
C370   C372    1.408   .     A
C370   C1163   1.409   .     S
C371   C373    1.408   .     A
C371   C1162   1.409   1_554 S
C372   C377    1.396   .     A
C373   C375    1.396   .     A
C374   S435    1.782   .     S
C374   C1167   1.397   .     S
C375   H394    1.083   .     S
C375   C1166   1.397   1_554 S
C376   S436    1.782   .     S
C376   C1169   1.397   1_554 S
C377   H395    1.083   .     S
C377   C1168   1.397   .     S
C378   O411    1.383   .     S
C379   O412    1.377   .     S
C379   C382    1.412   .     A
C379   C469    1.382   .     S
C380   O413    1.383   .     S
C380   C382    1.414   .     A
C380   C466    1.403   .     S
C381   O415    1.377   .     S
Cu383  O432    1.960   .     S
Cu383  O430    1.960   .     S
Cu383  O425    1.979   .     S
Cu383  N401    2.044   .     S
Cu383  Cu384   2.720   .     S
Cu383  O403    1.979   .     S
Cu384  O433    1.960   .     S
Cu384  O429    1.979   .     S
Cu384  N402    2.044   .     S
Cu384  O414    1.979   .     S
Cu384  O431    1.960   .     S
H386   O412    0.991   .     S
H387   O413    0.991   .     S
H388   O415    0.991   .     S
H389   O418    0.991   .     S
H390   O421    0.991   .     S
H391   O424    0.991   .     S
H392   O428    0.991   .     S
H396   O434    0.988   .     S
H397   O404    0.988   .     S
H398   O407    0.990   .     S
H399   O410    0.991   .     S
H400   O411    0.991   .     S
O405   S435    1.503   .     D
O406   S435    1.503   .     D
O407   S435    1.683   .     S
O408   S436    1.504   .     D
O409   S436    1.503   .     D
O410   S436    1.683   .     S
O416   S437    1.504   .     D
O417   S437    1.498   .     D
O418   S437    1.673   .     S
O419   S438    1.503   .     D
O420   S438    1.502   .     D
O421   S438    1.672   .     S
O422   S439    1.504   .     D
O423   S439    1.498   .     D
O424   S439    1.673   .     S
O426   S440    1.503   .     D
O427   S440    1.502   .     D
O428   S440    1.672   .     S
C441   O517    1.306   .     A
C441   C442    1.468   .     S
C441   O491    1.311   .     A
C442   C469    1.412   .     A
C442   C466    1.414   .     A
C443   S525    1.850   .     S
C443   N490    1.398   .     A
C444   S526    1.838   .     S
C444   N489    1.395   .     A
C444   C709    1.461   .     S
C445   N490    1.398   .     A
C445   S527    1.850   .     S
C446   S528    1.838   .     S
C446   N489    1.395   .     A
C446   C707    1.461   .     S
C447   O518    1.304   .     A
C447   O521    1.304   .     A
C447   C453    1.452   .     S
C448   O519    1.304   .     A
C448   C451    1.452   .     S
C448   O520    1.304   .     A
C449   H473    1.083   .     S
C449   C451    1.390   .     A
C449   C460    1.388   .     A
C450   C461    1.388   .     A
C450   C453    1.389   .     A
C450   H481    1.083   .     S
C451   C454    1.413   .     A
C452   O502    1.306   .     A
C452   O513    1.311   .     A
C452   C470    1.468   .     S
C453   C455    1.412   .     A
C454   C456    1.417   .     A
C454   O522    1.380   .     S
C455   O492    1.380   .     S
C455   C457    1.417   .     A
C456   C462    1.427   .     A
C456   C458    1.428   .     A
C457   C464    1.427   .     A
C457   C459    1.428   .     A
C458   C460    1.408   .     A
C458   C1251   1.409   .     S
C459   C461    1.408   .     A
C459   C1250   1.409   1_554 S
C460   C465    1.396   .     A
C461   C463    1.396   .     A
C462   S523    1.782   .     S
C462   C1255   1.397   .     S
C463   H482    1.083   .     S
C463   C1254   1.397   1_554 S
C464   S524    1.782   .     S
C464   C1257   1.397   1_554 S
C465   H483    1.083   .     S
C465   C1256   1.397   .     S
C466   O499    1.383   .     S
C467   O500    1.377   .     S
C467   C470    1.412   .     A
C467   C293    1.382   1_655 S
C468   O501    1.383   .     S
C468   C470    1.414   .     A
C468   C290    1.403   1_655 S
C469   O503    1.377   .     S
Cu471  O520    1.960   .     S
Cu471  O518    1.960   .     S
Cu471  O513    1.979   .     S
Cu471  N489    2.044   .     S
Cu471  Cu472   2.720   .     S
Cu471  O491    1.979   .     S
Cu472  O521    1.960   .     S
Cu472  O517    1.979   .     S
Cu472  N490    2.044   .     S
Cu472  O502    1.979   .     S
Cu472  O519    1.960   .     S
H474   O500    0.991   .     S
H475   O501    0.991   .     S
H476   O503    0.991   .     S
H477   O506    0.991   .     S
H478   O509    0.991   .     S
H479   O512    0.991   .     S
H480   O516    0.991   .     S
H484   O522    0.988   .     S
H485   O492    0.988   .     S
H486   O495    0.990   .     S
H487   O498    0.991   .     S
H488   O499    0.991   .     S
O493   S523    1.503   .     D
O494   S523    1.503   .     D
O495   S523    1.683   .     S
O496   S524    1.504   .     D
O497   S524    1.503   .     D
O498   S524    1.683   .     S
O504   S525    1.504   .     D
O505   S525    1.498   .     D
O506   S525    1.673   .     S
O507   S526    1.503   .     D
O508   S526    1.502   .     D
O509   S526    1.672   .     S
O510   S527    1.504   .     D
O511   S527    1.498   .     D
O512   S527    1.673   .     S
O514   S528    1.503   .     D
O515   S528    1.502   .     D
O516   S528    1.672   .     S
C529   O605    1.306   .     A
C529   C530    1.468   .     S
C529   O579    1.311   .     A
C530   C557    1.412   .     A
C530   C554    1.414   .     A
C531   S613    1.850   .     S
C531   N578    1.398   .     A
C532   S614    1.838   .     S
C532   N577    1.395   .     A
C532   C5      1.461   1_565 S
C533   N578    1.398   .     A
C533   S615    1.850   .     S
C534   S616    1.838   .     S
C534   N577    1.395   .     A
C534   C3      1.461   1_565 S
C535   O606    1.304   .     A
C535   O609    1.304   .     A
C535   C541    1.452   .     S
C536   O607    1.304   .     A
C536   C539    1.452   .     S
C536   O608    1.304   .     A
C537   H561    1.083   .     S
C537   C539    1.390   .     A
C537   C548    1.388   .     A
C538   C549    1.388   .     A
C538   C541    1.389   .     A
C538   H569    1.083   .     S
C539   C542    1.413   .     A
C540   O590    1.306   .     A
C540   O601    1.311   .     A
C540   C558    1.468   .     S
C541   C543    1.412   .     A
C542   C544    1.417   .     A
C542   O610    1.380   .     S
C543   O580    1.380   .     S
C543   C545    1.417   .     A
C544   C550    1.427   .     A
C544   C546    1.428   .     A
C545   C552    1.427   .     A
C545   C547    1.428   .     A
C546   C548    1.408   .     A
C546   C1339   1.409   .     S
C547   C549    1.408   .     A
C547   C1338   1.409   1_554 S
C548   C553    1.396   .     A
C549   C551    1.396   .     A
C550   S611    1.782   .     S
C550   C1343   1.397   .     S
C551   H570    1.083   .     S
C551   C1342   1.397   1_554 S
C552   S612    1.782   .     S
C552   C1345   1.397   1_554 S
C553   H571    1.083   .     S
C553   C1344   1.397   .     S
C554   O587    1.383   .     S
C554   C732    1.403   1_455 S
C555   O588    1.377   .     S
C555   C558    1.412   .     A
C555   C645    1.382   .     S
C556   O589    1.383   .     S
C556   C558    1.414   .     A
C556   C642    1.403   .     S
C557   O591    1.377   .     S
C557   C731    1.382   1_455 S
Cu559  O608    1.960   .     S
Cu559  O606    1.960   .     S
Cu559  O601    1.979   .     S
Cu559  N577    2.044   .     S
Cu559  Cu560   2.720   .     S
Cu559  O579    1.979   .     S
Cu560  O609    1.960   .     S
Cu560  O605    1.979   .     S
Cu560  N578    2.044   .     S
Cu560  O590    1.979   .     S
Cu560  O607    1.960   .     S
H562   O588    0.991   .     S
H563   O589    0.991   .     S
H564   O591    0.991   .     S
H565   O594    0.991   .     S
H566   O597    0.991   .     S
H567   O600    0.991   .     S
H568   O604    0.991   .     S
H572   O610    0.988   .     S
H573   O580    0.988   .     S
H574   O583    0.990   .     S
H575   O586    0.991   .     S
H576   O587    0.991   .     S
O581   S611    1.503   .     D
O582   S611    1.503   .     D
O583   S611    1.683   .     S
O584   S612    1.504   .     D
O585   S612    1.503   .     D
O586   S612    1.683   .     S
O592   S613    1.504   .     D
O593   S613    1.498   .     D
O594   S613    1.673   .     S
O595   S614    1.503   .     D
O596   S614    1.502   .     D
O597   S614    1.672   .     S
O598   S615    1.504   .     D
O599   S615    1.498   .     D
O600   S615    1.673   .     S
O602   S616    1.503   .     D
O603   S616    1.502   .     D
O604   S616    1.672   .     S
C617   O693    1.306   .     A
C617   C618    1.468   .     S
C617   O667    1.311   .     A
C618   C645    1.412   .     A
C618   C642    1.414   .     A
C619   S701    1.850   .     S
C619   N666    1.398   .     A
C620   S702    1.838   .     S
C620   N665    1.395   .     A
C620   C93     1.461   1_565 S
C621   N666    1.398   .     A
C621   S703    1.850   .     S
C622   S704    1.838   .     S
C622   N665    1.395   .     A
C622   C91     1.461   1_565 S
C623   O694    1.304   .     A
C623   O697    1.304   .     A
C623   C629    1.452   .     S
C624   O695    1.304   .     A
C624   C627    1.452   .     S
C624   O696    1.304   .     A
C625   H649    1.083   .     S
C625   C627    1.390   .     A
C625   C636    1.388   .     A
C626   C637    1.388   .     A
C626   C629    1.389   .     A
C626   H657    1.083   .     S
C627   C630    1.413   .     A
C628   O678    1.306   .     A
C628   O689    1.311   .     A
C628   C646    1.468   .     S
C629   C631    1.412   .     A
C630   C632    1.417   .     A
C630   O698    1.380   .     S
C631   O668    1.380   .     S
C631   C633    1.417   .     A
C632   C638    1.427   .     A
C632   C634    1.428   .     A
C633   C640    1.427   .     A
C633   C635    1.428   .     A
C634   C636    1.408   .     A
C634   C1427   1.409   .     S
C635   C637    1.408   .     A
C635   C1426   1.409   1_554 S
C636   C641    1.396   .     A
C637   C639    1.396   .     A
C638   S699    1.782   .     S
C638   C1431   1.397   .     S
C639   H658    1.083   .     S
C639   C1430   1.397   1_554 S
C640   S700    1.782   .     S
C640   C1433   1.397   1_554 S
C641   H659    1.083   .     S
C641   C1432   1.397   .     S
C642   O675    1.383   .     S
C643   O676    1.377   .     S
C643   C646    1.412   .     A
C643   C733    1.382   .     S
C644   O677    1.383   .     S
C644   C646    1.414   .     A
C644   C730    1.403   .     S
C645   O679    1.377   .     S
Cu647  O696    1.960   .     S
Cu647  O694    1.960   .     S
Cu647  O689    1.979   .     S
Cu647  N665    2.044   .     S
Cu647  Cu648   2.720   .     S
Cu647  O667    1.979   .     S
Cu648  O697    1.960   .     S
Cu648  O693    1.979   .     S
Cu648  N666    2.044   .     S
Cu648  O678    1.979   .     S
Cu648  O695    1.960   .     S
H650   O676    0.991   .     S
H651   O677    0.991   .     S
H652   O679    0.991   .     S
H653   O682    0.991   .     S
H654   O685    0.991   .     S
H655   O688    0.991   .     S
H656   O692    0.991   .     S
H660   O698    0.988   .     S
H661   O668    0.988   .     S
H662   O671    0.990   .     S
H663   O674    0.991   .     S
H664   O675    0.991   .     S
O669   S699    1.503   .     D
O670   S699    1.503   .     D
O671   S699    1.683   .     S
O672   S700    1.504   .     D
O673   S700    1.503   .     D
O674   S700    1.683   .     S
O680   S701    1.504   .     D
O681   S701    1.498   .     D
O682   S701    1.673   .     S
O683   S702    1.503   .     D
O684   S702    1.502   .     D
O685   S702    1.672   .     S
O686   S703    1.504   .     D
O687   S703    1.498   .     D
O688   S703    1.673   .     S
O690   S704    1.503   .     D
O691   S704    1.502   .     D
O692   S704    1.672   .     S
C705   O781    1.306   .     A
C705   C706    1.468   .     S
C705   O755    1.311   .     A
C706   C733    1.412   .     A
C706   C730    1.414   .     A
C707   S789    1.850   .     S
C707   N754    1.398   .     A
C708   S790    1.838   .     S
C708   N753    1.395   .     A
C708   C181    1.461   1_565 S
C709   N754    1.398   .     A
C709   S791    1.850   .     S
C710   S792    1.838   .     S
C710   N753    1.395   .     A
C710   C179    1.461   1_565 S
C711   O782    1.304   .     A
C711   O785    1.304   .     A
C711   C717    1.452   .     S
C712   O783    1.304   .     A
C712   C715    1.452   .     S
C712   O784    1.304   .     A
C713   H737    1.083   .     S
C713   C715    1.390   .     A
C713   C724    1.388   .     A
C714   C725    1.388   .     A
C714   C717    1.389   .     A
C714   H745    1.083   .     S
C715   C718    1.413   .     A
C716   O766    1.306   .     A
C716   O777    1.311   .     A
C716   C734    1.468   .     S
C717   C719    1.412   .     A
C718   C720    1.417   .     A
C718   O786    1.380   .     S
C719   O756    1.380   .     S
C719   C721    1.417   .     A
C720   C726    1.427   .     A
C720   C722    1.428   .     A
C721   C728    1.427   .     A
C721   C723    1.428   .     A
C722   C724    1.408   .     A
C722   C1515   1.409   .     S
C723   C725    1.408   .     A
C723   C1514   1.409   1_554 S
C724   C729    1.396   .     A
C725   C727    1.396   .     A
C726   S787    1.782   .     S
C726   C1519   1.397   .     S
C727   H746    1.083   .     S
C727   C1518   1.397   1_554 S
C728   S788    1.782   .     S
C728   C1521   1.397   1_554 S
C729   H747    1.083   .     S
C729   C1520   1.397   .     S
C730   O763    1.383   .     S
C731   O764    1.377   .     S
C731   C734    1.412   .     A
C731   C557    1.382   1_655 S
C732   O765    1.383   .     S
C732   C734    1.414   .     A
C732   C554    1.403   1_655 S
C733   O767    1.377   .     S
Cu735  O784    1.960   .     S
Cu735  O782    1.960   .     S
Cu735  O777    1.979   .     S
Cu735  N753    2.044   .     S
Cu735  Cu736   2.720   .     S
Cu735  O755    1.979   .     S
Cu736  O785    1.960   .     S
Cu736  O781    1.979   .     S
Cu736  N754    2.044   .     S
Cu736  O766    1.979   .     S
Cu736  O783    1.960   .     S
H738   O764    0.991   .     S
H739   O765    0.991   .     S
H740   O767    0.991   .     S
H741   O770    0.991   .     S
H742   O773    0.991   .     S
H743   O776    0.991   .     S
H744   O780    0.991   .     S
H748   O786    0.988   .     S
H749   O756    0.988   .     S
H750   O759    0.990   .     S
H751   O762    0.991   .     S
H752   O763    0.991   .     S
O757   S787    1.503   .     D
O758   S787    1.503   .     D
O759   S787    1.683   .     S
O760   S788    1.504   .     D
O761   S788    1.503   .     D
O762   S788    1.683   .     S
O768   S789    1.504   .     D
O769   S789    1.498   .     D
O770   S789    1.673   .     S
O771   S790    1.503   .     D
O772   S790    1.502   .     D
O773   S790    1.672   .     S
O774   S791    1.504   .     D
O775   S791    1.498   .     D
O776   S791    1.673   .     S
O778   S792    1.503   .     D
O779   S792    1.502   .     D
O780   S792    1.672   .     S
C793   O869    1.306   .     A
C793   C794    1.468   .     S
C793   O843    1.311   .     A
C794   C821    1.412   .     A
C794   C818    1.414   .     A
C795   S877    1.850   .     S
C795   N842    1.398   .     A
C795   C1326   1.461   1_545 S
C796   S878    1.838   .     S
C796   N841    1.395   .     A
C796   C1061   1.461   .     S
C797   N842    1.398   .     A
C797   S879    1.850   .     S
C797   C1324   1.461   1_545 S
C798   S880    1.838   .     S
C798   N841    1.395   .     A
C798   C1059   1.461   .     S
C799   O870    1.304   .     A
C799   O873    1.304   .     A
C799   C805    1.452   .     S
C800   O871    1.304   .     A
C800   C803    1.452   .     S
C800   O872    1.304   .     A
C801   H825    1.083   .     S
C801   C803    1.390   .     A
C801   C812    1.388   .     A
C802   C813    1.388   .     A
C802   C805    1.389   .     A
C802   H833    1.083   .     S
C803   C806    1.413   .     A
C804   O854    1.306   .     A
C804   O865    1.311   .     A
C804   C822    1.468   .     S
C805   C807    1.412   .     A
C806   C808    1.417   .     A
C806   O874    1.380   .     S
C807   O844    1.380   .     S
C807   C809    1.417   .     A
C808   C814    1.427   .     A
C808   C810    1.428   .     A
C809   C816    1.427   .     A
C809   C811    1.428   .     A
C810   C812    1.408   .     A
C810   C19     1.409   1_556 S
C811   C813    1.408   .     A
C812   C817    1.396   .     A
C813   C815    1.396   .     A
C814   S875    1.782   .     S
C814   C23     1.397   1_556 S
C815   H834    1.083   .     S
C816   S876    1.782   .     S
C817   H835    1.083   .     S
C817   C24     1.397   1_556 S
C818   O851    1.383   .     S
C818   C996    1.403   1_455 S
C819   O852    1.377   .     S
C819   C822    1.412   .     A
C819   C909    1.382   .     S
C820   O853    1.383   .     S
C820   C822    1.414   .     A
C820   C906    1.403   .     S
C821   O855    1.377   .     S
C821   C995    1.382   1_455 S
Cu823  O872    1.960   .     S
Cu823  O870    1.960   .     S
Cu823  O865    1.979   .     S
Cu823  N841    2.044   .     S
Cu823  Cu824   2.720   .     S
Cu823  O843    1.979   .     S
Cu824  O873    1.960   .     S
Cu824  O869    1.979   .     S
Cu824  N842    2.044   .     S
Cu824  O854    1.979   .     S
Cu824  O871    1.960   .     S
H826   O852    0.991   .     S
H827   O853    0.991   .     S
H828   O855    0.991   .     S
H829   O858    0.991   .     S
H830   O861    0.991   .     S
H831   O864    0.991   .     S
H832   O868    0.991   .     S
H836   O874    0.988   .     S
H837   O844    0.988   .     S
H838   O847    0.990   .     S
H839   O850    0.991   .     S
H840   O851    0.991   .     S
O845   S875    1.503   .     D
O846   S875    1.503   .     D
O847   S875    1.683   .     S
O848   S876    1.504   .     D
O849   S876    1.503   .     D
O850   S876    1.683   .     S
O856   S877    1.504   .     D
O857   S877    1.498   .     D
O858   S877    1.673   .     S
O859   S878    1.503   .     D
O860   S878    1.502   .     D
O861   S878    1.672   .     S
O862   S879    1.504   .     D
O863   S879    1.498   .     D
O864   S879    1.673   .     S
O866   S880    1.503   .     D
O867   S880    1.502   .     D
O868   S880    1.672   .     S
C881   O957    1.306   .     A
C881   C882    1.468   .     S
C881   O931    1.311   .     A
C882   C909    1.412   .     A
C882   C906    1.414   .     A
C883   S965    1.850   .     S
C883   N930    1.398   .     A
C883   C1414   1.461   1_545 S
C884   S966    1.838   .     S
C884   N929    1.395   .     A
C884   C1149   1.461   .     S
C885   N930    1.398   .     A
C885   S967    1.850   .     S
C885   C1412   1.461   1_545 S
C886   S968    1.838   .     S
C886   N929    1.395   .     A
C886   C1147   1.461   .     S
C887   O958    1.304   .     A
C887   O961    1.304   .     A
C887   C893    1.452   .     S
C888   O959    1.304   .     A
C888   C891    1.452   .     S
C888   O960    1.304   .     A
C889   H913    1.083   .     S
C889   C891    1.390   .     A
C889   C900    1.388   .     A
C890   C901    1.388   .     A
C890   C893    1.389   .     A
C890   H921    1.083   .     S
C891   C894    1.413   .     A
C892   O942    1.306   .     A
C892   O953    1.311   .     A
C892   C910    1.468   .     S
C893   C895    1.412   .     A
C894   C896    1.417   .     A
C894   O962    1.380   .     S
C895   O932    1.380   .     S
C895   C897    1.417   .     A
C896   C902    1.427   .     A
C896   C898    1.428   .     A
C897   C904    1.427   .     A
C897   C899    1.428   .     A
C898   C900    1.408   .     A
C898   C107    1.409   1_556 S
C899   C901    1.408   .     A
C900   C905    1.396   .     A
C901   C903    1.396   .     A
C902   S963    1.782   .     S
C902   C111    1.397   1_556 S
C903   H922    1.083   .     S
C904   S964    1.782   .     S
C905   H923    1.083   .     S
C905   C112    1.397   1_556 S
C906   O939    1.383   .     S
C907   O940    1.377   .     S
C907   C910    1.412   .     A
C907   C997    1.382   .     S
C908   O941    1.383   .     S
C908   C910    1.414   .     A
C908   C994    1.403   .     S
C909   O943    1.377   .     S
Cu911  O960    1.960   .     S
Cu911  O958    1.960   .     S
Cu911  O953    1.979   .     S
Cu911  N929    2.044   .     S
Cu911  Cu912   2.720   .     S
Cu911  O931    1.979   .     S
Cu912  O961    1.960   .     S
Cu912  O957    1.979   .     S
Cu912  N930    2.044   .     S
Cu912  O942    1.979   .     S
Cu912  O959    1.960   .     S
H914   O940    0.991   .     S
H915   O941    0.991   .     S
H916   O943    0.991   .     S
H917   O946    0.991   .     S
H918   O949    0.991   .     S
H919   O952    0.991   .     S
H920   O956    0.991   .     S
H924   O962    0.988   .     S
H925   O932    0.988   .     S
H926   O935    0.990   .     S
H927   O938    0.991   .     S
H928   O939    0.991   .     S
O933   S963    1.503   .     D
O934   S963    1.503   .     D
O935   S963    1.683   .     S
O936   S964    1.504   .     D
O937   S964    1.503   .     D
O938   S964    1.683   .     S
O944   S965    1.504   .     D
O945   S965    1.498   .     D
O946   S965    1.673   .     S
O947   S966    1.503   .     D
O948   S966    1.502   .     D
O949   S966    1.672   .     S
O950   S967    1.504   .     D
O951   S967    1.498   .     D
O952   S967    1.673   .     S
O954   S968    1.503   .     D
O955   S968    1.502   .     D
O956   S968    1.672   .     S
C969   O1045   1.306   .     A
C969   C970    1.468   .     S
C969   O1019   1.311   .     A
C970   C997    1.412   .     A
C970   C994    1.414   .     A
C971   S1053   1.850   .     S
C971   N1018   1.398   .     A
C971   C1502   1.461   1_545 S
C972   S1054   1.838   .     S
C972   N1017   1.395   .     A
C972   C1237   1.461   .     S
C973   N1018   1.398   .     A
C973   S1055   1.850   .     S
C973   C1500   1.461   1_545 S
C974   S1056   1.838   .     S
C974   N1017   1.395   .     A
C974   C1235   1.461   .     S
C975   O1046   1.304   .     A
C975   O1049   1.304   .     A
C975   C981    1.452   .     S
C976   O1047   1.304   .     A
C976   C979    1.452   .     S
C976   O1048   1.304   .     A
C977   H1001   1.083   .     S
C977   C979    1.390   .     A
C977   C988    1.388   .     A
C978   C989    1.388   .     A
C978   C981    1.389   .     A
C978   H1009   1.083   .     S
C979   C982    1.413   .     A
C980   O1030   1.306   .     A
C980   O1041   1.311   .     A
C980   C998    1.468   .     S
C981   C983    1.412   .     A
C982   C984    1.417   .     A
C982   O1050   1.380   .     S
C983   O1020   1.380   .     S
C983   C985    1.417   .     A
C984   C990    1.427   .     A
C984   C986    1.428   .     A
C985   C992    1.427   .     A
C985   C987    1.428   .     A
C986   C988    1.408   .     A
C986   C195    1.409   1_556 S
C987   C989    1.408   .     A
C988   C993    1.396   .     A
C989   C991    1.396   .     A
C990   S1051   1.782   .     S
C990   C199    1.397   1_556 S
C991   H1010   1.083   .     S
C992   S1052   1.782   .     S
C993   H1011   1.083   .     S
C993   C200    1.397   1_556 S
C994   O1027   1.383   .     S
C995   O1028   1.377   .     S
C995   C998    1.412   .     A
C995   C821    1.382   1_655 S
C996   O1029   1.383   .     S
C996   C998    1.414   .     A
C996   C818    1.403   1_655 S
C997   O1031   1.377   .     S
Cu999  O1048   1.960   .     S
Cu999  O1046   1.960   .     S
Cu999  O1041   1.979   .     S
Cu999  N1017   2.044   .     S
Cu999  Cu1000  2.720   .     S
Cu999  O1019   1.979   .     S
Cu1000 O1049   1.960   .     S
Cu1000 O1045   1.979   .     S
Cu1000 N1018   2.044   .     S
Cu1000 O1030   1.979   .     S
Cu1000 O1047   1.960   .     S
H1002  O1028   0.991   .     S
H1003  O1029   0.991   .     S
H1004  O1031   0.991   .     S
H1005  O1034   0.991   .     S
H1006  O1037   0.991   .     S
H1007  O1040   0.991   .     S
H1008  O1044   0.991   .     S
H1012  O1050   0.988   .     S
H1013  O1020   0.988   .     S
H1014  O1023   0.990   .     S
H1015  O1026   0.991   .     S
H1016  O1027   0.991   .     S
O1021  S1051   1.503   .     D
O1022  S1051   1.503   .     D
O1023  S1051   1.683   .     S
O1024  S1052   1.504   .     D
O1025  S1052   1.503   .     D
O1026  S1052   1.683   .     S
O1032  S1053   1.504   .     D
O1033  S1053   1.498   .     D
O1034  S1053   1.673   .     S
O1035  S1054   1.503   .     D
O1036  S1054   1.502   .     D
O1037  S1054   1.672   .     S
O1038  S1055   1.504   .     D
O1039  S1055   1.498   .     D
O1040  S1055   1.673   .     S
O1042  S1056   1.503   .     D
O1043  S1056   1.502   .     D
O1044  S1056   1.672   .     S
C1057  O1133   1.306   .     A
C1057  C1058   1.468   .     S
C1057  O1107   1.311   .     A
C1058  C1085   1.412   .     A
C1058  C1082   1.414   .     A
C1059  S1141   1.850   .     S
C1059  N1106   1.398   .     A
C1060  S1142   1.838   .     S
C1060  N1105   1.395   .     A
C1060  C1325   1.461   .     S
C1061  N1106   1.398   .     A
C1061  S1143   1.850   .     S
C1062  S1144   1.838   .     S
C1062  N1105   1.395   .     A
C1062  C1323   1.461   .     S
C1063  O1134   1.304   .     A
C1063  O1137   1.304   .     A
C1063  C1069   1.452   .     S
C1064  O1135   1.304   .     A
C1064  C1067   1.452   .     S
C1064  O1136   1.304   .     A
C1065  H1089   1.083   .     S
C1065  C1067   1.390   .     A
C1065  C1076   1.388   .     A
C1066  C1077   1.388   .     A
C1066  C1069   1.389   .     A
C1066  H1097   1.083   .     S
C1067  C1070   1.413   .     A
C1068  O1118   1.306   .     A
C1068  O1129   1.311   .     A
C1068  C1086   1.468   .     S
C1069  C1071   1.412   .     A
C1070  C1072   1.417   .     A
C1070  O1138   1.380   .     S
C1071  O1108   1.380   .     S
C1071  C1073   1.417   .     A
C1072  C1078   1.427   .     A
C1072  C1074   1.428   .     A
C1073  C1080   1.427   .     A
C1073  C1075   1.428   .     A
C1074  C1076   1.408   .     A
C1074  C283    1.409   1_556 S
C1075  C1077   1.408   .     A
C1076  C1081   1.396   .     A
C1077  C1079   1.396   .     A
C1078  S1139   1.782   .     S
C1078  C287    1.397   1_556 S
C1079  H1098   1.083   .     S
C1080  S1140   1.782   .     S
C1081  H1099   1.083   .     S
C1081  C288    1.397   1_556 S
C1082  O1115   1.383   .     S
C1082  C1260   1.403   1_455 S
C1083  O1116   1.377   .     S
C1083  C1086   1.412   .     A
C1083  C1173   1.382   .     S
C1084  O1117   1.383   .     S
C1084  C1086   1.414   .     A
C1084  C1170   1.403   .     S
C1085  O1119   1.377   .     S
C1085  C1259   1.382   1_455 S
Cu1087 O1136   1.960   .     S
Cu1087 O1134   1.960   .     S
Cu1087 O1129   1.979   .     S
Cu1087 N1105   2.044   .     S
Cu1087 Cu1088  2.720   .     S
Cu1087 O1107   1.979   .     S
Cu1088 O1137   1.960   .     S
Cu1088 O1133   1.979   .     S
Cu1088 N1106   2.044   .     S
Cu1088 O1118   1.979   .     S
Cu1088 O1135   1.960   .     S
H1090  O1116   0.991   .     S
H1091  O1117   0.991   .     S
H1092  O1119   0.991   .     S
H1093  O1122   0.991   .     S
H1094  O1125   0.991   .     S
H1095  O1128   0.991   .     S
H1096  O1132   0.991   .     S
H1100  O1138   0.988   .     S
H1101  O1108   0.988   .     S
H1102  O1111   0.990   .     S
H1103  O1114   0.991   .     S
H1104  O1115   0.991   .     S
O1109  S1139   1.503   .     D
O1110  S1139   1.503   .     D
O1111  S1139   1.683   .     S
O1112  S1140   1.504   .     D
O1113  S1140   1.503   .     D
O1114  S1140   1.683   .     S
O1120  S1141   1.504   .     D
O1121  S1141   1.498   .     D
O1122  S1141   1.673   .     S
O1123  S1142   1.503   .     D
O1124  S1142   1.502   .     D
O1125  S1142   1.672   .     S
O1126  S1143   1.504   .     D
O1127  S1143   1.498   .     D
O1128  S1143   1.673   .     S
O1130  S1144   1.503   .     D
O1131  S1144   1.502   .     D
O1132  S1144   1.672   .     S
C1145  O1221   1.306   .     A
C1145  C1146   1.468   .     S
C1145  O1195   1.311   .     A
C1146  C1173   1.412   .     A
C1146  C1170   1.414   .     A
C1147  S1229   1.850   .     S
C1147  N1194   1.398   .     A
C1148  S1230   1.838   .     S
C1148  N1193   1.395   .     A
C1148  C1413   1.461   .     S
C1149  N1194   1.398   .     A
C1149  S1231   1.850   .     S
C1150  S1232   1.838   .     S
C1150  N1193   1.395   .     A
C1150  C1411   1.461   .     S
C1151  O1222   1.304   .     A
C1151  O1225   1.304   .     A
C1151  C1157   1.452   .     S
C1152  O1223   1.304   .     A
C1152  C1155   1.452   .     S
C1152  O1224   1.304   .     A
C1153  H1177   1.083   .     S
C1153  C1155   1.390   .     A
C1153  C1164   1.388   .     A
C1154  C1165   1.388   .     A
C1154  C1157   1.389   .     A
C1154  H1185   1.083   .     S
C1155  C1158   1.413   .     A
C1156  O1206   1.306   .     A
C1156  O1217   1.311   .     A
C1156  C1174   1.468   .     S
C1157  C1159   1.412   .     A
C1158  C1160   1.417   .     A
C1158  O1226   1.380   .     S
C1159  O1196   1.380   .     S
C1159  C1161   1.417   .     A
C1160  C1166   1.427   .     A
C1160  C1162   1.428   .     A
C1161  C1168   1.427   .     A
C1161  C1163   1.428   .     A
C1162  C1164   1.408   .     A
C1162  C371    1.409   1_556 S
C1163  C1165   1.408   .     A
C1164  C1169   1.396   .     A
C1165  C1167   1.396   .     A
C1166  S1227   1.782   .     S
C1166  C375    1.397   1_556 S
C1167  H1186   1.083   .     S
C1168  S1228   1.782   .     S
C1169  H1187   1.083   .     S
C1169  C376    1.397   1_556 S
C1170  O1203   1.383   .     S
C1171  O1204   1.377   .     S
C1171  C1174   1.412   .     A
C1171  C1261   1.382   .     S
C1172  O1205   1.383   .     S
C1172  C1174   1.414   .     A
C1172  C1258   1.403   .     S
C1173  O1207   1.377   .     S
Cu1175 O1224   1.960   .     S
Cu1175 O1222   1.960   .     S
Cu1175 O1217   1.979   .     S
Cu1175 N1193   2.044   .     S
Cu1175 Cu1176  2.720   .     S
Cu1175 O1195   1.979   .     S
Cu1176 O1225   1.960   .     S
Cu1176 O1221   1.979   .     S
Cu1176 N1194   2.044   .     S
Cu1176 O1206   1.979   .     S
Cu1176 O1223   1.960   .     S
H1178  O1204   0.991   .     S
H1179  O1205   0.991   .     S
H1180  O1207   0.991   .     S
H1181  O1210   0.991   .     S
H1182  O1213   0.991   .     S
H1183  O1216   0.991   .     S
H1184  O1220   0.991   .     S
H1188  O1226   0.988   .     S
H1189  O1196   0.988   .     S
H1190  O1199   0.990   .     S
H1191  O1202   0.991   .     S
H1192  O1203   0.991   .     S
O1197  S1227   1.503   .     D
O1198  S1227   1.503   .     D
O1199  S1227   1.683   .     S
O1200  S1228   1.504   .     D
O1201  S1228   1.503   .     D
O1202  S1228   1.683   .     S
O1208  S1229   1.504   .     D
O1209  S1229   1.498   .     D
O1210  S1229   1.673   .     S
O1211  S1230   1.503   .     D
O1212  S1230   1.502   .     D
O1213  S1230   1.672   .     S
O1214  S1231   1.504   .     D
O1215  S1231   1.498   .     D
O1216  S1231   1.673   .     S
O1218  S1232   1.503   .     D
O1219  S1232   1.502   .     D
O1220  S1232   1.672   .     S
C1233  O1309   1.306   .     A
C1233  C1234   1.468   .     S
C1233  O1283   1.311   .     A
C1234  C1261   1.412   .     A
C1234  C1258   1.414   .     A
C1235  S1317   1.850   .     S
C1235  N1282   1.398   .     A
C1236  S1318   1.838   .     S
C1236  N1281   1.395   .     A
C1236  C1501   1.461   .     S
C1237  N1282   1.398   .     A
C1237  S1319   1.850   .     S
C1238  S1320   1.838   .     S
C1238  N1281   1.395   .     A
C1238  C1499   1.461   .     S
C1239  O1310   1.304   .     A
C1239  O1313   1.304   .     A
C1239  C1245   1.452   .     S
C1240  O1311   1.304   .     A
C1240  C1243   1.452   .     S
C1240  O1312   1.304   .     A
C1241  H1265   1.083   .     S
C1241  C1243   1.390   .     A
C1241  C1252   1.388   .     A
C1242  C1253   1.388   .     A
C1242  C1245   1.389   .     A
C1242  H1273   1.083   .     S
C1243  C1246   1.413   .     A
C1244  O1294   1.306   .     A
C1244  O1305   1.311   .     A
C1244  C1262   1.468   .     S
C1245  C1247   1.412   .     A
C1246  C1248   1.417   .     A
C1246  O1314   1.380   .     S
C1247  O1284   1.380   .     S
C1247  C1249   1.417   .     A
C1248  C1254   1.427   .     A
C1248  C1250   1.428   .     A
C1249  C1256   1.427   .     A
C1249  C1251   1.428   .     A
C1250  C1252   1.408   .     A
C1250  C459    1.409   1_556 S
C1251  C1253   1.408   .     A
C1252  C1257   1.396   .     A
C1253  C1255   1.396   .     A
C1254  S1315   1.782   .     S
C1254  C463    1.397   1_556 S
C1255  H1274   1.083   .     S
C1256  S1316   1.782   .     S
C1257  H1275   1.083   .     S
C1257  C464    1.397   1_556 S
C1258  O1291   1.383   .     S
C1259  O1292   1.377   .     S
C1259  C1262   1.412   .     A
C1259  C1085   1.382   1_655 S
C1260  O1293   1.383   .     S
C1260  C1262   1.414   .     A
C1260  C1082   1.403   1_655 S
C1261  O1295   1.377   .     S
Cu1263 O1312   1.960   .     S
Cu1263 O1310   1.960   .     S
Cu1263 O1305   1.979   .     S
Cu1263 N1281   2.044   .     S
Cu1263 Cu1264  2.720   .     S
Cu1263 O1283   1.979   .     S
Cu1264 O1313   1.960   .     S
Cu1264 O1309   1.979   .     S
Cu1264 N1282   2.044   .     S
Cu1264 O1294   1.979   .     S
Cu1264 O1311   1.960   .     S
H1266  O1292   0.991   .     S
H1267  O1293   0.991   .     S
H1268  O1295   0.991   .     S
H1269  O1298   0.991   .     S
H1270  O1301   0.991   .     S
H1271  O1304   0.991   .     S
H1272  O1308   0.991   .     S
H1276  O1314   0.988   .     S
H1277  O1284   0.988   .     S
H1278  O1287   0.990   .     S
H1279  O1290   0.991   .     S
H1280  O1291   0.991   .     S
O1285  S1315   1.503   .     D
O1286  S1315   1.503   .     D
O1287  S1315   1.683   .     S
O1288  S1316   1.504   .     D
O1289  S1316   1.503   .     D
O1290  S1316   1.683   .     S
O1296  S1317   1.504   .     D
O1297  S1317   1.498   .     D
O1298  S1317   1.673   .     S
O1299  S1318   1.503   .     D
O1300  S1318   1.502   .     D
O1301  S1318   1.672   .     S
O1302  S1319   1.504   .     D
O1303  S1319   1.498   .     D
O1304  S1319   1.673   .     S
O1306  S1320   1.503   .     D
O1307  S1320   1.502   .     D
O1308  S1320   1.672   .     S
C1321  O1397   1.306   .     A
C1321  C1322   1.468   .     S
C1321  O1371   1.311   .     A
C1322  C1349   1.412   .     A
C1322  C1346   1.414   .     A
C1323  S1405   1.850   .     S
C1323  N1370   1.398   .     A
C1324  S1406   1.838   .     S
C1324  N1369   1.395   .     A
C1324  C797    1.461   1_565 S
C1325  N1370   1.398   .     A
C1325  S1407   1.850   .     S
C1326  S1408   1.838   .     S
C1326  N1369   1.395   .     A
C1326  C795    1.461   1_565 S
C1327  O1398   1.304   .     A
C1327  O1401   1.304   .     A
C1327  C1333   1.452   .     S
C1328  O1399   1.304   .     A
C1328  C1331   1.452   .     S
C1328  O1400   1.304   .     A
C1329  H1353   1.083   .     S
C1329  C1331   1.390   .     A
C1329  C1340   1.388   .     A
C1330  C1341   1.388   .     A
C1330  C1333   1.389   .     A
C1330  H1361   1.083   .     S
C1331  C1334   1.413   .     A
C1332  O1382   1.306   .     A
C1332  O1393   1.311   .     A
C1332  C1350   1.468   .     S
C1333  C1335   1.412   .     A
C1334  C1336   1.417   .     A
C1334  O1402   1.380   .     S
C1335  O1372   1.380   .     S
C1335  C1337   1.417   .     A
C1336  C1342   1.427   .     A
C1336  C1338   1.428   .     A
C1337  C1344   1.427   .     A
C1337  C1339   1.428   .     A
C1338  C1340   1.408   .     A
C1338  C547    1.409   1_556 S
C1339  C1341   1.408   .     A
C1340  C1345   1.396   .     A
C1341  C1343   1.396   .     A
C1342  S1403   1.782   .     S
C1342  C551    1.397   1_556 S
C1343  H1362   1.083   .     S
C1344  S1404   1.782   .     S
C1345  H1363   1.083   .     S
C1345  C552    1.397   1_556 S
C1346  O1379   1.383   .     S
C1346  C1524   1.403   1_455 S
C1347  O1380   1.377   .     S
C1347  C1350   1.412   .     A
C1347  C1437   1.382   .     S
C1348  O1381   1.383   .     S
C1348  C1350   1.414   .     A
C1348  C1434   1.403   .     S
C1349  O1383   1.377   .     S
C1349  C1523   1.382   1_455 S
Cu1351 O1400   1.960   .     S
Cu1351 O1398   1.960   .     S
Cu1351 O1393   1.979   .     S
Cu1351 N1369   2.044   .     S
Cu1351 Cu1352  2.720   .     S
Cu1351 O1371   1.979   .     S
Cu1352 O1401   1.960   .     S
Cu1352 O1397   1.979   .     S
Cu1352 N1370   2.044   .     S
Cu1352 O1382   1.979   .     S
Cu1352 O1399   1.960   .     S
H1354  O1380   0.991   .     S
H1355  O1381   0.991   .     S
H1356  O1383   0.991   .     S
H1357  O1386   0.991   .     S
H1358  O1389   0.991   .     S
H1359  O1392   0.991   .     S
H1360  O1396   0.991   .     S
H1364  O1402   0.988   .     S
H1365  O1372   0.988   .     S
H1366  O1375   0.990   .     S
H1367  O1378   0.991   .     S
H1368  O1379   0.991   .     S
O1373  S1403   1.503   .     D
O1374  S1403   1.503   .     D
O1375  S1403   1.683   .     S
O1376  S1404   1.504   .     D
O1377  S1404   1.503   .     D
O1378  S1404   1.683   .     S
O1384  S1405   1.504   .     D
O1385  S1405   1.498   .     D
O1386  S1405   1.673   .     S
O1387  S1406   1.503   .     D
O1388  S1406   1.502   .     D
O1389  S1406   1.672   .     S
O1390  S1407   1.504   .     D
O1391  S1407   1.498   .     D
O1392  S1407   1.673   .     S
O1394  S1408   1.503   .     D
O1395  S1408   1.502   .     D
O1396  S1408   1.672   .     S
C1409  O1485   1.306   .     A
C1409  C1410   1.468   .     S
C1409  O1459   1.311   .     A
C1410  C1437   1.412   .     A
C1410  C1434   1.414   .     A
C1411  S1493   1.850   .     S
C1411  N1458   1.398   .     A
C1412  S1494   1.838   .     S
C1412  N1457   1.395   .     A
C1412  C885    1.461   1_565 S
C1413  N1458   1.398   .     A
C1413  S1495   1.850   .     S
C1414  S1496   1.838   .     S
C1414  N1457   1.395   .     A
C1414  C883    1.461   1_565 S
C1415  O1486   1.304   .     A
C1415  O1489   1.304   .     A
C1415  C1421   1.452   .     S
C1416  O1487   1.304   .     A
C1416  C1419   1.452   .     S
C1416  O1488   1.304   .     A
C1417  H1441   1.083   .     S
C1417  C1419   1.390   .     A
C1417  C1428   1.388   .     A
C1418  C1429   1.388   .     A
C1418  C1421   1.389   .     A
C1418  H1449   1.083   .     S
C1419  C1422   1.413   .     A
C1420  O1470   1.306   .     A
C1420  O1481   1.311   .     A
C1420  C1438   1.468   .     S
C1421  C1423   1.412   .     A
C1422  C1424   1.417   .     A
C1422  O1490   1.380   .     S
C1423  O1460   1.380   .     S
C1423  C1425   1.417   .     A
C1424  C1430   1.427   .     A
C1424  C1426   1.428   .     A
C1425  C1432   1.427   .     A
C1425  C1427   1.428   .     A
C1426  C1428   1.408   .     A
C1426  C635    1.409   1_556 S
C1427  C1429   1.408   .     A
C1428  C1433   1.396   .     A
C1429  C1431   1.396   .     A
C1430  S1491   1.782   .     S
C1430  C639    1.397   1_556 S
C1431  H1450   1.083   .     S
C1432  S1492   1.782   .     S
C1433  H1451   1.083   .     S
C1433  C640    1.397   1_556 S
C1434  O1467   1.383   .     S
C1435  O1468   1.377   .     S
C1435  C1438   1.412   .     A
C1435  C1525   1.382   .     S
C1436  O1469   1.383   .     S
C1436  C1438   1.414   .     A
C1436  C1522   1.403   .     S
C1437  O1471   1.377   .     S
Cu1439 O1488   1.960   .     S
Cu1439 O1486   1.960   .     S
Cu1439 O1481   1.979   .     S
Cu1439 N1457   2.044   .     S
Cu1439 Cu1440  2.720   .     S
Cu1439 O1459   1.979   .     S
Cu1440 O1489   1.960   .     S
Cu1440 O1485   1.979   .     S
Cu1440 N1458   2.044   .     S
Cu1440 O1470   1.979   .     S
Cu1440 O1487   1.960   .     S
H1442  O1468   0.991   .     S
H1443  O1469   0.991   .     S
H1444  O1471   0.991   .     S
H1445  O1474   0.991   .     S
H1446  O1477   0.991   .     S
H1447  O1480   0.991   .     S
H1448  O1484   0.991   .     S
H1452  O1490   0.988   .     S
H1453  O1460   0.988   .     S
H1454  O1463   0.990   .     S
H1455  O1466   0.991   .     S
H1456  O1467   0.991   .     S
O1461  S1491   1.503   .     D
O1462  S1491   1.503   .     D
O1463  S1491   1.683   .     S
O1464  S1492   1.504   .     D
O1465  S1492   1.503   .     D
O1466  S1492   1.683   .     S
O1472  S1493   1.504   .     D
O1473  S1493   1.498   .     D
O1474  S1493   1.673   .     S
O1475  S1494   1.503   .     D
O1476  S1494   1.502   .     D
O1477  S1494   1.672   .     S
O1478  S1495   1.504   .     D
O1479  S1495   1.498   .     D
O1480  S1495   1.673   .     S
O1482  S1496   1.503   .     D
O1483  S1496   1.502   .     D
O1484  S1496   1.672   .     S
C1497  O1573   1.306   .     A
C1497  C1498   1.468   .     S
C1497  O1547   1.311   .     A
C1498  C1525   1.412   .     A
C1498  C1522   1.414   .     A
C1499  S1581   1.850   .     S
C1499  N1546   1.398   .     A
C1500  S1582   1.838   .     S
C1500  N1545   1.395   .     A
C1500  C973    1.461   1_565 S
C1501  N1546   1.398   .     A
C1501  S1583   1.850   .     S
C1502  S1584   1.838   .     S
C1502  N1545   1.395   .     A
C1502  C971    1.461   1_565 S
C1503  O1574   1.304   .     A
C1503  O1577   1.304   .     A
C1503  C1509   1.452   .     S
C1504  O1575   1.304   .     A
C1504  C1507   1.452   .     S
C1504  O1576   1.304   .     A
C1505  H1529   1.083   .     S
C1505  C1507   1.390   .     A
C1505  C1516   1.388   .     A
C1506  C1517   1.388   .     A
C1506  C1509   1.389   .     A
C1506  H1537   1.083   .     S
C1507  C1510   1.413   .     A
C1508  O1558   1.306   .     A
C1508  O1569   1.311   .     A
C1508  C1526   1.468   .     S
C1509  C1511   1.412   .     A
C1510  C1512   1.417   .     A
C1510  O1578   1.380   .     S
C1511  O1548   1.380   .     S
C1511  C1513   1.417   .     A
C1512  C1518   1.427   .     A
C1512  C1514   1.428   .     A
C1513  C1520   1.427   .     A
C1513  C1515   1.428   .     A
C1514  C1516   1.408   .     A
C1514  C723    1.409   1_556 S
C1515  C1517   1.408   .     A
C1516  C1521   1.396   .     A
C1517  C1519   1.396   .     A
C1518  S1579   1.782   .     S
C1518  C727    1.397   1_556 S
C1519  H1538   1.083   .     S
C1520  S1580   1.782   .     S
C1521  H1539   1.083   .     S
C1521  C728    1.397   1_556 S
C1522  O1555   1.383   .     S
C1523  O1556   1.377   .     S
C1523  C1526   1.412   .     A
C1523  C1349   1.382   1_655 S
C1524  O1557   1.383   .     S
C1524  C1526   1.414   .     A
C1524  C1346   1.403   1_655 S
C1525  O1559   1.377   .     S
Cu1527 O1576   1.960   .     S
Cu1527 O1574   1.960   .     S
Cu1527 O1569   1.979   .     S
Cu1527 N1545   2.044   .     S
Cu1527 Cu1528  2.720   .     S
Cu1527 O1547   1.979   .     S
Cu1528 O1577   1.960   .     S
Cu1528 O1573   1.979   .     S
Cu1528 N1546   2.044   .     S
Cu1528 O1558   1.979   .     S
Cu1528 O1575   1.960   .     S
H1530  O1556   0.991   .     S
H1531  O1557   0.991   .     S
H1532  O1559   0.991   .     S
H1533  O1562   0.991   .     S
H1534  O1565   0.991   .     S
H1535  O1568   0.991   .     S
H1536  O1572   0.991   .     S
H1540  O1578   0.988   .     S
H1541  O1548   0.988   .     S
H1542  O1551   0.990   .     S
H1543  O1554   0.991   .     S
H1544  O1555   0.991   .     S
O1549  S1579   1.503   .     D
O1550  S1579   1.503   .     D
O1551  S1579   1.683   .     S
O1552  S1580   1.504   .     D
O1553  S1580   1.503   .     D
O1554  S1580   1.683   .     S
O1560  S1581   1.504   .     D
O1561  S1581   1.498   .     D
O1562  S1581   1.673   .     S
O1563  S1582   1.503   .     D
O1564  S1582   1.502   .     D
O1565  S1582   1.672   .     S
O1566  S1583   1.504   .     D
O1567  S1583   1.498   .     D
O1568  S1583   1.673   .     S
O1570  S1584   1.503   .     D
O1571  S1584   1.502   .     D
O1572  S1584   1.672   .     S
