data_str_m2_o2_o5_pcu_sym.2
_audit_creation_date              2020-01-03
_audit_creation_method            'Materials Studio'
_symmetry_space_group_name_H-M    'P1'
_symmetry_Int_Tables_number       1
_symmetry_cell_setting            triclinic
loop_
_symmetry_equiv_pos_as_xyz
  x,y,z
_cell_length_a                    30.1874
_cell_length_b                    27.6472
_cell_length_c                    27.1312
_cell_angle_alpha                 90.0003
_cell_angle_beta                  89.9969
_cell_angle_gamma                 89.9983
loop_
_atom_site_label
_atom_site_type_symbol
_atom_site_fract_x
_atom_site_fract_y
_atom_site_fract_z
_atom_site_U_iso_or_equiv
_atom_site_adp_type
_atom_site_occupancy
C1     C     0.16494   0.25000   0.16667   0.00000  Uiso   1.00
C2     C     0.27053   0.44639   0.20474   0.00000  Uiso   1.00
C3     C     0.25000   0.25000   0.07349   0.00000  Uiso   1.00
C4     C     0.25000   0.25000   0.25984   0.00000  Uiso   1.00
C5     C     0.25000   0.02724   0.16667   0.00000  Uiso   1.00
C6     C     0.25000   0.47276   0.16667   0.00000  Uiso   1.00
C7     C     0.25000   0.25000   0.02186   0.00000  Uiso   1.00
C8     C     0.25000   0.25000   0.31148   0.00000  Uiso   1.00
C9     C     0.04689   0.28328   0.19600   0.00000  Uiso   1.00
C10    C     0.45310   0.21675   0.19604   0.00000  Uiso   1.00
C11    C     0.45312   0.28326   0.13738   0.00000  Uiso   1.00
C12    C     0.33506   0.25000   0.16667   0.00000  Uiso   1.00
C13    C     0.04689   0.21671   0.13741   0.00000  Uiso   1.00
C14    C     0.09310   0.28328   0.19662   0.00000  Uiso   1.00
C15    C     0.40689   0.21675   0.19665   0.00000  Uiso   1.00
C16    C     0.40691   0.28326   0.13672   0.00000  Uiso   1.00
C17    C     0.09310   0.21672   0.13676   0.00000  Uiso   1.00
C18    C     0.11648   0.25000   0.16668   0.00000  Uiso   1.00
C19    C     0.38352   0.25000   0.16668   0.00000  Uiso   1.00
C20    C     0.02408   0.24999   0.16671   0.00000  Uiso   1.00
C21    C     0.47592   0.25000   0.16671   0.00000  Uiso   1.00
C22    C     0.11637   0.31701   0.23016   0.00000  Uiso   1.00
C23    C     0.22953   0.10456   0.20377   0.00000  Uiso   1.00
C24    C     0.13497   0.29995   0.27429   0.00000  Uiso   1.00
C25    C     0.15857   0.33143   0.30494   0.00000  Uiso   1.00
C26    C     0.16418   0.37984   0.29140   0.00000  Uiso   1.00
C27    C     0.14576   0.39700   0.24747   0.00000  Uiso   1.00
C28    C     0.12166   0.36578   0.21701   0.00000  Uiso   1.00
C29    C     0.38361   0.18307   0.23023   0.00000  Uiso   1.00
C30    C     0.36517   0.20016   0.27444   0.00000  Uiso   1.00
C31    C     0.34154   0.16875   0.30513   0.00000  Uiso   1.00
C32    C     0.33574   0.12038   0.29157   0.00000  Uiso   1.00
C33    C     0.35400   0.10319   0.24757   0.00000  Uiso   1.00
C34    C     0.22957   0.39544   0.12954   0.00000  Uiso   1.00
C35    C     0.37813   0.13433   0.21706   0.00000  Uiso   1.00
C36    C     0.38365   0.31694   0.10313   0.00000  Uiso   1.00
C37    C     0.36510   0.29983   0.05899   0.00000  Uiso   1.00
C38    C     0.34151   0.33126   0.02829   0.00000  Uiso   1.00
C39    C     0.33584   0.37967   0.04178   0.00000  Uiso   1.00
C40    C     0.35421   0.39688   0.08572   0.00000  Uiso   1.00
C41    C     0.37830   0.36571   0.11624   0.00000  Uiso   1.00
C42    C     0.11636   0.18300   0.10320   0.00000  Uiso   1.00
C43    C     0.13497   0.20008   0.05908   0.00000  Uiso   1.00
C44    C     0.15856   0.16862   0.02840   0.00000  Uiso   1.00
C45    C     0.27047   0.10456   0.12956   0.00000  Uiso   1.00
C46    C     0.16415   0.12020   0.04189   0.00000  Uiso   1.00
C47    C     0.14571   0.10301   0.08582   0.00000  Uiso   1.00
C48    C     0.12163   0.13422   0.11630   0.00000  Uiso   1.00
C49    C     0.27043   0.39544   0.20380   0.00000  Uiso   1.00
C50    C     0.22943   0.05361   0.20472   0.00000  Uiso   1.00
C51    C     0.22947   0.44640   0.12859   0.00000  Uiso   1.00
C52    C     0.27057   0.05360   0.12862   0.00000  Uiso   1.00
Cu53   Cu    0.25000   0.29822   0.16667   0.00000  Uiso   1.00
Cu54   Cu    0.25000   0.20179   0.16667   0.00000  Uiso   1.00
F55    F     0.02403   0.31494   0.22471   0.00000  Uiso   1.00
F56    F     0.47596   0.18511   0.22478   0.00000  Uiso   1.00
F57    F     0.47599   0.31489   0.10864   0.00000  Uiso   1.00
F58    F     0.02402   0.18505   0.10871   0.00000  Uiso   1.00
F59    F     0.20859   0.03026   0.24212   0.00000  Uiso   1.00
F60    F     0.20867   0.46974   0.09117   0.00000  Uiso   1.00
F61    F     0.29140   0.03025   0.09122   0.00000  Uiso   1.00
F62    F     0.29132   0.46974   0.24216   0.00000  Uiso   1.00
H63    H     0.21305   0.12425   0.23292   0.00000  Uiso   1.00
H64    H     0.36886   0.23777   0.28486   0.00000  Uiso   1.00
H65    H     0.32746   0.18197   0.00593   0.00000  Uiso   1.00
H66    H     0.31707   0.09624   0.31514   0.00000  Uiso   1.00
H67    H     0.34931   0.06578   0.23700   0.00000  Uiso   1.00
H68    H     0.39179   0.12080   0.18282   0.00000  Uiso   1.00
H69    H     0.36870   0.26220   0.04862   0.00000  Uiso   1.00
H70    H     0.32736   0.31804   0.32754   0.00000  Uiso   1.00
H71    H     0.31720   0.40383   0.01820   0.00000  Uiso   1.00
H72    H     0.34961   0.43432   0.09623   0.00000  Uiso   1.00
H73    H     0.39204   0.37926   0.15043   0.00000  Uiso   1.00
H74    H     0.21311   0.37576   0.10037   0.00000  Uiso   1.00
H75    H     0.13143   0.23772   0.04870   0.00000  Uiso   1.00
H76    H     0.17275   0.18182   0.32766   0.00000  Uiso   1.00
H77    H     0.18278   0.09601   0.01834   0.00000  Uiso   1.00
H78    H     0.15024   0.06557   0.09633   0.00000  Uiso   1.00
H79    H     0.10784   0.12069   0.15048   0.00000  Uiso   1.00
H80    H     0.28695   0.12425   0.10041   0.00000  Uiso   1.00
H81    H     0.28689   0.37575   0.23297   0.00000  Uiso   1.00
H82    H     0.13142   0.26233   0.28470   0.00000  Uiso   1.00
H83    H     0.17277   0.31825   0.00568   0.00000  Uiso   1.00
H84    H     0.18283   0.40403   0.31493   0.00000  Uiso   1.00
H85    H     0.15030   0.43443   0.23692   0.00000  Uiso   1.00
H86    H     0.10787   0.37929   0.18283   0.00000  Uiso   1.00
N87    N     0.25000   0.12935   0.16667   0.00000  Uiso   1.00
N88    N     0.25000   0.37066   0.16667   0.00000  Uiso   1.00
O89    O     0.18573   0.29072   0.16667   0.00000  Uiso   1.00
O90    O     0.31427   0.20929   0.16666   0.00000  Uiso   1.00
O91    O     0.31427   0.29072   0.16666   0.00000  Uiso   1.00
O92    O     0.18573   0.20929   0.16667   0.00000  Uiso   1.00
O93    O     0.25000   0.29071   0.09613   0.00000  Uiso   1.00
O94    O     0.25000   0.20929   0.23720   0.00000  Uiso   1.00
O95    O     0.25000   0.29071   0.23720   0.00000  Uiso   1.00
O96    O     0.25000   0.20929   0.09613   0.00000  Uiso   1.00
C97    C     0.66494   0.25000   0.16667   0.00000  Uiso   1.00
C98    C     0.77053   0.44639   0.20474   0.00000  Uiso   1.00
C99    C     0.75000   0.25000   0.07349   0.00000  Uiso   1.00
C100   C     0.75000   0.25000   0.25984   0.00000  Uiso   1.00
C101   C     0.75000   0.02724   0.16667   0.00000  Uiso   1.00
C102   C     0.75000   0.47276   0.16667   0.00000  Uiso   1.00
C103   C     0.75000   0.25000   0.02186   0.00000  Uiso   1.00
C104   C     0.75000   0.25000   0.31148   0.00000  Uiso   1.00
C105   C     0.54689   0.28328   0.19600   0.00000  Uiso   1.00
C106   C     0.95310   0.21675   0.19604   0.00000  Uiso   1.00
C107   C     0.95312   0.28326   0.13738   0.00000  Uiso   1.00
C108   C     0.83506   0.25000   0.16667   0.00000  Uiso   1.00
C109   C     0.54689   0.21671   0.13741   0.00000  Uiso   1.00
C110   C     0.59310   0.28328   0.19662   0.00000  Uiso   1.00
C111   C     0.90689   0.21675   0.19665   0.00000  Uiso   1.00
C112   C     0.90691   0.28326   0.13672   0.00000  Uiso   1.00
C113   C     0.59310   0.21672   0.13676   0.00000  Uiso   1.00
C114   C     0.61648   0.25000   0.16668   0.00000  Uiso   1.00
C115   C     0.88352   0.25000   0.16668   0.00000  Uiso   1.00
C116   C     0.52408   0.24999   0.16671   0.00000  Uiso   1.00
C117   C     0.97592   0.25000   0.16671   0.00000  Uiso   1.00
C118   C     0.61637   0.31701   0.23016   0.00000  Uiso   1.00
C119   C     0.72953   0.10456   0.20377   0.00000  Uiso   1.00
C120   C     0.63497   0.29995   0.27429   0.00000  Uiso   1.00
C121   C     0.65857   0.33143   0.30494   0.00000  Uiso   1.00
C122   C     0.66418   0.37984   0.29140   0.00000  Uiso   1.00
C123   C     0.64576   0.39700   0.24747   0.00000  Uiso   1.00
C124   C     0.62166   0.36578   0.21701   0.00000  Uiso   1.00
C125   C     0.88361   0.18307   0.23023   0.00000  Uiso   1.00
C126   C     0.86517   0.20016   0.27444   0.00000  Uiso   1.00
C127   C     0.84154   0.16875   0.30513   0.00000  Uiso   1.00
C128   C     0.83574   0.12038   0.29157   0.00000  Uiso   1.00
C129   C     0.85400   0.10319   0.24757   0.00000  Uiso   1.00
C130   C     0.72957   0.39544   0.12954   0.00000  Uiso   1.00
C131   C     0.87813   0.13433   0.21706   0.00000  Uiso   1.00
C132   C     0.88365   0.31694   0.10313   0.00000  Uiso   1.00
C133   C     0.86510   0.29983   0.05899   0.00000  Uiso   1.00
C134   C     0.84151   0.33126   0.02829   0.00000  Uiso   1.00
C135   C     0.83584   0.37967   0.04178   0.00000  Uiso   1.00
C136   C     0.85421   0.39688   0.08572   0.00000  Uiso   1.00
C137   C     0.87830   0.36571   0.11624   0.00000  Uiso   1.00
C138   C     0.61636   0.18300   0.10320   0.00000  Uiso   1.00
C139   C     0.63497   0.20008   0.05908   0.00000  Uiso   1.00
C140   C     0.65856   0.16862   0.02840   0.00000  Uiso   1.00
C141   C     0.77047   0.10456   0.12956   0.00000  Uiso   1.00
C142   C     0.66415   0.12020   0.04189   0.00000  Uiso   1.00
C143   C     0.64571   0.10301   0.08582   0.00000  Uiso   1.00
C144   C     0.62163   0.13422   0.11630   0.00000  Uiso   1.00
C145   C     0.77043   0.39544   0.20380   0.00000  Uiso   1.00
C146   C     0.72943   0.05361   0.20472   0.00000  Uiso   1.00
C147   C     0.72947   0.44640   0.12859   0.00000  Uiso   1.00
C148   C     0.77057   0.05360   0.12862   0.00000  Uiso   1.00
Cu149  Cu    0.75000   0.29822   0.16667   0.00000  Uiso   1.00
Cu150  Cu    0.75000   0.20179   0.16667   0.00000  Uiso   1.00
F151   F     0.52403   0.31494   0.22471   0.00000  Uiso   1.00
F152   F     0.97596   0.18511   0.22478   0.00000  Uiso   1.00
F153   F     0.97599   0.31489   0.10864   0.00000  Uiso   1.00
F154   F     0.52402   0.18505   0.10871   0.00000  Uiso   1.00
F155   F     0.70859   0.03026   0.24212   0.00000  Uiso   1.00
F156   F     0.70867   0.46974   0.09117   0.00000  Uiso   1.00
F157   F     0.79140   0.03025   0.09122   0.00000  Uiso   1.00
F158   F     0.79132   0.46974   0.24216   0.00000  Uiso   1.00
H159   H     0.71305   0.12425   0.23292   0.00000  Uiso   1.00
H160   H     0.86886   0.23777   0.28486   0.00000  Uiso   1.00
H161   H     0.82746   0.18197   0.00593   0.00000  Uiso   1.00
H162   H     0.81707   0.09624   0.31514   0.00000  Uiso   1.00
H163   H     0.84931   0.06578   0.23700   0.00000  Uiso   1.00
H164   H     0.89179   0.12080   0.18282   0.00000  Uiso   1.00
H165   H     0.86870   0.26220   0.04862   0.00000  Uiso   1.00
H166   H     0.82736   0.31804   0.32754   0.00000  Uiso   1.00
H167   H     0.81720   0.40383   0.01820   0.00000  Uiso   1.00
H168   H     0.84961   0.43432   0.09623   0.00000  Uiso   1.00
H169   H     0.89204   0.37926   0.15043   0.00000  Uiso   1.00
H170   H     0.71311   0.37576   0.10037   0.00000  Uiso   1.00
H171   H     0.63143   0.23772   0.04870   0.00000  Uiso   1.00
H172   H     0.67275   0.18182   0.32766   0.00000  Uiso   1.00
H173   H     0.68278   0.09601   0.01834   0.00000  Uiso   1.00
H174   H     0.65024   0.06557   0.09633   0.00000  Uiso   1.00
H175   H     0.60784   0.12069   0.15048   0.00000  Uiso   1.00
H176   H     0.78695   0.12425   0.10041   0.00000  Uiso   1.00
H177   H     0.78689   0.37575   0.23297   0.00000  Uiso   1.00
H178   H     0.63142   0.26233   0.28470   0.00000  Uiso   1.00
H179   H     0.67277   0.31825   0.00568   0.00000  Uiso   1.00
H180   H     0.68283   0.40403   0.31493   0.00000  Uiso   1.00
H181   H     0.65030   0.43443   0.23692   0.00000  Uiso   1.00
H182   H     0.60787   0.37929   0.18283   0.00000  Uiso   1.00
N183   N     0.75000   0.12935   0.16667   0.00000  Uiso   1.00
N184   N     0.75000   0.37066   0.16667   0.00000  Uiso   1.00
O185   O     0.68573   0.29072   0.16667   0.00000  Uiso   1.00
O186   O     0.81427   0.20929   0.16666   0.00000  Uiso   1.00
O187   O     0.81427   0.29072   0.16666   0.00000  Uiso   1.00
O188   O     0.68573   0.20929   0.16667   0.00000  Uiso   1.00
O189   O     0.75000   0.29071   0.09613   0.00000  Uiso   1.00
O190   O     0.75000   0.20929   0.23720   0.00000  Uiso   1.00
O191   O     0.75000   0.29071   0.23720   0.00000  Uiso   1.00
O192   O     0.75000   0.20929   0.09613   0.00000  Uiso   1.00
C193   C     0.16494   0.75000   0.16667   0.00000  Uiso   1.00
C194   C     0.27053   0.94639   0.20474   0.00000  Uiso   1.00
C195   C     0.25000   0.75000   0.07349   0.00000  Uiso   1.00
C196   C     0.25000   0.75000   0.25984   0.00000  Uiso   1.00
C197   C     0.25000   0.52724   0.16667   0.00000  Uiso   1.00
C198   C     0.25000   0.97276   0.16667   0.00000  Uiso   1.00
C199   C     0.25000   0.75000   0.02186   0.00000  Uiso   1.00
C200   C     0.25000   0.75000   0.31148   0.00000  Uiso   1.00
C201   C     0.04689   0.78328   0.19600   0.00000  Uiso   1.00
C202   C     0.45310   0.71675   0.19604   0.00000  Uiso   1.00
C203   C     0.45312   0.78326   0.13738   0.00000  Uiso   1.00
C204   C     0.33506   0.75000   0.16667   0.00000  Uiso   1.00
C205   C     0.04689   0.71671   0.13741   0.00000  Uiso   1.00
C206   C     0.09310   0.78328   0.19662   0.00000  Uiso   1.00
C207   C     0.40689   0.71675   0.19665   0.00000  Uiso   1.00
C208   C     0.40691   0.78326   0.13672   0.00000  Uiso   1.00
C209   C     0.09310   0.71672   0.13676   0.00000  Uiso   1.00
C210   C     0.11648   0.75000   0.16668   0.00000  Uiso   1.00
C211   C     0.38352   0.75000   0.16668   0.00000  Uiso   1.00
C212   C     0.02408   0.74999   0.16671   0.00000  Uiso   1.00
C213   C     0.47592   0.75000   0.16671   0.00000  Uiso   1.00
C214   C     0.11637   0.81701   0.23016   0.00000  Uiso   1.00
C215   C     0.22953   0.60456   0.20377   0.00000  Uiso   1.00
C216   C     0.13497   0.79995   0.27429   0.00000  Uiso   1.00
C217   C     0.15857   0.83143   0.30494   0.00000  Uiso   1.00
C218   C     0.16418   0.87984   0.29140   0.00000  Uiso   1.00
C219   C     0.14576   0.89700   0.24747   0.00000  Uiso   1.00
C220   C     0.12166   0.86578   0.21701   0.00000  Uiso   1.00
C221   C     0.38361   0.68307   0.23023   0.00000  Uiso   1.00
C222   C     0.36517   0.70016   0.27444   0.00000  Uiso   1.00
C223   C     0.34154   0.66875   0.30513   0.00000  Uiso   1.00
C224   C     0.33574   0.62038   0.29157   0.00000  Uiso   1.00
C225   C     0.35400   0.60319   0.24757   0.00000  Uiso   1.00
C226   C     0.22957   0.89544   0.12954   0.00000  Uiso   1.00
C227   C     0.37813   0.63433   0.21706   0.00000  Uiso   1.00
C228   C     0.38365   0.81694   0.10313   0.00000  Uiso   1.00
C229   C     0.36510   0.79983   0.05899   0.00000  Uiso   1.00
C230   C     0.34151   0.83126   0.02829   0.00000  Uiso   1.00
C231   C     0.33584   0.87967   0.04178   0.00000  Uiso   1.00
C232   C     0.35421   0.89688   0.08572   0.00000  Uiso   1.00
C233   C     0.37830   0.86571   0.11624   0.00000  Uiso   1.00
C234   C     0.11636   0.68300   0.10320   0.00000  Uiso   1.00
C235   C     0.13497   0.70008   0.05908   0.00000  Uiso   1.00
C236   C     0.15856   0.66862   0.02840   0.00000  Uiso   1.00
C237   C     0.27047   0.60456   0.12956   0.00000  Uiso   1.00
C238   C     0.16415   0.62020   0.04189   0.00000  Uiso   1.00
C239   C     0.14571   0.60301   0.08582   0.00000  Uiso   1.00
C240   C     0.12163   0.63422   0.11630   0.00000  Uiso   1.00
C241   C     0.27043   0.89544   0.20380   0.00000  Uiso   1.00
C242   C     0.22943   0.55361   0.20472   0.00000  Uiso   1.00
C243   C     0.22947   0.94640   0.12859   0.00000  Uiso   1.00
C244   C     0.27057   0.55360   0.12862   0.00000  Uiso   1.00
Cu245  Cu    0.25000   0.79822   0.16667   0.00000  Uiso   1.00
Cu246  Cu    0.25000   0.70179   0.16667   0.00000  Uiso   1.00
F247   F     0.02403   0.81494   0.22471   0.00000  Uiso   1.00
F248   F     0.47596   0.68511   0.22478   0.00000  Uiso   1.00
F249   F     0.47599   0.81489   0.10864   0.00000  Uiso   1.00
F250   F     0.02402   0.68505   0.10871   0.00000  Uiso   1.00
F251   F     0.20859   0.53026   0.24212   0.00000  Uiso   1.00
F252   F     0.20867   0.96974   0.09117   0.00000  Uiso   1.00
F253   F     0.29140   0.53025   0.09122   0.00000  Uiso   1.00
F254   F     0.29132   0.96974   0.24216   0.00000  Uiso   1.00
H255   H     0.21305   0.62425   0.23292   0.00000  Uiso   1.00
H256   H     0.36886   0.73777   0.28486   0.00000  Uiso   1.00
H257   H     0.32746   0.68197   0.00593   0.00000  Uiso   1.00
H258   H     0.31707   0.59624   0.31514   0.00000  Uiso   1.00
H259   H     0.34931   0.56578   0.23700   0.00000  Uiso   1.00
H260   H     0.39179   0.62080   0.18282   0.00000  Uiso   1.00
H261   H     0.36870   0.76220   0.04862   0.00000  Uiso   1.00
H262   H     0.32736   0.81804   0.32754   0.00000  Uiso   1.00
H263   H     0.31720   0.90383   0.01820   0.00000  Uiso   1.00
H264   H     0.34961   0.93432   0.09623   0.00000  Uiso   1.00
H265   H     0.39204   0.87926   0.15043   0.00000  Uiso   1.00
H266   H     0.21311   0.87576   0.10037   0.00000  Uiso   1.00
H267   H     0.13143   0.73772   0.04870   0.00000  Uiso   1.00
H268   H     0.17275   0.68182   0.32766   0.00000  Uiso   1.00
H269   H     0.18278   0.59601   0.01834   0.00000  Uiso   1.00
H270   H     0.15024   0.56557   0.09633   0.00000  Uiso   1.00
H271   H     0.10784   0.62069   0.15048   0.00000  Uiso   1.00
H272   H     0.28695   0.62425   0.10041   0.00000  Uiso   1.00
H273   H     0.28689   0.87575   0.23297   0.00000  Uiso   1.00
H274   H     0.13142   0.76233   0.28470   0.00000  Uiso   1.00
H275   H     0.17277   0.81825   0.00568   0.00000  Uiso   1.00
H276   H     0.18283   0.90403   0.31493   0.00000  Uiso   1.00
H277   H     0.15030   0.93443   0.23692   0.00000  Uiso   1.00
H278   H     0.10787   0.87929   0.18283   0.00000  Uiso   1.00
N279   N     0.25000   0.62935   0.16667   0.00000  Uiso   1.00
N280   N     0.25000   0.87066   0.16667   0.00000  Uiso   1.00
O281   O     0.18573   0.79072   0.16667   0.00000  Uiso   1.00
O282   O     0.31427   0.70929   0.16666   0.00000  Uiso   1.00
O283   O     0.31427   0.79072   0.16666   0.00000  Uiso   1.00
O284   O     0.18573   0.70929   0.16667   0.00000  Uiso   1.00
O285   O     0.25000   0.79071   0.09613   0.00000  Uiso   1.00
O286   O     0.25000   0.70929   0.23720   0.00000  Uiso   1.00
O287   O     0.25000   0.79071   0.23720   0.00000  Uiso   1.00
O288   O     0.25000   0.70929   0.09613   0.00000  Uiso   1.00
C289   C     0.66494   0.75000   0.16667   0.00000  Uiso   1.00
C290   C     0.77053   0.94639   0.20474   0.00000  Uiso   1.00
C291   C     0.75000   0.75000   0.07349   0.00000  Uiso   1.00
C292   C     0.75000   0.75000   0.25984   0.00000  Uiso   1.00
C293   C     0.75000   0.52724   0.16667   0.00000  Uiso   1.00
C294   C     0.75000   0.97276   0.16667   0.00000  Uiso   1.00
C295   C     0.75000   0.75000   0.02186   0.00000  Uiso   1.00
C296   C     0.75000   0.75000   0.31148   0.00000  Uiso   1.00
C297   C     0.54689   0.78328   0.19600   0.00000  Uiso   1.00
C298   C     0.95310   0.71675   0.19604   0.00000  Uiso   1.00
C299   C     0.95312   0.78326   0.13738   0.00000  Uiso   1.00
C300   C     0.83506   0.75000   0.16667   0.00000  Uiso   1.00
C301   C     0.54689   0.71671   0.13741   0.00000  Uiso   1.00
C302   C     0.59310   0.78328   0.19662   0.00000  Uiso   1.00
C303   C     0.90689   0.71675   0.19665   0.00000  Uiso   1.00
C304   C     0.90691   0.78326   0.13672   0.00000  Uiso   1.00
C305   C     0.59310   0.71672   0.13676   0.00000  Uiso   1.00
C306   C     0.61648   0.75000   0.16668   0.00000  Uiso   1.00
C307   C     0.88352   0.75000   0.16668   0.00000  Uiso   1.00
C308   C     0.52408   0.74999   0.16671   0.00000  Uiso   1.00
C309   C     0.97592   0.75000   0.16671   0.00000  Uiso   1.00
C310   C     0.61637   0.81701   0.23016   0.00000  Uiso   1.00
C311   C     0.72953   0.60456   0.20377   0.00000  Uiso   1.00
C312   C     0.63497   0.79995   0.27429   0.00000  Uiso   1.00
C313   C     0.65857   0.83143   0.30494   0.00000  Uiso   1.00
C314   C     0.66418   0.87984   0.29140   0.00000  Uiso   1.00
C315   C     0.64576   0.89700   0.24747   0.00000  Uiso   1.00
C316   C     0.62166   0.86578   0.21701   0.00000  Uiso   1.00
C317   C     0.88361   0.68307   0.23023   0.00000  Uiso   1.00
C318   C     0.86517   0.70016   0.27444   0.00000  Uiso   1.00
C319   C     0.84154   0.66875   0.30513   0.00000  Uiso   1.00
C320   C     0.83574   0.62038   0.29157   0.00000  Uiso   1.00
C321   C     0.85400   0.60319   0.24757   0.00000  Uiso   1.00
C322   C     0.72957   0.89544   0.12954   0.00000  Uiso   1.00
C323   C     0.87813   0.63433   0.21706   0.00000  Uiso   1.00
C324   C     0.88365   0.81694   0.10313   0.00000  Uiso   1.00
C325   C     0.86510   0.79983   0.05899   0.00000  Uiso   1.00
C326   C     0.84151   0.83126   0.02829   0.00000  Uiso   1.00
C327   C     0.83584   0.87967   0.04178   0.00000  Uiso   1.00
C328   C     0.85421   0.89688   0.08572   0.00000  Uiso   1.00
C329   C     0.87830   0.86571   0.11624   0.00000  Uiso   1.00
C330   C     0.61636   0.68300   0.10320   0.00000  Uiso   1.00
C331   C     0.63497   0.70008   0.05908   0.00000  Uiso   1.00
C332   C     0.65856   0.66862   0.02840   0.00000  Uiso   1.00
C333   C     0.77047   0.60456   0.12956   0.00000  Uiso   1.00
C334   C     0.66415   0.62020   0.04189   0.00000  Uiso   1.00
C335   C     0.64571   0.60301   0.08582   0.00000  Uiso   1.00
C336   C     0.62163   0.63422   0.11630   0.00000  Uiso   1.00
C337   C     0.77043   0.89544   0.20380   0.00000  Uiso   1.00
C338   C     0.72943   0.55361   0.20472   0.00000  Uiso   1.00
C339   C     0.72947   0.94640   0.12859   0.00000  Uiso   1.00
C340   C     0.77057   0.55360   0.12862   0.00000  Uiso   1.00
Cu341  Cu    0.75000   0.79822   0.16667   0.00000  Uiso   1.00
Cu342  Cu    0.75000   0.70179   0.16667   0.00000  Uiso   1.00
F343   F     0.52403   0.81494   0.22471   0.00000  Uiso   1.00
F344   F     0.97596   0.68511   0.22478   0.00000  Uiso   1.00
F345   F     0.97599   0.81489   0.10864   0.00000  Uiso   1.00
F346   F     0.52402   0.68505   0.10871   0.00000  Uiso   1.00
F347   F     0.70859   0.53026   0.24212   0.00000  Uiso   1.00
F348   F     0.70867   0.96974   0.09117   0.00000  Uiso   1.00
F349   F     0.79140   0.53025   0.09122   0.00000  Uiso   1.00
F350   F     0.79132   0.96974   0.24216   0.00000  Uiso   1.00
H351   H     0.71305   0.62425   0.23292   0.00000  Uiso   1.00
H352   H     0.86886   0.73777   0.28486   0.00000  Uiso   1.00
H353   H     0.82746   0.68197   0.00593   0.00000  Uiso   1.00
H354   H     0.81707   0.59624   0.31514   0.00000  Uiso   1.00
H355   H     0.84931   0.56578   0.23700   0.00000  Uiso   1.00
H356   H     0.89179   0.62080   0.18282   0.00000  Uiso   1.00
H357   H     0.86870   0.76220   0.04862   0.00000  Uiso   1.00
H358   H     0.82736   0.81804   0.32754   0.00000  Uiso   1.00
H359   H     0.81720   0.90383   0.01820   0.00000  Uiso   1.00
H360   H     0.84961   0.93432   0.09623   0.00000  Uiso   1.00
H361   H     0.89204   0.87926   0.15043   0.00000  Uiso   1.00
H362   H     0.71311   0.87576   0.10037   0.00000  Uiso   1.00
H363   H     0.63143   0.73772   0.04870   0.00000  Uiso   1.00
H364   H     0.67275   0.68182   0.32766   0.00000  Uiso   1.00
H365   H     0.68278   0.59601   0.01834   0.00000  Uiso   1.00
H366   H     0.65024   0.56557   0.09633   0.00000  Uiso   1.00
H367   H     0.60784   0.62069   0.15048   0.00000  Uiso   1.00
H368   H     0.78695   0.62425   0.10041   0.00000  Uiso   1.00
H369   H     0.78689   0.87575   0.23297   0.00000  Uiso   1.00
H370   H     0.63142   0.76233   0.28470   0.00000  Uiso   1.00
H371   H     0.67277   0.81825   0.00568   0.00000  Uiso   1.00
H372   H     0.68283   0.90403   0.31493   0.00000  Uiso   1.00
H373   H     0.65030   0.93443   0.23692   0.00000  Uiso   1.00
H374   H     0.60787   0.87929   0.18283   0.00000  Uiso   1.00
N375   N     0.75000   0.62935   0.16667   0.00000  Uiso   1.00
N376   N     0.75000   0.87066   0.16667   0.00000  Uiso   1.00
O377   O     0.68573   0.79072   0.16667   0.00000  Uiso   1.00
O378   O     0.81427   0.70929   0.16666   0.00000  Uiso   1.00
O379   O     0.81427   0.79072   0.16666   0.00000  Uiso   1.00
O380   O     0.68573   0.70929   0.16667   0.00000  Uiso   1.00
O381   O     0.75000   0.79071   0.09613   0.00000  Uiso   1.00
O382   O     0.75000   0.70929   0.23720   0.00000  Uiso   1.00
O383   O     0.75000   0.79071   0.23720   0.00000  Uiso   1.00
O384   O     0.75000   0.70929   0.09613   0.00000  Uiso   1.00
C385   C     0.16494   0.25000   0.50001   0.00000  Uiso   1.00
C386   C     0.27053   0.44639   0.53807   0.00000  Uiso   1.00
C387   C     0.25000   0.25000   0.40683   0.00000  Uiso   1.00
C388   C     0.25000   0.25000   0.59317   0.00000  Uiso   1.00
C389   C     0.25000   0.02724   0.50000   0.00000  Uiso   1.00
C390   C     0.25000   0.47276   0.50000   0.00000  Uiso   1.00
C391   C     0.25000   0.25000   0.35519   0.00000  Uiso   1.00
C392   C     0.25000   0.25000   0.64481   0.00000  Uiso   1.00
C393   C     0.04689   0.28328   0.52933   0.00000  Uiso   1.00
C394   C     0.45310   0.21675   0.52937   0.00000  Uiso   1.00
C395   C     0.45312   0.28326   0.47071   0.00000  Uiso   1.00
C396   C     0.33506   0.25000   0.50000   0.00000  Uiso   1.00
C397   C     0.04689   0.21671   0.47075   0.00000  Uiso   1.00
C398   C     0.09310   0.28328   0.52996   0.00000  Uiso   1.00
C399   C     0.40689   0.21675   0.52999   0.00000  Uiso   1.00
C400   C     0.40691   0.28326   0.47006   0.00000  Uiso   1.00
C401   C     0.09310   0.21672   0.47009   0.00000  Uiso   1.00
C402   C     0.11648   0.25000   0.50002   0.00000  Uiso   1.00
C403   C     0.38352   0.25000   0.50001   0.00000  Uiso   1.00
C404   C     0.02408   0.24999   0.50005   0.00000  Uiso   1.00
C405   C     0.47592   0.25000   0.50005   0.00000  Uiso   1.00
C406   C     0.11637   0.31701   0.56349   0.00000  Uiso   1.00
C407   C     0.22953   0.10456   0.53711   0.00000  Uiso   1.00
C408   C     0.13497   0.29995   0.60762   0.00000  Uiso   1.00
C409   C     0.15857   0.33143   0.63827   0.00000  Uiso   1.00
C410   C     0.16418   0.37984   0.62474   0.00000  Uiso   1.00
C411   C     0.14576   0.39700   0.58080   0.00000  Uiso   1.00
C412   C     0.12166   0.36578   0.55034   0.00000  Uiso   1.00
C413   C     0.38361   0.18307   0.56357   0.00000  Uiso   1.00
C414   C     0.36517   0.20016   0.60777   0.00000  Uiso   1.00
C415   C     0.34154   0.16875   0.63847   0.00000  Uiso   1.00
C416   C     0.33574   0.12038   0.62491   0.00000  Uiso   1.00
C417   C     0.35400   0.10319   0.58090   0.00000  Uiso   1.00
C418   C     0.22957   0.39544   0.46287   0.00000  Uiso   1.00
C419   C     0.37813   0.13433   0.55039   0.00000  Uiso   1.00
C420   C     0.38365   0.31694   0.43647   0.00000  Uiso   1.00
C421   C     0.36510   0.29983   0.39232   0.00000  Uiso   1.00
C422   C     0.34151   0.33126   0.36162   0.00000  Uiso   1.00
C423   C     0.33584   0.37967   0.37511   0.00000  Uiso   1.00
C424   C     0.35421   0.39688   0.41906   0.00000  Uiso   1.00
C425   C     0.37830   0.36571   0.44957   0.00000  Uiso   1.00
C426   C     0.11636   0.18300   0.43653   0.00000  Uiso   1.00
C427   C     0.13497   0.20008   0.39241   0.00000  Uiso   1.00
C428   C     0.15856   0.16862   0.36173   0.00000  Uiso   1.00
C429   C     0.27047   0.10456   0.46289   0.00000  Uiso   1.00
C430   C     0.16415   0.12020   0.37523   0.00000  Uiso   1.00
C431   C     0.14571   0.10301   0.41915   0.00000  Uiso   1.00
C432   C     0.12163   0.13422   0.44964   0.00000  Uiso   1.00
C433   C     0.27043   0.39544   0.53713   0.00000  Uiso   1.00
C434   C     0.22943   0.05361   0.53805   0.00000  Uiso   1.00
C435   C     0.22947   0.44640   0.46193   0.00000  Uiso   1.00
C436   C     0.27057   0.05360   0.46195   0.00000  Uiso   1.00
Cu437  Cu    0.25000   0.29822   0.50000   0.00000  Uiso   1.00
Cu438  Cu    0.25000   0.20179   0.50000   0.00000  Uiso   1.00
F439   F     0.02403   0.31494   0.55804   0.00000  Uiso   1.00
F440   F     0.47596   0.18511   0.55811   0.00000  Uiso   1.00
F441   F     0.47599   0.31489   0.44198   0.00000  Uiso   1.00
F442   F     0.02402   0.18505   0.44204   0.00000  Uiso   1.00
F443   F     0.20859   0.03026   0.57545   0.00000  Uiso   1.00
F444   F     0.20867   0.46974   0.42451   0.00000  Uiso   1.00
F445   F     0.29140   0.03025   0.42455   0.00000  Uiso   1.00
F446   F     0.29132   0.46974   0.57550   0.00000  Uiso   1.00
H447   H     0.21305   0.12425   0.56626   0.00000  Uiso   1.00
H448   H     0.36886   0.23777   0.61820   0.00000  Uiso   1.00
H449   H     0.32746   0.18197   0.33926   0.00000  Uiso   1.00
H450   H     0.31707   0.09624   0.64847   0.00000  Uiso   1.00
H451   H     0.34931   0.06578   0.57033   0.00000  Uiso   1.00
H452   H     0.39179   0.12080   0.51615   0.00000  Uiso   1.00
H453   H     0.36870   0.26220   0.38195   0.00000  Uiso   1.00
H454   H     0.32736   0.31804   0.66087   0.00000  Uiso   1.00
H455   H     0.31720   0.40383   0.35154   0.00000  Uiso   1.00
H456   H     0.34961   0.43432   0.42957   0.00000  Uiso   1.00
H457   H     0.39204   0.37926   0.48376   0.00000  Uiso   1.00
H458   H     0.21311   0.37576   0.43370   0.00000  Uiso   1.00
H459   H     0.13143   0.23772   0.38203   0.00000  Uiso   1.00
H460   H     0.17275   0.18182   0.66100   0.00000  Uiso   1.00
H461   H     0.18278   0.09601   0.35167   0.00000  Uiso   1.00
H462   H     0.15024   0.06557   0.42966   0.00000  Uiso   1.00
H463   H     0.10784   0.12069   0.48381   0.00000  Uiso   1.00
H464   H     0.28695   0.12425   0.43374   0.00000  Uiso   1.00
H465   H     0.28689   0.37575   0.56630   0.00000  Uiso   1.00
H466   H     0.13142   0.26233   0.61803   0.00000  Uiso   1.00
H467   H     0.17277   0.31825   0.33901   0.00000  Uiso   1.00
H468   H     0.18283   0.40403   0.64827   0.00000  Uiso   1.00
H469   H     0.15030   0.43443   0.57026   0.00000  Uiso   1.00
H470   H     0.10787   0.37929   0.51616   0.00000  Uiso   1.00
N471   N     0.25000   0.12935   0.50000   0.00000  Uiso   1.00
N472   N     0.25000   0.37066   0.50000   0.00000  Uiso   1.00
O473   O     0.18573   0.29072   0.50000   0.00000  Uiso   1.00
O474   O     0.31427   0.20929   0.50000   0.00000  Uiso   1.00
O475   O     0.31427   0.29072   0.50000   0.00000  Uiso   1.00
O476   O     0.18573   0.20929   0.50000   0.00000  Uiso   1.00
O477   O     0.25000   0.29071   0.42946   0.00000  Uiso   1.00
O478   O     0.25000   0.20929   0.57054   0.00000  Uiso   1.00
O479   O     0.25000   0.29071   0.57054   0.00000  Uiso   1.00
O480   O     0.25000   0.20929   0.42946   0.00000  Uiso   1.00
C481   C     0.66494   0.25000   0.50001   0.00000  Uiso   1.00
C482   C     0.77053   0.44639   0.53807   0.00000  Uiso   1.00
C483   C     0.75000   0.25000   0.40683   0.00000  Uiso   1.00
C484   C     0.75000   0.25000   0.59317   0.00000  Uiso   1.00
C485   C     0.75000   0.02724   0.50000   0.00000  Uiso   1.00
C486   C     0.75000   0.47276   0.50000   0.00000  Uiso   1.00
C487   C     0.75000   0.25000   0.35519   0.00000  Uiso   1.00
C488   C     0.75000   0.25000   0.64481   0.00000  Uiso   1.00
C489   C     0.54689   0.28328   0.52933   0.00000  Uiso   1.00
C490   C     0.95310   0.21675   0.52937   0.00000  Uiso   1.00
C491   C     0.95312   0.28326   0.47071   0.00000  Uiso   1.00
C492   C     0.83506   0.25000   0.50000   0.00000  Uiso   1.00
C493   C     0.54689   0.21671   0.47075   0.00000  Uiso   1.00
C494   C     0.59310   0.28328   0.52996   0.00000  Uiso   1.00
C495   C     0.90689   0.21675   0.52999   0.00000  Uiso   1.00
C496   C     0.90691   0.28326   0.47006   0.00000  Uiso   1.00
C497   C     0.59310   0.21672   0.47009   0.00000  Uiso   1.00
C498   C     0.61648   0.25000   0.50002   0.00000  Uiso   1.00
C499   C     0.88352   0.25000   0.50001   0.00000  Uiso   1.00
C500   C     0.52408   0.24999   0.50005   0.00000  Uiso   1.00
C501   C     0.97592   0.25000   0.50005   0.00000  Uiso   1.00
C502   C     0.61637   0.31701   0.56349   0.00000  Uiso   1.00
C503   C     0.72953   0.10456   0.53711   0.00000  Uiso   1.00
C504   C     0.63497   0.29995   0.60762   0.00000  Uiso   1.00
C505   C     0.65857   0.33143   0.63827   0.00000  Uiso   1.00
C506   C     0.66418   0.37984   0.62474   0.00000  Uiso   1.00
C507   C     0.64576   0.39700   0.58080   0.00000  Uiso   1.00
C508   C     0.62166   0.36578   0.55034   0.00000  Uiso   1.00
C509   C     0.88361   0.18307   0.56357   0.00000  Uiso   1.00
C510   C     0.86517   0.20016   0.60777   0.00000  Uiso   1.00
C511   C     0.84154   0.16875   0.63847   0.00000  Uiso   1.00
C512   C     0.83574   0.12038   0.62491   0.00000  Uiso   1.00
C513   C     0.85400   0.10319   0.58090   0.00000  Uiso   1.00
C514   C     0.72957   0.39544   0.46287   0.00000  Uiso   1.00
C515   C     0.87813   0.13433   0.55039   0.00000  Uiso   1.00
C516   C     0.88365   0.31694   0.43647   0.00000  Uiso   1.00
C517   C     0.86510   0.29983   0.39232   0.00000  Uiso   1.00
C518   C     0.84151   0.33126   0.36162   0.00000  Uiso   1.00
C519   C     0.83584   0.37967   0.37511   0.00000  Uiso   1.00
C520   C     0.85421   0.39688   0.41906   0.00000  Uiso   1.00
C521   C     0.87830   0.36571   0.44957   0.00000  Uiso   1.00
C522   C     0.61636   0.18300   0.43653   0.00000  Uiso   1.00
C523   C     0.63497   0.20008   0.39241   0.00000  Uiso   1.00
C524   C     0.65856   0.16862   0.36173   0.00000  Uiso   1.00
C525   C     0.77047   0.10456   0.46289   0.00000  Uiso   1.00
C526   C     0.66415   0.12020   0.37523   0.00000  Uiso   1.00
C527   C     0.64571   0.10301   0.41915   0.00000  Uiso   1.00
C528   C     0.62163   0.13422   0.44964   0.00000  Uiso   1.00
C529   C     0.77043   0.39544   0.53713   0.00000  Uiso   1.00
C530   C     0.72943   0.05361   0.53805   0.00000  Uiso   1.00
C531   C     0.72947   0.44640   0.46193   0.00000  Uiso   1.00
C532   C     0.77057   0.05360   0.46195   0.00000  Uiso   1.00
Cu533  Cu    0.75000   0.29822   0.50000   0.00000  Uiso   1.00
Cu534  Cu    0.75000   0.20179   0.50000   0.00000  Uiso   1.00
F535   F     0.52403   0.31494   0.55804   0.00000  Uiso   1.00
F536   F     0.97596   0.18511   0.55811   0.00000  Uiso   1.00
F537   F     0.97599   0.31489   0.44198   0.00000  Uiso   1.00
F538   F     0.52402   0.18505   0.44204   0.00000  Uiso   1.00
F539   F     0.70859   0.03026   0.57545   0.00000  Uiso   1.00
F540   F     0.70867   0.46974   0.42451   0.00000  Uiso   1.00
F541   F     0.79140   0.03025   0.42455   0.00000  Uiso   1.00
F542   F     0.79132   0.46974   0.57550   0.00000  Uiso   1.00
H543   H     0.71305   0.12425   0.56626   0.00000  Uiso   1.00
H544   H     0.86886   0.23777   0.61820   0.00000  Uiso   1.00
H545   H     0.82746   0.18197   0.33926   0.00000  Uiso   1.00
H546   H     0.81707   0.09624   0.64847   0.00000  Uiso   1.00
H547   H     0.84931   0.06578   0.57033   0.00000  Uiso   1.00
H548   H     0.89179   0.12080   0.51615   0.00000  Uiso   1.00
H549   H     0.86870   0.26220   0.38195   0.00000  Uiso   1.00
H550   H     0.82736   0.31804   0.66087   0.00000  Uiso   1.00
H551   H     0.81720   0.40383   0.35154   0.00000  Uiso   1.00
H552   H     0.84961   0.43432   0.42957   0.00000  Uiso   1.00
H553   H     0.89204   0.37926   0.48376   0.00000  Uiso   1.00
H554   H     0.71311   0.37576   0.43370   0.00000  Uiso   1.00
H555   H     0.63143   0.23772   0.38203   0.00000  Uiso   1.00
H556   H     0.67275   0.18182   0.66100   0.00000  Uiso   1.00
H557   H     0.68278   0.09601   0.35167   0.00000  Uiso   1.00
H558   H     0.65024   0.06557   0.42966   0.00000  Uiso   1.00
H559   H     0.60784   0.12069   0.48381   0.00000  Uiso   1.00
H560   H     0.78695   0.12425   0.43374   0.00000  Uiso   1.00
H561   H     0.78689   0.37575   0.56630   0.00000  Uiso   1.00
H562   H     0.63142   0.26233   0.61803   0.00000  Uiso   1.00
H563   H     0.67277   0.31825   0.33901   0.00000  Uiso   1.00
H564   H     0.68283   0.40403   0.64827   0.00000  Uiso   1.00
H565   H     0.65030   0.43443   0.57026   0.00000  Uiso   1.00
H566   H     0.60787   0.37929   0.51616   0.00000  Uiso   1.00
N567   N     0.75000   0.12935   0.50000   0.00000  Uiso   1.00
N568   N     0.75000   0.37066   0.50000   0.00000  Uiso   1.00
O569   O     0.68573   0.29072   0.50000   0.00000  Uiso   1.00
O570   O     0.81427   0.20929   0.50000   0.00000  Uiso   1.00
O571   O     0.81427   0.29072   0.50000   0.00000  Uiso   1.00
O572   O     0.68573   0.20929   0.50000   0.00000  Uiso   1.00
O573   O     0.75000   0.29071   0.42946   0.00000  Uiso   1.00
O574   O     0.75000   0.20929   0.57054   0.00000  Uiso   1.00
O575   O     0.75000   0.29071   0.57054   0.00000  Uiso   1.00
O576   O     0.75000   0.20929   0.42946   0.00000  Uiso   1.00
C577   C     0.16494   0.75000   0.50001   0.00000  Uiso   1.00
C578   C     0.27053   0.94639   0.53807   0.00000  Uiso   1.00
C579   C     0.25000   0.75000   0.40683   0.00000  Uiso   1.00
C580   C     0.25000   0.75000   0.59317   0.00000  Uiso   1.00
C581   C     0.25000   0.52724   0.50000   0.00000  Uiso   1.00
C582   C     0.25000   0.97276   0.50000   0.00000  Uiso   1.00
C583   C     0.25000   0.75000   0.35519   0.00000  Uiso   1.00
C584   C     0.25000   0.75000   0.64481   0.00000  Uiso   1.00
C585   C     0.04689   0.78328   0.52933   0.00000  Uiso   1.00
C586   C     0.45310   0.71675   0.52937   0.00000  Uiso   1.00
C587   C     0.45312   0.78326   0.47071   0.00000  Uiso   1.00
C588   C     0.33506   0.75000   0.50000   0.00000  Uiso   1.00
C589   C     0.04689   0.71671   0.47075   0.00000  Uiso   1.00
C590   C     0.09310   0.78328   0.52996   0.00000  Uiso   1.00
C591   C     0.40689   0.71675   0.52999   0.00000  Uiso   1.00
C592   C     0.40691   0.78326   0.47006   0.00000  Uiso   1.00
C593   C     0.09310   0.71672   0.47009   0.00000  Uiso   1.00
C594   C     0.11648   0.75000   0.50002   0.00000  Uiso   1.00
C595   C     0.38352   0.75000   0.50001   0.00000  Uiso   1.00
C596   C     0.02408   0.74999   0.50005   0.00000  Uiso   1.00
C597   C     0.47592   0.75000   0.50005   0.00000  Uiso   1.00
C598   C     0.11637   0.81701   0.56349   0.00000  Uiso   1.00
C599   C     0.22953   0.60456   0.53711   0.00000  Uiso   1.00
C600   C     0.13497   0.79995   0.60762   0.00000  Uiso   1.00
C601   C     0.15857   0.83143   0.63827   0.00000  Uiso   1.00
C602   C     0.16418   0.87984   0.62474   0.00000  Uiso   1.00
C603   C     0.14576   0.89700   0.58080   0.00000  Uiso   1.00
C604   C     0.12166   0.86578   0.55034   0.00000  Uiso   1.00
C605   C     0.38361   0.68307   0.56357   0.00000  Uiso   1.00
C606   C     0.36517   0.70016   0.60777   0.00000  Uiso   1.00
C607   C     0.34154   0.66875   0.63847   0.00000  Uiso   1.00
C608   C     0.33574   0.62038   0.62491   0.00000  Uiso   1.00
C609   C     0.35400   0.60319   0.58090   0.00000  Uiso   1.00
C610   C     0.22957   0.89544   0.46287   0.00000  Uiso   1.00
C611   C     0.37813   0.63433   0.55039   0.00000  Uiso   1.00
C612   C     0.38365   0.81694   0.43647   0.00000  Uiso   1.00
C613   C     0.36510   0.79983   0.39232   0.00000  Uiso   1.00
C614   C     0.34151   0.83126   0.36162   0.00000  Uiso   1.00
C615   C     0.33584   0.87967   0.37511   0.00000  Uiso   1.00
C616   C     0.35421   0.89688   0.41906   0.00000  Uiso   1.00
C617   C     0.37830   0.86571   0.44957   0.00000  Uiso   1.00
C618   C     0.11636   0.68300   0.43653   0.00000  Uiso   1.00
C619   C     0.13497   0.70008   0.39241   0.00000  Uiso   1.00
C620   C     0.15856   0.66862   0.36173   0.00000  Uiso   1.00
C621   C     0.27047   0.60456   0.46289   0.00000  Uiso   1.00
C622   C     0.16415   0.62020   0.37523   0.00000  Uiso   1.00
C623   C     0.14571   0.60301   0.41915   0.00000  Uiso   1.00
C624   C     0.12163   0.63422   0.44964   0.00000  Uiso   1.00
C625   C     0.27043   0.89544   0.53713   0.00000  Uiso   1.00
C626   C     0.22943   0.55361   0.53805   0.00000  Uiso   1.00
C627   C     0.22947   0.94640   0.46193   0.00000  Uiso   1.00
C628   C     0.27057   0.55360   0.46195   0.00000  Uiso   1.00
Cu629  Cu    0.25000   0.79822   0.50000   0.00000  Uiso   1.00
Cu630  Cu    0.25000   0.70179   0.50000   0.00000  Uiso   1.00
F631   F     0.02403   0.81494   0.55804   0.00000  Uiso   1.00
F632   F     0.47596   0.68511   0.55811   0.00000  Uiso   1.00
F633   F     0.47599   0.81489   0.44198   0.00000  Uiso   1.00
F634   F     0.02402   0.68505   0.44204   0.00000  Uiso   1.00
F635   F     0.20859   0.53026   0.57545   0.00000  Uiso   1.00
F636   F     0.20867   0.96974   0.42451   0.00000  Uiso   1.00
F637   F     0.29140   0.53025   0.42455   0.00000  Uiso   1.00
F638   F     0.29132   0.96974   0.57550   0.00000  Uiso   1.00
H639   H     0.21305   0.62425   0.56626   0.00000  Uiso   1.00
H640   H     0.36886   0.73777   0.61820   0.00000  Uiso   1.00
H641   H     0.32746   0.68197   0.33926   0.00000  Uiso   1.00
H642   H     0.31707   0.59624   0.64847   0.00000  Uiso   1.00
H643   H     0.34931   0.56578   0.57033   0.00000  Uiso   1.00
H644   H     0.39179   0.62080   0.51615   0.00000  Uiso   1.00
H645   H     0.36870   0.76220   0.38195   0.00000  Uiso   1.00
H646   H     0.32736   0.81804   0.66087   0.00000  Uiso   1.00
H647   H     0.31720   0.90383   0.35154   0.00000  Uiso   1.00
H648   H     0.34961   0.93432   0.42957   0.00000  Uiso   1.00
H649   H     0.39204   0.87926   0.48376   0.00000  Uiso   1.00
H650   H     0.21311   0.87576   0.43370   0.00000  Uiso   1.00
H651   H     0.13143   0.73772   0.38203   0.00000  Uiso   1.00
H652   H     0.17275   0.68182   0.66100   0.00000  Uiso   1.00
H653   H     0.18278   0.59601   0.35167   0.00000  Uiso   1.00
H654   H     0.15024   0.56557   0.42966   0.00000  Uiso   1.00
H655   H     0.10784   0.62069   0.48381   0.00000  Uiso   1.00
H656   H     0.28695   0.62425   0.43374   0.00000  Uiso   1.00
H657   H     0.28689   0.87575   0.56630   0.00000  Uiso   1.00
H658   H     0.13142   0.76233   0.61803   0.00000  Uiso   1.00
H659   H     0.17277   0.81825   0.33901   0.00000  Uiso   1.00
H660   H     0.18283   0.90403   0.64827   0.00000  Uiso   1.00
H661   H     0.15030   0.93443   0.57026   0.00000  Uiso   1.00
H662   H     0.10787   0.87929   0.51616   0.00000  Uiso   1.00
N663   N     0.25000   0.62935   0.50000   0.00000  Uiso   1.00
N664   N     0.25000   0.87066   0.50000   0.00000  Uiso   1.00
O665   O     0.18573   0.79072   0.50000   0.00000  Uiso   1.00
O666   O     0.31427   0.70929   0.50000   0.00000  Uiso   1.00
O667   O     0.31427   0.79072   0.50000   0.00000  Uiso   1.00
O668   O     0.18573   0.70929   0.50000   0.00000  Uiso   1.00
O669   O     0.25000   0.79071   0.42946   0.00000  Uiso   1.00
O670   O     0.25000   0.70929   0.57054   0.00000  Uiso   1.00
O671   O     0.25000   0.79071   0.57054   0.00000  Uiso   1.00
O672   O     0.25000   0.70929   0.42946   0.00000  Uiso   1.00
C673   C     0.66494   0.75000   0.50001   0.00000  Uiso   1.00
C674   C     0.77053   0.94639   0.53807   0.00000  Uiso   1.00
C675   C     0.75000   0.75000   0.40683   0.00000  Uiso   1.00
C676   C     0.75000   0.75000   0.59317   0.00000  Uiso   1.00
C677   C     0.75000   0.52724   0.50000   0.00000  Uiso   1.00
C678   C     0.75000   0.97276   0.50000   0.00000  Uiso   1.00
C679   C     0.75000   0.75000   0.35519   0.00000  Uiso   1.00
C680   C     0.75000   0.75000   0.64481   0.00000  Uiso   1.00
C681   C     0.54689   0.78328   0.52933   0.00000  Uiso   1.00
C682   C     0.95310   0.71675   0.52937   0.00000  Uiso   1.00
C683   C     0.95312   0.78326   0.47071   0.00000  Uiso   1.00
C684   C     0.83506   0.75000   0.50000   0.00000  Uiso   1.00
C685   C     0.54689   0.71671   0.47075   0.00000  Uiso   1.00
C686   C     0.59310   0.78328   0.52996   0.00000  Uiso   1.00
C687   C     0.90689   0.71675   0.52999   0.00000  Uiso   1.00
C688   C     0.90691   0.78326   0.47006   0.00000  Uiso   1.00
C689   C     0.59310   0.71672   0.47009   0.00000  Uiso   1.00
C690   C     0.61648   0.75000   0.50002   0.00000  Uiso   1.00
C691   C     0.88352   0.75000   0.50001   0.00000  Uiso   1.00
C692   C     0.52408   0.74999   0.50005   0.00000  Uiso   1.00
C693   C     0.97592   0.75000   0.50005   0.00000  Uiso   1.00
C694   C     0.61637   0.81701   0.56349   0.00000  Uiso   1.00
C695   C     0.72953   0.60456   0.53711   0.00000  Uiso   1.00
C696   C     0.63497   0.79995   0.60762   0.00000  Uiso   1.00
C697   C     0.65857   0.83143   0.63827   0.00000  Uiso   1.00
C698   C     0.66418   0.87984   0.62474   0.00000  Uiso   1.00
C699   C     0.64576   0.89700   0.58080   0.00000  Uiso   1.00
C700   C     0.62166   0.86578   0.55034   0.00000  Uiso   1.00
C701   C     0.88361   0.68307   0.56357   0.00000  Uiso   1.00
C702   C     0.86517   0.70016   0.60777   0.00000  Uiso   1.00
C703   C     0.84154   0.66875   0.63847   0.00000  Uiso   1.00
C704   C     0.83574   0.62038   0.62491   0.00000  Uiso   1.00
C705   C     0.85400   0.60319   0.58090   0.00000  Uiso   1.00
C706   C     0.72957   0.89544   0.46287   0.00000  Uiso   1.00
C707   C     0.87813   0.63433   0.55039   0.00000  Uiso   1.00
C708   C     0.88365   0.81694   0.43647   0.00000  Uiso   1.00
C709   C     0.86510   0.79983   0.39232   0.00000  Uiso   1.00
C710   C     0.84151   0.83126   0.36162   0.00000  Uiso   1.00
C711   C     0.83584   0.87967   0.37511   0.00000  Uiso   1.00
C712   C     0.85421   0.89688   0.41906   0.00000  Uiso   1.00
C713   C     0.87830   0.86571   0.44957   0.00000  Uiso   1.00
C714   C     0.61636   0.68300   0.43653   0.00000  Uiso   1.00
C715   C     0.63497   0.70008   0.39241   0.00000  Uiso   1.00
C716   C     0.65856   0.66862   0.36173   0.00000  Uiso   1.00
C717   C     0.77047   0.60456   0.46289   0.00000  Uiso   1.00
C718   C     0.66415   0.62020   0.37523   0.00000  Uiso   1.00
C719   C     0.64571   0.60301   0.41915   0.00000  Uiso   1.00
C720   C     0.62163   0.63422   0.44964   0.00000  Uiso   1.00
C721   C     0.77043   0.89544   0.53713   0.00000  Uiso   1.00
C722   C     0.72943   0.55361   0.53805   0.00000  Uiso   1.00
C723   C     0.72947   0.94640   0.46193   0.00000  Uiso   1.00
C724   C     0.77057   0.55360   0.46195   0.00000  Uiso   1.00
Cu725  Cu    0.75000   0.79822   0.50000   0.00000  Uiso   1.00
Cu726  Cu    0.75000   0.70179   0.50000   0.00000  Uiso   1.00
F727   F     0.52403   0.81494   0.55804   0.00000  Uiso   1.00
F728   F     0.97596   0.68511   0.55811   0.00000  Uiso   1.00
F729   F     0.97599   0.81489   0.44198   0.00000  Uiso   1.00
F730   F     0.52402   0.68505   0.44204   0.00000  Uiso   1.00
F731   F     0.70859   0.53026   0.57545   0.00000  Uiso   1.00
F732   F     0.70867   0.96974   0.42451   0.00000  Uiso   1.00
F733   F     0.79140   0.53025   0.42455   0.00000  Uiso   1.00
F734   F     0.79132   0.96974   0.57550   0.00000  Uiso   1.00
H735   H     0.71305   0.62425   0.56626   0.00000  Uiso   1.00
H736   H     0.86886   0.73777   0.61820   0.00000  Uiso   1.00
H737   H     0.82746   0.68197   0.33926   0.00000  Uiso   1.00
H738   H     0.81707   0.59624   0.64847   0.00000  Uiso   1.00
H739   H     0.84931   0.56578   0.57033   0.00000  Uiso   1.00
H740   H     0.89179   0.62080   0.51615   0.00000  Uiso   1.00
H741   H     0.86870   0.76220   0.38195   0.00000  Uiso   1.00
H742   H     0.82736   0.81804   0.66087   0.00000  Uiso   1.00
H743   H     0.81720   0.90383   0.35154   0.00000  Uiso   1.00
H744   H     0.84961   0.93432   0.42957   0.00000  Uiso   1.00
H745   H     0.89204   0.87926   0.48376   0.00000  Uiso   1.00
H746   H     0.71311   0.87576   0.43370   0.00000  Uiso   1.00
H747   H     0.63143   0.73772   0.38203   0.00000  Uiso   1.00
H748   H     0.67275   0.68182   0.66100   0.00000  Uiso   1.00
H749   H     0.68278   0.59601   0.35167   0.00000  Uiso   1.00
H750   H     0.65024   0.56557   0.42966   0.00000  Uiso   1.00
H751   H     0.60784   0.62069   0.48381   0.00000  Uiso   1.00
H752   H     0.78695   0.62425   0.43374   0.00000  Uiso   1.00
H753   H     0.78689   0.87575   0.56630   0.00000  Uiso   1.00
H754   H     0.63142   0.76233   0.61803   0.00000  Uiso   1.00
H755   H     0.67277   0.81825   0.33901   0.00000  Uiso   1.00
H756   H     0.68283   0.90403   0.64827   0.00000  Uiso   1.00
H757   H     0.65030   0.93443   0.57026   0.00000  Uiso   1.00
H758   H     0.60787   0.87929   0.51616   0.00000  Uiso   1.00
N759   N     0.75000   0.62935   0.50000   0.00000  Uiso   1.00
N760   N     0.75000   0.87066   0.50000   0.00000  Uiso   1.00
O761   O     0.68573   0.79072   0.50000   0.00000  Uiso   1.00
O762   O     0.81427   0.70929   0.50000   0.00000  Uiso   1.00
O763   O     0.81427   0.79072   0.50000   0.00000  Uiso   1.00
O764   O     0.68573   0.70929   0.50000   0.00000  Uiso   1.00
O765   O     0.75000   0.79071   0.42946   0.00000  Uiso   1.00
O766   O     0.75000   0.70929   0.57054   0.00000  Uiso   1.00
O767   O     0.75000   0.79071   0.57054   0.00000  Uiso   1.00
O768   O     0.75000   0.70929   0.42946   0.00000  Uiso   1.00
C769   C     0.16494   0.25000   0.83334   0.00000  Uiso   1.00
C770   C     0.27053   0.44639   0.87141   0.00000  Uiso   1.00
C771   C     0.25000   0.25000   0.74016   0.00000  Uiso   1.00
C772   C     0.25000   0.25000   0.92651   0.00000  Uiso   1.00
C773   C     0.25000   0.02724   0.83333   0.00000  Uiso   1.00
C774   C     0.25000   0.47276   0.83333   0.00000  Uiso   1.00
C775   C     0.25000   0.25000   0.68852   0.00000  Uiso   1.00
C776   C     0.25000   0.25000   0.97814   0.00000  Uiso   1.00
C777   C     0.04689   0.28328   0.86267   0.00000  Uiso   1.00
C778   C     0.45310   0.21675   0.86270   0.00000  Uiso   1.00
C779   C     0.45312   0.28326   0.80404   0.00000  Uiso   1.00
C780   C     0.33506   0.25000   0.83333   0.00000  Uiso   1.00
C781   C     0.04689   0.21671   0.80408   0.00000  Uiso   1.00
C782   C     0.09310   0.28328   0.86329   0.00000  Uiso   1.00
C783   C     0.40689   0.21675   0.86332   0.00000  Uiso   1.00
C784   C     0.40691   0.28326   0.80339   0.00000  Uiso   1.00
C785   C     0.09310   0.21672   0.80342   0.00000  Uiso   1.00
C786   C     0.11648   0.25000   0.83335   0.00000  Uiso   1.00
C787   C     0.38352   0.25000   0.83334   0.00000  Uiso   1.00
C788   C     0.02408   0.24999   0.83338   0.00000  Uiso   1.00
C789   C     0.47592   0.25000   0.83338   0.00000  Uiso   1.00
C790   C     0.11637   0.31701   0.89682   0.00000  Uiso   1.00
C791   C     0.22953   0.10456   0.87044   0.00000  Uiso   1.00
C792   C     0.13497   0.29995   0.94096   0.00000  Uiso   1.00
C793   C     0.15857   0.33143   0.97160   0.00000  Uiso   1.00
C794   C     0.16418   0.37984   0.95807   0.00000  Uiso   1.00
C795   C     0.14576   0.39700   0.91414   0.00000  Uiso   1.00
C796   C     0.12166   0.36578   0.88368   0.00000  Uiso   1.00
C797   C     0.38361   0.18307   0.89690   0.00000  Uiso   1.00
C798   C     0.36517   0.20016   0.94111   0.00000  Uiso   1.00
C799   C     0.34154   0.16875   0.97180   0.00000  Uiso   1.00
C800   C     0.33574   0.12038   0.95824   0.00000  Uiso   1.00
C801   C     0.35400   0.10319   0.91423   0.00000  Uiso   1.00
C802   C     0.22957   0.39544   0.79620   0.00000  Uiso   1.00
C803   C     0.37813   0.13433   0.88373   0.00000  Uiso   1.00
C804   C     0.38365   0.31694   0.76980   0.00000  Uiso   1.00
C805   C     0.36510   0.29983   0.72566   0.00000  Uiso   1.00
C806   C     0.34151   0.33126   0.69495   0.00000  Uiso   1.00
C807   C     0.33584   0.37967   0.70844   0.00000  Uiso   1.00
C808   C     0.35421   0.39688   0.75239   0.00000  Uiso   1.00
C809   C     0.37830   0.36571   0.78290   0.00000  Uiso   1.00
C810   C     0.11636   0.18300   0.76986   0.00000  Uiso   1.00
C811   C     0.13497   0.20008   0.72574   0.00000  Uiso   1.00
C812   C     0.15856   0.16862   0.69506   0.00000  Uiso   1.00
C813   C     0.27047   0.10456   0.79623   0.00000  Uiso   1.00
C814   C     0.16415   0.12020   0.70856   0.00000  Uiso   1.00
C815   C     0.14571   0.10301   0.75248   0.00000  Uiso   1.00
C816   C     0.12163   0.13422   0.78297   0.00000  Uiso   1.00
C817   C     0.27043   0.39544   0.87046   0.00000  Uiso   1.00
C818   C     0.22943   0.05361   0.87138   0.00000  Uiso   1.00
C819   C     0.22947   0.44640   0.79526   0.00000  Uiso   1.00
C820   C     0.27057   0.05360   0.79528   0.00000  Uiso   1.00
Cu821  Cu    0.25000   0.29822   0.83333   0.00000  Uiso   1.00
Cu822  Cu    0.25000   0.20179   0.83333   0.00000  Uiso   1.00
F823   F     0.02403   0.31494   0.89138   0.00000  Uiso   1.00
F824   F     0.47596   0.18511   0.89145   0.00000  Uiso   1.00
F825   F     0.47599   0.31489   0.77531   0.00000  Uiso   1.00
F826   F     0.02402   0.18505   0.77538   0.00000  Uiso   1.00
F827   F     0.20859   0.03026   0.90878   0.00000  Uiso   1.00
F828   F     0.20867   0.46974   0.75784   0.00000  Uiso   1.00
F829   F     0.29140   0.03025   0.75789   0.00000  Uiso   1.00
F830   F     0.29132   0.46974   0.90883   0.00000  Uiso   1.00
H831   H     0.21305   0.12425   0.89959   0.00000  Uiso   1.00
H832   H     0.36886   0.23777   0.95153   0.00000  Uiso   1.00
H833   H     0.32746   0.18197   0.67259   0.00000  Uiso   1.00
H834   H     0.31707   0.09624   0.98181   0.00000  Uiso   1.00
H835   H     0.34931   0.06578   0.90367   0.00000  Uiso   1.00
H836   H     0.39179   0.12080   0.84948   0.00000  Uiso   1.00
H837   H     0.36870   0.26220   0.71529   0.00000  Uiso   1.00
H838   H     0.32736   0.31804   0.99420   0.00000  Uiso   1.00
H839   H     0.31720   0.40383   0.68487   0.00000  Uiso   1.00
H840   H     0.34961   0.43432   0.76290   0.00000  Uiso   1.00
H841   H     0.39204   0.37926   0.81710   0.00000  Uiso   1.00
H842   H     0.21311   0.37576   0.76703   0.00000  Uiso   1.00
H843   H     0.13143   0.23772   0.71536   0.00000  Uiso   1.00
H844   H     0.17275   0.18182   0.99433   0.00000  Uiso   1.00
H845   H     0.18278   0.09601   0.68501   0.00000  Uiso   1.00
H846   H     0.15024   0.06557   0.76300   0.00000  Uiso   1.00
H847   H     0.10784   0.12069   0.81715   0.00000  Uiso   1.00
H848   H     0.28695   0.12425   0.76708   0.00000  Uiso   1.00
H849   H     0.28689   0.37575   0.89963   0.00000  Uiso   1.00
H850   H     0.13142   0.26233   0.95136   0.00000  Uiso   1.00
H851   H     0.17277   0.31825   0.67235   0.00000  Uiso   1.00
H852   H     0.18283   0.40403   0.98160   0.00000  Uiso   1.00
H853   H     0.15030   0.43443   0.90359   0.00000  Uiso   1.00
H854   H     0.10787   0.37929   0.84949   0.00000  Uiso   1.00
N855   N     0.25000   0.12935   0.83333   0.00000  Uiso   1.00
N856   N     0.25000   0.37066   0.83333   0.00000  Uiso   1.00
O857   O     0.18573   0.29072   0.83334   0.00000  Uiso   1.00
O858   O     0.31427   0.20929   0.83333   0.00000  Uiso   1.00
O859   O     0.31427   0.29072   0.83333   0.00000  Uiso   1.00
O860   O     0.18573   0.20929   0.83334   0.00000  Uiso   1.00
O861   O     0.25000   0.29071   0.76280   0.00000  Uiso   1.00
O862   O     0.25000   0.20929   0.90387   0.00000  Uiso   1.00
O863   O     0.25000   0.29071   0.90387   0.00000  Uiso   1.00
O864   O     0.25000   0.20929   0.76280   0.00000  Uiso   1.00
C865   C     0.66494   0.25000   0.83334   0.00000  Uiso   1.00
C866   C     0.77053   0.44639   0.87141   0.00000  Uiso   1.00
C867   C     0.75000   0.25000   0.74016   0.00000  Uiso   1.00
C868   C     0.75000   0.25000   0.92651   0.00000  Uiso   1.00
C869   C     0.75000   0.02724   0.83333   0.00000  Uiso   1.00
C870   C     0.75000   0.47276   0.83333   0.00000  Uiso   1.00
C871   C     0.75000   0.25000   0.68852   0.00000  Uiso   1.00
C872   C     0.75000   0.25000   0.97814   0.00000  Uiso   1.00
C873   C     0.54689   0.28328   0.86267   0.00000  Uiso   1.00
C874   C     0.95310   0.21675   0.86270   0.00000  Uiso   1.00
C875   C     0.95312   0.28326   0.80404   0.00000  Uiso   1.00
C876   C     0.83506   0.25000   0.83333   0.00000  Uiso   1.00
C877   C     0.54689   0.21671   0.80408   0.00000  Uiso   1.00
C878   C     0.59310   0.28328   0.86329   0.00000  Uiso   1.00
C879   C     0.90689   0.21675   0.86332   0.00000  Uiso   1.00
C880   C     0.90691   0.28326   0.80339   0.00000  Uiso   1.00
C881   C     0.59310   0.21672   0.80342   0.00000  Uiso   1.00
C882   C     0.61648   0.25000   0.83335   0.00000  Uiso   1.00
C883   C     0.88352   0.25000   0.83334   0.00000  Uiso   1.00
C884   C     0.52408   0.24999   0.83338   0.00000  Uiso   1.00
C885   C     0.97592   0.25000   0.83338   0.00000  Uiso   1.00
C886   C     0.61637   0.31701   0.89682   0.00000  Uiso   1.00
C887   C     0.72953   0.10456   0.87044   0.00000  Uiso   1.00
C888   C     0.63497   0.29995   0.94096   0.00000  Uiso   1.00
C889   C     0.65857   0.33143   0.97160   0.00000  Uiso   1.00
C890   C     0.66418   0.37984   0.95807   0.00000  Uiso   1.00
C891   C     0.64576   0.39700   0.91414   0.00000  Uiso   1.00
C892   C     0.62166   0.36578   0.88368   0.00000  Uiso   1.00
C893   C     0.88361   0.18307   0.89690   0.00000  Uiso   1.00
C894   C     0.86517   0.20016   0.94111   0.00000  Uiso   1.00
C895   C     0.84154   0.16875   0.97180   0.00000  Uiso   1.00
C896   C     0.83574   0.12038   0.95824   0.00000  Uiso   1.00
C897   C     0.85400   0.10319   0.91423   0.00000  Uiso   1.00
C898   C     0.72957   0.39544   0.79620   0.00000  Uiso   1.00
C899   C     0.87813   0.13433   0.88373   0.00000  Uiso   1.00
C900   C     0.88365   0.31694   0.76980   0.00000  Uiso   1.00
C901   C     0.86510   0.29983   0.72566   0.00000  Uiso   1.00
C902   C     0.84151   0.33126   0.69495   0.00000  Uiso   1.00
C903   C     0.83584   0.37967   0.70844   0.00000  Uiso   1.00
C904   C     0.85421   0.39688   0.75239   0.00000  Uiso   1.00
C905   C     0.87830   0.36571   0.78290   0.00000  Uiso   1.00
C906   C     0.61636   0.18300   0.76986   0.00000  Uiso   1.00
C907   C     0.63497   0.20008   0.72574   0.00000  Uiso   1.00
C908   C     0.65856   0.16862   0.69506   0.00000  Uiso   1.00
C909   C     0.77047   0.10456   0.79623   0.00000  Uiso   1.00
C910   C     0.66415   0.12020   0.70856   0.00000  Uiso   1.00
C911   C     0.64571   0.10301   0.75248   0.00000  Uiso   1.00
C912   C     0.62163   0.13422   0.78297   0.00000  Uiso   1.00
C913   C     0.77043   0.39544   0.87046   0.00000  Uiso   1.00
C914   C     0.72943   0.05361   0.87138   0.00000  Uiso   1.00
C915   C     0.72947   0.44640   0.79526   0.00000  Uiso   1.00
C916   C     0.77057   0.05360   0.79528   0.00000  Uiso   1.00
Cu917  Cu    0.75000   0.29822   0.83333   0.00000  Uiso   1.00
Cu918  Cu    0.75000   0.20179   0.83333   0.00000  Uiso   1.00
F919   F     0.52403   0.31494   0.89138   0.00000  Uiso   1.00
F920   F     0.97596   0.18511   0.89145   0.00000  Uiso   1.00
F921   F     0.97599   0.31489   0.77531   0.00000  Uiso   1.00
F922   F     0.52402   0.18505   0.77538   0.00000  Uiso   1.00
F923   F     0.70859   0.03026   0.90878   0.00000  Uiso   1.00
F924   F     0.70867   0.46974   0.75784   0.00000  Uiso   1.00
F925   F     0.79140   0.03025   0.75789   0.00000  Uiso   1.00
F926   F     0.79132   0.46974   0.90883   0.00000  Uiso   1.00
H927   H     0.71305   0.12425   0.89959   0.00000  Uiso   1.00
H928   H     0.86886   0.23777   0.95153   0.00000  Uiso   1.00
H929   H     0.82746   0.18197   0.67259   0.00000  Uiso   1.00
H930   H     0.81707   0.09624   0.98181   0.00000  Uiso   1.00
H931   H     0.84931   0.06578   0.90367   0.00000  Uiso   1.00
H932   H     0.89179   0.12080   0.84948   0.00000  Uiso   1.00
H933   H     0.86870   0.26220   0.71529   0.00000  Uiso   1.00
H934   H     0.82736   0.31804   0.99420   0.00000  Uiso   1.00
H935   H     0.81720   0.40383   0.68487   0.00000  Uiso   1.00
H936   H     0.84961   0.43432   0.76290   0.00000  Uiso   1.00
H937   H     0.89204   0.37926   0.81710   0.00000  Uiso   1.00
H938   H     0.71311   0.37576   0.76703   0.00000  Uiso   1.00
H939   H     0.63143   0.23772   0.71536   0.00000  Uiso   1.00
H940   H     0.67275   0.18182   0.99433   0.00000  Uiso   1.00
H941   H     0.68278   0.09601   0.68501   0.00000  Uiso   1.00
H942   H     0.65024   0.06557   0.76300   0.00000  Uiso   1.00
H943   H     0.60784   0.12069   0.81715   0.00000  Uiso   1.00
H944   H     0.78695   0.12425   0.76708   0.00000  Uiso   1.00
H945   H     0.78689   0.37575   0.89963   0.00000  Uiso   1.00
H946   H     0.63142   0.26233   0.95136   0.00000  Uiso   1.00
H947   H     0.67277   0.31825   0.67235   0.00000  Uiso   1.00
H948   H     0.68283   0.40403   0.98160   0.00000  Uiso   1.00
H949   H     0.65030   0.43443   0.90359   0.00000  Uiso   1.00
H950   H     0.60787   0.37929   0.84949   0.00000  Uiso   1.00
N951   N     0.75000   0.12935   0.83333   0.00000  Uiso   1.00
N952   N     0.75000   0.37066   0.83333   0.00000  Uiso   1.00
O953   O     0.68573   0.29072   0.83334   0.00000  Uiso   1.00
O954   O     0.81427   0.20929   0.83333   0.00000  Uiso   1.00
O955   O     0.81427   0.29072   0.83333   0.00000  Uiso   1.00
O956   O     0.68573   0.20929   0.83334   0.00000  Uiso   1.00
O957   O     0.75000   0.29071   0.76280   0.00000  Uiso   1.00
O958   O     0.75000   0.20929   0.90387   0.00000  Uiso   1.00
O959   O     0.75000   0.29071   0.90387   0.00000  Uiso   1.00
O960   O     0.75000   0.20929   0.76280   0.00000  Uiso   1.00
C961   C     0.16494   0.75000   0.83334   0.00000  Uiso   1.00
C962   C     0.27053   0.94639   0.87141   0.00000  Uiso   1.00
C963   C     0.25000   0.75000   0.74016   0.00000  Uiso   1.00
C964   C     0.25000   0.75000   0.92651   0.00000  Uiso   1.00
C965   C     0.25000   0.52724   0.83333   0.00000  Uiso   1.00
C966   C     0.25000   0.97276   0.83333   0.00000  Uiso   1.00
C967   C     0.25000   0.75000   0.68852   0.00000  Uiso   1.00
C968   C     0.25000   0.75000   0.97814   0.00000  Uiso   1.00
C969   C     0.04689   0.78328   0.86267   0.00000  Uiso   1.00
C970   C     0.45310   0.71675   0.86270   0.00000  Uiso   1.00
C971   C     0.45312   0.78326   0.80404   0.00000  Uiso   1.00
C972   C     0.33506   0.75000   0.83333   0.00000  Uiso   1.00
C973   C     0.04689   0.71671   0.80408   0.00000  Uiso   1.00
C974   C     0.09310   0.78328   0.86329   0.00000  Uiso   1.00
C975   C     0.40689   0.71675   0.86332   0.00000  Uiso   1.00
C976   C     0.40691   0.78326   0.80339   0.00000  Uiso   1.00
C977   C     0.09310   0.71672   0.80342   0.00000  Uiso   1.00
C978   C     0.11648   0.75000   0.83335   0.00000  Uiso   1.00
C979   C     0.38352   0.75000   0.83334   0.00000  Uiso   1.00
C980   C     0.02408   0.74999   0.83338   0.00000  Uiso   1.00
C981   C     0.47592   0.75000   0.83338   0.00000  Uiso   1.00
C982   C     0.11637   0.81701   0.89682   0.00000  Uiso   1.00
C983   C     0.22953   0.60456   0.87044   0.00000  Uiso   1.00
C984   C     0.13497   0.79995   0.94096   0.00000  Uiso   1.00
C985   C     0.15857   0.83143   0.97160   0.00000  Uiso   1.00
C986   C     0.16418   0.87984   0.95807   0.00000  Uiso   1.00
C987   C     0.14576   0.89700   0.91414   0.00000  Uiso   1.00
C988   C     0.12166   0.86578   0.88368   0.00000  Uiso   1.00
C989   C     0.38361   0.68307   0.89690   0.00000  Uiso   1.00
C990   C     0.36517   0.70016   0.94111   0.00000  Uiso   1.00
C991   C     0.34154   0.66875   0.97180   0.00000  Uiso   1.00
C992   C     0.33574   0.62038   0.95824   0.00000  Uiso   1.00
C993   C     0.35400   0.60319   0.91423   0.00000  Uiso   1.00
C994   C     0.22957   0.89544   0.79620   0.00000  Uiso   1.00
C995   C     0.37813   0.63433   0.88373   0.00000  Uiso   1.00
C996   C     0.38365   0.81694   0.76980   0.00000  Uiso   1.00
C997   C     0.36510   0.79983   0.72566   0.00000  Uiso   1.00
C998   C     0.34151   0.83126   0.69495   0.00000  Uiso   1.00
C999   C     0.33584   0.87967   0.70844   0.00000  Uiso   1.00
C1000  C     0.35421   0.89688   0.75239   0.00000  Uiso   1.00
C1001  C     0.37830   0.86571   0.78290   0.00000  Uiso   1.00
C1002  C     0.11636   0.68300   0.76986   0.00000  Uiso   1.00
C1003  C     0.13497   0.70008   0.72574   0.00000  Uiso   1.00
C1004  C     0.15856   0.66862   0.69506   0.00000  Uiso   1.00
C1005  C     0.27047   0.60456   0.79623   0.00000  Uiso   1.00
C1006  C     0.16415   0.62020   0.70856   0.00000  Uiso   1.00
C1007  C     0.14571   0.60301   0.75248   0.00000  Uiso   1.00
C1008  C     0.12163   0.63422   0.78297   0.00000  Uiso   1.00
C1009  C     0.27043   0.89544   0.87046   0.00000  Uiso   1.00
C1010  C     0.22943   0.55361   0.87138   0.00000  Uiso   1.00
C1011  C     0.22947   0.94640   0.79526   0.00000  Uiso   1.00
C1012  C     0.27057   0.55360   0.79528   0.00000  Uiso   1.00
Cu1013 Cu    0.25000   0.79822   0.83333   0.00000  Uiso   1.00
Cu1014 Cu    0.25000   0.70179   0.83333   0.00000  Uiso   1.00
F1015  F     0.02403   0.81494   0.89138   0.00000  Uiso   1.00
F1016  F     0.47596   0.68511   0.89145   0.00000  Uiso   1.00
F1017  F     0.47599   0.81489   0.77531   0.00000  Uiso   1.00
F1018  F     0.02402   0.68505   0.77538   0.00000  Uiso   1.00
F1019  F     0.20859   0.53026   0.90878   0.00000  Uiso   1.00
F1020  F     0.20867   0.96974   0.75784   0.00000  Uiso   1.00
F1021  F     0.29140   0.53025   0.75789   0.00000  Uiso   1.00
F1022  F     0.29132   0.96974   0.90883   0.00000  Uiso   1.00
H1023  H     0.21305   0.62425   0.89959   0.00000  Uiso   1.00
H1024  H     0.36886   0.73777   0.95153   0.00000  Uiso   1.00
H1025  H     0.32746   0.68197   0.67259   0.00000  Uiso   1.00
H1026  H     0.31707   0.59624   0.98181   0.00000  Uiso   1.00
H1027  H     0.34931   0.56578   0.90367   0.00000  Uiso   1.00
H1028  H     0.39179   0.62080   0.84948   0.00000  Uiso   1.00
H1029  H     0.36870   0.76220   0.71529   0.00000  Uiso   1.00
H1030  H     0.32736   0.81804   0.99420   0.00000  Uiso   1.00
H1031  H     0.31720   0.90383   0.68487   0.00000  Uiso   1.00
H1032  H     0.34961   0.93432   0.76290   0.00000  Uiso   1.00
H1033  H     0.39204   0.87926   0.81710   0.00000  Uiso   1.00
H1034  H     0.21311   0.87576   0.76703   0.00000  Uiso   1.00
H1035  H     0.13143   0.73772   0.71536   0.00000  Uiso   1.00
H1036  H     0.17275   0.68182   0.99433   0.00000  Uiso   1.00
H1037  H     0.18278   0.59601   0.68501   0.00000  Uiso   1.00
H1038  H     0.15024   0.56557   0.76300   0.00000  Uiso   1.00
H1039  H     0.10784   0.62069   0.81715   0.00000  Uiso   1.00
H1040  H     0.28695   0.62425   0.76708   0.00000  Uiso   1.00
H1041  H     0.28689   0.87575   0.89963   0.00000  Uiso   1.00
H1042  H     0.13142   0.76233   0.95136   0.00000  Uiso   1.00
H1043  H     0.17277   0.81825   0.67235   0.00000  Uiso   1.00
H1044  H     0.18283   0.90403   0.98160   0.00000  Uiso   1.00
H1045  H     0.15030   0.93443   0.90359   0.00000  Uiso   1.00
H1046  H     0.10787   0.87929   0.84949   0.00000  Uiso   1.00
N1047  N     0.25000   0.62935   0.83333   0.00000  Uiso   1.00
N1048  N     0.25000   0.87066   0.83333   0.00000  Uiso   1.00
O1049  O     0.18573   0.79072   0.83334   0.00000  Uiso   1.00
O1050  O     0.31427   0.70929   0.83333   0.00000  Uiso   1.00
O1051  O     0.31427   0.79072   0.83333   0.00000  Uiso   1.00
O1052  O     0.18573   0.70929   0.83334   0.00000  Uiso   1.00
O1053  O     0.25000   0.79071   0.76280   0.00000  Uiso   1.00
O1054  O     0.25000   0.70929   0.90387   0.00000  Uiso   1.00
O1055  O     0.25000   0.79071   0.90387   0.00000  Uiso   1.00
O1056  O     0.25000   0.70929   0.76280   0.00000  Uiso   1.00
C1057  C     0.66494   0.75000   0.83334   0.00000  Uiso   1.00
C1058  C     0.77053   0.94639   0.87141   0.00000  Uiso   1.00
C1059  C     0.75000   0.75000   0.74016   0.00000  Uiso   1.00
C1060  C     0.75000   0.75000   0.92651   0.00000  Uiso   1.00
C1061  C     0.75000   0.52724   0.83333   0.00000  Uiso   1.00
C1062  C     0.75000   0.97276   0.83333   0.00000  Uiso   1.00
C1063  C     0.75000   0.75000   0.68852   0.00000  Uiso   1.00
C1064  C     0.75000   0.75000   0.97814   0.00000  Uiso   1.00
C1065  C     0.54689   0.78328   0.86267   0.00000  Uiso   1.00
C1066  C     0.95310   0.71675   0.86270   0.00000  Uiso   1.00
C1067  C     0.95312   0.78326   0.80404   0.00000  Uiso   1.00
C1068  C     0.83506   0.75000   0.83333   0.00000  Uiso   1.00
C1069  C     0.54689   0.71671   0.80408   0.00000  Uiso   1.00
C1070  C     0.59310   0.78328   0.86329   0.00000  Uiso   1.00
C1071  C     0.90689   0.71675   0.86332   0.00000  Uiso   1.00
C1072  C     0.90691   0.78326   0.80339   0.00000  Uiso   1.00
C1073  C     0.59310   0.71672   0.80342   0.00000  Uiso   1.00
C1074  C     0.61648   0.75000   0.83335   0.00000  Uiso   1.00
C1075  C     0.88352   0.75000   0.83334   0.00000  Uiso   1.00
C1076  C     0.52408   0.74999   0.83338   0.00000  Uiso   1.00
C1077  C     0.97592   0.75000   0.83338   0.00000  Uiso   1.00
C1078  C     0.61637   0.81701   0.89682   0.00000  Uiso   1.00
C1079  C     0.72953   0.60456   0.87044   0.00000  Uiso   1.00
C1080  C     0.63497   0.79995   0.94096   0.00000  Uiso   1.00
C1081  C     0.65857   0.83143   0.97160   0.00000  Uiso   1.00
C1082  C     0.66418   0.87984   0.95807   0.00000  Uiso   1.00
C1083  C     0.64576   0.89700   0.91414   0.00000  Uiso   1.00
C1084  C     0.62166   0.86578   0.88368   0.00000  Uiso   1.00
C1085  C     0.88361   0.68307   0.89690   0.00000  Uiso   1.00
C1086  C     0.86517   0.70016   0.94111   0.00000  Uiso   1.00
C1087  C     0.84154   0.66875   0.97180   0.00000  Uiso   1.00
C1088  C     0.83574   0.62038   0.95824   0.00000  Uiso   1.00
C1089  C     0.85400   0.60319   0.91423   0.00000  Uiso   1.00
C1090  C     0.72957   0.89544   0.79620   0.00000  Uiso   1.00
C1091  C     0.87813   0.63433   0.88373   0.00000  Uiso   1.00
C1092  C     0.88365   0.81694   0.76980   0.00000  Uiso   1.00
C1093  C     0.86510   0.79983   0.72566   0.00000  Uiso   1.00
C1094  C     0.84151   0.83126   0.69495   0.00000  Uiso   1.00
C1095  C     0.83584   0.87967   0.70844   0.00000  Uiso   1.00
C1096  C     0.85421   0.89688   0.75239   0.00000  Uiso   1.00
C1097  C     0.87830   0.86571   0.78290   0.00000  Uiso   1.00
C1098  C     0.61636   0.68300   0.76986   0.00000  Uiso   1.00
C1099  C     0.63497   0.70008   0.72574   0.00000  Uiso   1.00
C1100  C     0.65856   0.66862   0.69506   0.00000  Uiso   1.00
C1101  C     0.77047   0.60456   0.79623   0.00000  Uiso   1.00
C1102  C     0.66415   0.62020   0.70856   0.00000  Uiso   1.00
C1103  C     0.64571   0.60301   0.75248   0.00000  Uiso   1.00
C1104  C     0.62163   0.63422   0.78297   0.00000  Uiso   1.00
C1105  C     0.77043   0.89544   0.87046   0.00000  Uiso   1.00
C1106  C     0.72943   0.55361   0.87138   0.00000  Uiso   1.00
C1107  C     0.72947   0.94640   0.79526   0.00000  Uiso   1.00
C1108  C     0.77057   0.55360   0.79528   0.00000  Uiso   1.00
Cu1109 Cu    0.75000   0.79822   0.83333   0.00000  Uiso   1.00
Cu1110 Cu    0.75000   0.70179   0.83333   0.00000  Uiso   1.00
F1111  F     0.52403   0.81494   0.89138   0.00000  Uiso   1.00
F1112  F     0.97596   0.68511   0.89145   0.00000  Uiso   1.00
F1113  F     0.97599   0.81489   0.77531   0.00000  Uiso   1.00
F1114  F     0.52402   0.68505   0.77538   0.00000  Uiso   1.00
F1115  F     0.70859   0.53026   0.90878   0.00000  Uiso   1.00
F1116  F     0.70867   0.96974   0.75784   0.00000  Uiso   1.00
F1117  F     0.79140   0.53025   0.75789   0.00000  Uiso   1.00
F1118  F     0.79132   0.96974   0.90883   0.00000  Uiso   1.00
H1119  H     0.71305   0.62425   0.89959   0.00000  Uiso   1.00
H1120  H     0.86886   0.73777   0.95153   0.00000  Uiso   1.00
H1121  H     0.82746   0.68197   0.67259   0.00000  Uiso   1.00
H1122  H     0.81707   0.59624   0.98181   0.00000  Uiso   1.00
H1123  H     0.84931   0.56578   0.90367   0.00000  Uiso   1.00
H1124  H     0.89179   0.62080   0.84948   0.00000  Uiso   1.00
H1125  H     0.86870   0.76220   0.71529   0.00000  Uiso   1.00
H1126  H     0.82736   0.81804   0.99420   0.00000  Uiso   1.00
H1127  H     0.81720   0.90383   0.68487   0.00000  Uiso   1.00
H1128  H     0.84961   0.93432   0.76290   0.00000  Uiso   1.00
H1129  H     0.89204   0.87926   0.81710   0.00000  Uiso   1.00
H1130  H     0.71311   0.87576   0.76703   0.00000  Uiso   1.00
H1131  H     0.63143   0.73772   0.71536   0.00000  Uiso   1.00
H1132  H     0.67275   0.68182   0.99433   0.00000  Uiso   1.00
H1133  H     0.68278   0.59601   0.68501   0.00000  Uiso   1.00
H1134  H     0.65024   0.56557   0.76300   0.00000  Uiso   1.00
H1135  H     0.60784   0.62069   0.81715   0.00000  Uiso   1.00
H1136  H     0.78695   0.62425   0.76708   0.00000  Uiso   1.00
H1137  H     0.78689   0.87575   0.89963   0.00000  Uiso   1.00
H1138  H     0.63142   0.76233   0.95136   0.00000  Uiso   1.00
H1139  H     0.67277   0.81825   0.67235   0.00000  Uiso   1.00
H1140  H     0.68283   0.90403   0.98160   0.00000  Uiso   1.00
H1141  H     0.65030   0.93443   0.90359   0.00000  Uiso   1.00
H1142  H     0.60787   0.87929   0.84949   0.00000  Uiso   1.00
N1143  N     0.75000   0.62935   0.83333   0.00000  Uiso   1.00
N1144  N     0.75000   0.87066   0.83333   0.00000  Uiso   1.00
O1145  O     0.68573   0.79072   0.83334   0.00000  Uiso   1.00
O1146  O     0.81427   0.70929   0.83333   0.00000  Uiso   1.00
O1147  O     0.81427   0.79072   0.83333   0.00000  Uiso   1.00
O1148  O     0.68573   0.70929   0.83334   0.00000  Uiso   1.00
O1149  O     0.75000   0.79071   0.76280   0.00000  Uiso   1.00
O1150  O     0.75000   0.70929   0.90387   0.00000  Uiso   1.00
O1151  O     0.75000   0.79071   0.90387   0.00000  Uiso   1.00
O1152  O     0.75000   0.70929   0.76280   0.00000  Uiso   1.00
loop_
_geom_bond_atom_site_label_1
_geom_bond_atom_site_label_2
_geom_bond_distance
_geom_bond_site_symmetry_2
_ccdc_geom_bond_type
C1     C18     1.463   .     S
C1     O92     1.289   .     A
C1     O89     1.289   .     A
C2     C6      1.408   .     A
C2     C49     1.409   .     A
C2     F62     1.357   .     S
C3     O96     1.282   .     A
C3     O93     1.282   .     A
C3     C7      1.401   .     S
C4     C8      1.401   .     S
C4     O95     1.282   .     A
C4     O94     1.282   .     A
C5     C52     1.408   .     A
C5     C50     1.408   .     A
C5     C198    1.506   1_545 S
C6     C51     1.408   .     A
C6     C197    1.506   .     S
C7     C776    1.186   1_554 S
C8     C391    1.186   .     S
C9     F55     1.360   .     S
C9     C14     1.395   .     A
C9     C20     1.397   .     A
C10    F56     1.360   .     S
C10    C21     1.397   .     A
C10    C15     1.395   .     A
C11    C21     1.397   .     A
C11    C16     1.395   .     A
C11    F57     1.360   .     S
C12    O91     1.289   .     A
C12    O90     1.289   .     A
C12    C19     1.463   .     S
C13    F58     1.360   .     S
C13    C20     1.397   .     A
C13    C17     1.395   .     A
C14    C18     1.416   .     A
C14    C22     1.480   .     S
C15    C19     1.416   .     A
C15    C29     1.480   .     S
C16    C36     1.480   .     S
C16    C19     1.416   .     A
C17    C42     1.480   .     S
C17    C18     1.416   .     A
C20    C117    1.454   1_455 S
C21    C116    1.454   .     S
C22    C28     1.404   .     A
C22    C24     1.404   .     A
C23    H63     1.081   .     S
C23    C50     1.409   .     A
C23    N87     1.366   .     A
C24    H82     1.083   .     S
C24    C25     1.399   .     A
C25    C26     1.398   .     A
C25    H467    1.082   .     S
C26    H84     1.082   .     S
C26    C27     1.398   .     A
C27    H85     1.083   .     S
C27    C28     1.399   .     A
C28    H86     1.083   .     S
C29    C30     1.404   .     A
C29    C35     1.404   .     A
C30    H64     1.083   .     S
C30    C31     1.399   .     A
C31    C32     1.398   .     A
C31    H449    1.082   .     S
C32    H66     1.082   .     S
C32    C33     1.398   .     A
C33    H67     1.083   .     S
C33    C35     1.399   .     A
C34    N88     1.366   .     A
C34    C51     1.409   .     A
C34    H74     1.081   .     S
C35    H68     1.083   .     S
C36    C37     1.404   .     A
C36    C41     1.404   .     A
C37    H69     1.083   .     S
C37    C38     1.399   .     A
C38    C39     1.398   .     A
C38    H838    1.082   1_554 S
C39    C40     1.398   .     A
C39    H71     1.082   .     S
C40    C41     1.399   .     A
C40    H72     1.083   .     S
C41    H73     1.083   .     S
C42    C48     1.404   .     A
C42    C43     1.404   .     A
C43    H75     1.083   .     S
C43    C44     1.399   .     A
C44    C46     1.398   .     A
C44    H844    1.082   1_554 S
C45    N87     1.366   .     A
C45    H80     1.081   .     S
C45    C52     1.409   .     A
C46    C47     1.398   .     A
C46    H77     1.083   .     S
C47    C48     1.399   .     A
C47    H78     1.083   .     S
C48    H79     1.083   .     S
C49    H81     1.081   .     S
C49    N88     1.366   .     A
C50    F59     1.357   .     S
C51    F60     1.357   .     S
C52    F61     1.357   .     S
Cu53   O95     1.925   .     S
Cu53   Cu54    2.666   .     S
Cu53   O91     1.951   .     S
Cu53   O93     1.925   .     S
Cu53   O89     1.951   .     S
Cu53   N88     2.003   .     S
Cu54   O90     1.951   .     S
Cu54   N87     2.003   .     S
Cu54   O96     1.925   .     S
Cu54   O92     1.951   .     S
Cu54   O94     1.925   .     S
H65    C799    1.082   1_554 S
H70    C422    1.082   .     S
H76    C428    1.082   .     S
H83    C793    1.082   1_554 S
C97    C114    1.463   .     S
C97    O188    1.289   .     A
C97    O185    1.289   .     A
C98    C102    1.408   .     A
C98    C145    1.409   .     A
C98    F158    1.357   .     S
C99    O192    1.282   .     A
C99    O189    1.282   .     A
C99    C103    1.401   .     S
C100   C104    1.401   .     S
C100   O191    1.282   .     A
C100   O190    1.282   .     A
C101   C148    1.408   .     A
C101   C146    1.408   .     A
C101   C294    1.506   1_545 S
C102   C147    1.408   .     A
C102   C293    1.506   .     S
C103   C872    1.186   1_554 S
C104   C487    1.186   .     S
C105   F151    1.360   .     S
C105   C110    1.395   .     A
C105   C116    1.397   .     A
C106   F152    1.360   .     S
C106   C117    1.397   .     A
C106   C111    1.395   .     A
C107   C117    1.397   .     A
C107   C112    1.395   .     A
C107   F153    1.360   .     S
C108   O187    1.289   .     A
C108   O186    1.289   .     A
C108   C115    1.463   .     S
C109   F154    1.360   .     S
C109   C116    1.397   .     A
C109   C113    1.395   .     A
C110   C114    1.416   .     A
C110   C118    1.480   .     S
C111   C115    1.416   .     A
C111   C125    1.480   .     S
C112   C132    1.480   .     S
C112   C115    1.416   .     A
C113   C138    1.480   .     S
C113   C114    1.416   .     A
C117   C20     1.454   1_655 S
C118   C124    1.404   .     A
C118   C120    1.404   .     A
C119   H159    1.081   .     S
C119   C146    1.409   .     A
C119   N183    1.366   .     A
C120   H178    1.083   .     S
C120   C121    1.399   .     A
C121   C122    1.398   .     A
C121   H563    1.082   .     S
C122   H180    1.082   .     S
C122   C123    1.398   .     A
C123   H181    1.083   .     S
C123   C124    1.399   .     A
C124   H182    1.083   .     S
C125   C126    1.404   .     A
C125   C131    1.404   .     A
C126   H160    1.083   .     S
C126   C127    1.399   .     A
C127   C128    1.398   .     A
C127   H545    1.082   .     S
C128   H162    1.082   .     S
C128   C129    1.398   .     A
C129   H163    1.083   .     S
C129   C131    1.399   .     A
C130   N184    1.366   .     A
C130   C147    1.409   .     A
C130   H170    1.081   .     S
C131   H164    1.083   .     S
C132   C133    1.404   .     A
C132   C137    1.404   .     A
C133   H165    1.083   .     S
C133   C134    1.399   .     A
C134   C135    1.398   .     A
C134   H934    1.082   1_554 S
C135   C136    1.398   .     A
C135   H167    1.082   .     S
C136   C137    1.399   .     A
C136   H168    1.083   .     S
C137   H169    1.083   .     S
C138   C144    1.404   .     A
C138   C139    1.404   .     A
C139   H171    1.083   .     S
C139   C140    1.399   .     A
C140   C142    1.398   .     A
C140   H940    1.082   1_554 S
C141   N183    1.366   .     A
C141   H176    1.081   .     S
C141   C148    1.409   .     A
C142   C143    1.398   .     A
C142   H173    1.083   .     S
C143   C144    1.399   .     A
C143   H174    1.083   .     S
C144   H175    1.083   .     S
C145   H177    1.081   .     S
C145   N184    1.366   .     A
C146   F155    1.357   .     S
C147   F156    1.357   .     S
C148   F157    1.357   .     S
Cu149  O191    1.925   .     S
Cu149  Cu150   2.666   .     S
Cu149  O187    1.951   .     S
Cu149  O189    1.925   .     S
Cu149  O185    1.951   .     S
Cu149  N184    2.003   .     S
Cu150  O186    1.951   .     S
Cu150  N183    2.003   .     S
Cu150  O192    1.925   .     S
Cu150  O188    1.951   .     S
Cu150  O190    1.925   .     S
H161   C895    1.082   1_554 S
H166   C518    1.082   .     S
H172   C524    1.082   .     S
H179   C889    1.082   1_554 S
C193   C210    1.463   .     S
C193   O284    1.289   .     A
C193   O281    1.289   .     A
C194   C198    1.408   .     A
C194   C241    1.409   .     A
C194   F254    1.357   .     S
C195   O288    1.282   .     A
C195   O285    1.282   .     A
C195   C199    1.401   .     S
C196   C200    1.401   .     S
C196   O287    1.282   .     A
C196   O286    1.282   .     A
C197   C244    1.408   .     A
C197   C242    1.408   .     A
C198   C243    1.408   .     A
C198   C5      1.506   1_565 S
C199   C968    1.186   1_554 S
C200   C583    1.186   .     S
C201   F247    1.360   .     S
C201   C206    1.395   .     A
C201   C212    1.397   .     A
C202   F248    1.360   .     S
C202   C213    1.397   .     A
C202   C207    1.395   .     A
C203   C213    1.397   .     A
C203   C208    1.395   .     A
C203   F249    1.360   .     S
C204   O283    1.289   .     A
C204   O282    1.289   .     A
C204   C211    1.463   .     S
C205   F250    1.360   .     S
C205   C212    1.397   .     A
C205   C209    1.395   .     A
C206   C210    1.416   .     A
C206   C214    1.480   .     S
C207   C211    1.416   .     A
C207   C221    1.480   .     S
C208   C228    1.480   .     S
C208   C211    1.416   .     A
C209   C234    1.480   .     S
C209   C210    1.416   .     A
C212   C309    1.454   1_455 S
C213   C308    1.454   .     S
C214   C220    1.404   .     A
C214   C216    1.404   .     A
C215   H255    1.081   .     S
C215   C242    1.409   .     A
C215   N279    1.366   .     A
C216   H274    1.083   .     S
C216   C217    1.399   .     A
C217   C218    1.398   .     A
C217   H659    1.082   .     S
C218   H276    1.082   .     S
C218   C219    1.398   .     A
C219   H277    1.083   .     S
C219   C220    1.399   .     A
C220   H278    1.083   .     S
C221   C222    1.404   .     A
C221   C227    1.404   .     A
C222   H256    1.083   .     S
C222   C223    1.399   .     A
C223   C224    1.398   .     A
C223   H641    1.082   .     S
C224   H258    1.082   .     S
C224   C225    1.398   .     A
C225   H259    1.083   .     S
C225   C227    1.399   .     A
C226   N280    1.366   .     A
C226   C243    1.409   .     A
C226   H266    1.081   .     S
C227   H260    1.083   .     S
C228   C229    1.404   .     A
C228   C233    1.404   .     A
C229   H261    1.083   .     S
C229   C230    1.399   .     A
C230   C231    1.398   .     A
C230   H1030   1.082   1_554 S
C231   C232    1.398   .     A
C231   H263    1.082   .     S
C232   C233    1.399   .     A
C232   H264    1.083   .     S
C233   H265    1.083   .     S
C234   C240    1.404   .     A
C234   C235    1.404   .     A
C235   H267    1.083   .     S
C235   C236    1.399   .     A
C236   C238    1.398   .     A
C236   H1036   1.082   1_554 S
C237   N279    1.366   .     A
C237   H272    1.081   .     S
C237   C244    1.409   .     A
C238   C239    1.398   .     A
C238   H269    1.083   .     S
C239   C240    1.399   .     A
C239   H270    1.083   .     S
C240   H271    1.083   .     S
C241   H273    1.081   .     S
C241   N280    1.366   .     A
C242   F251    1.357   .     S
C243   F252    1.357   .     S
C244   F253    1.357   .     S
Cu245  O287    1.925   .     S
Cu245  Cu246   2.666   .     S
Cu245  O283    1.951   .     S
Cu245  O285    1.925   .     S
Cu245  O281    1.951   .     S
Cu245  N280    2.003   .     S
Cu246  O282    1.951   .     S
Cu246  N279    2.003   .     S
Cu246  O288    1.925   .     S
Cu246  O284    1.951   .     S
Cu246  O286    1.925   .     S
H257   C991    1.082   1_554 S
H262   C614    1.082   .     S
H268   C620    1.082   .     S
H275   C985    1.082   1_554 S
C289   C306    1.463   .     S
C289   O380    1.289   .     A
C289   O377    1.289   .     A
C290   C294    1.408   .     A
C290   C337    1.409   .     A
C290   F350    1.357   .     S
C291   O384    1.282   .     A
C291   O381    1.282   .     A
C291   C295    1.401   .     S
C292   C296    1.401   .     S
C292   O383    1.282   .     A
C292   O382    1.282   .     A
C293   C340    1.408   .     A
C293   C338    1.408   .     A
C294   C339    1.408   .     A
C294   C101    1.506   1_565 S
C295   C1064   1.186   1_554 S
C296   C679    1.186   .     S
C297   F343    1.360   .     S
C297   C302    1.395   .     A
C297   C308    1.397   .     A
C298   F344    1.360   .     S
C298   C309    1.397   .     A
C298   C303    1.395   .     A
C299   C309    1.397   .     A
C299   C304    1.395   .     A
C299   F345    1.360   .     S
C300   O379    1.289   .     A
C300   O378    1.289   .     A
C300   C307    1.463   .     S
C301   F346    1.360   .     S
C301   C308    1.397   .     A
C301   C305    1.395   .     A
C302   C306    1.416   .     A
C302   C310    1.480   .     S
C303   C307    1.416   .     A
C303   C317    1.480   .     S
C304   C324    1.480   .     S
C304   C307    1.416   .     A
C305   C330    1.480   .     S
C305   C306    1.416   .     A
C309   C212    1.454   1_655 S
C310   C316    1.404   .     A
C310   C312    1.404   .     A
C311   H351    1.081   .     S
C311   C338    1.409   .     A
C311   N375    1.366   .     A
C312   H370    1.083   .     S
C312   C313    1.399   .     A
C313   C314    1.398   .     A
C313   H755    1.082   .     S
C314   H372    1.082   .     S
C314   C315    1.398   .     A
C315   H373    1.083   .     S
C315   C316    1.399   .     A
C316   H374    1.083   .     S
C317   C318    1.404   .     A
C317   C323    1.404   .     A
C318   H352    1.083   .     S
C318   C319    1.399   .     A
C319   C320    1.398   .     A
C319   H737    1.082   .     S
C320   H354    1.082   .     S
C320   C321    1.398   .     A
C321   H355    1.083   .     S
C321   C323    1.399   .     A
C322   N376    1.366   .     A
C322   C339    1.409   .     A
C322   H362    1.081   .     S
C323   H356    1.083   .     S
C324   C325    1.404   .     A
C324   C329    1.404   .     A
C325   H357    1.083   .     S
C325   C326    1.399   .     A
C326   C327    1.398   .     A
C326   H1126   1.082   1_554 S
C327   C328    1.398   .     A
C327   H359    1.082   .     S
C328   C329    1.399   .     A
C328   H360    1.083   .     S
C329   H361    1.083   .     S
C330   C336    1.404   .     A
C330   C331    1.404   .     A
C331   H363    1.083   .     S
C331   C332    1.399   .     A
C332   C334    1.398   .     A
C332   H1132   1.082   1_554 S
C333   N375    1.366   .     A
C333   H368    1.081   .     S
C333   C340    1.409   .     A
C334   C335    1.398   .     A
C334   H365    1.083   .     S
C335   C336    1.399   .     A
C335   H366    1.083   .     S
C336   H367    1.083   .     S
C337   H369    1.081   .     S
C337   N376    1.366   .     A
C338   F347    1.357   .     S
C339   F348    1.357   .     S
C340   F349    1.357   .     S
Cu341  O383    1.925   .     S
Cu341  Cu342   2.666   .     S
Cu341  O379    1.951   .     S
Cu341  O381    1.925   .     S
Cu341  O377    1.951   .     S
Cu341  N376    2.003   .     S
Cu342  O378    1.951   .     S
Cu342  N375    2.003   .     S
Cu342  O384    1.925   .     S
Cu342  O380    1.951   .     S
Cu342  O382    1.925   .     S
H353   C1087   1.082   1_554 S
H358   C710    1.082   .     S
H364   C716    1.082   .     S
H371   C1081   1.082   1_554 S
C385   C402    1.463   .     S
C385   O476    1.289   .     A
C385   O473    1.289   .     A
C386   C390    1.408   .     A
C386   C433    1.409   .     A
C386   F446    1.357   .     S
C387   O480    1.282   .     A
C387   O477    1.282   .     A
C387   C391    1.401   .     S
C388   C392    1.401   .     S
C388   O479    1.282   .     A
C388   O478    1.282   .     A
C389   C436    1.408   .     A
C389   C434    1.408   .     A
C389   C582    1.506   1_545 S
C390   C435    1.408   .     A
C390   C581    1.506   .     S
C392   C775    1.186   .     S
C393   F439    1.360   .     S
C393   C398    1.395   .     A
C393   C404    1.397   .     A
C394   F440    1.360   .     S
C394   C405    1.397   .     A
C394   C399    1.395   .     A
C395   C405    1.397   .     A
C395   C400    1.395   .     A
C395   F441    1.360   .     S
C396   O475    1.289   .     A
C396   O474    1.289   .     A
C396   C403    1.463   .     S
C397   F442    1.360   .     S
C397   C404    1.397   .     A
C397   C401    1.395   .     A
C398   C402    1.416   .     A
C398   C406    1.480   .     S
C399   C403    1.416   .     A
C399   C413    1.480   .     S
C400   C420    1.480   .     S
C400   C403    1.416   .     A
C401   C426    1.480   .     S
C401   C402    1.416   .     A
C404   C501    1.454   1_455 S
C405   C500    1.454   .     S
C406   C412    1.404   .     A
C406   C408    1.404   .     A
C407   H447    1.081   .     S
C407   C434    1.409   .     A
C407   N471    1.366   .     A
C408   H466    1.083   .     S
C408   C409    1.399   .     A
C409   C410    1.398   .     A
C409   H851    1.082   .     S
C410   H468    1.082   .     S
C410   C411    1.398   .     A
C411   H469    1.083   .     S
C411   C412    1.399   .     A
C412   H470    1.083   .     S
C413   C414    1.404   .     A
C413   C419    1.404   .     A
C414   H448    1.083   .     S
C414   C415    1.399   .     A
C415   C416    1.398   .     A
C415   H833    1.082   .     S
C416   H450    1.082   .     S
C416   C417    1.398   .     A
C417   H451    1.083   .     S
C417   C419    1.399   .     A
C418   N472    1.366   .     A
C418   C435    1.409   .     A
C418   H458    1.081   .     S
C419   H452    1.083   .     S
C420   C421    1.404   .     A
C420   C425    1.404   .     A
C421   H453    1.083   .     S
C421   C422    1.399   .     A
C422   C423    1.398   .     A
C423   C424    1.398   .     A
C423   H455    1.082   .     S
C424   C425    1.399   .     A
C424   H456    1.083   .     S
C425   H457    1.083   .     S
C426   C432    1.404   .     A
C426   C427    1.404   .     A
C427   H459    1.083   .     S
C427   C428    1.399   .     A
C428   C430    1.398   .     A
C429   N471    1.366   .     A
C429   H464    1.081   .     S
C429   C436    1.409   .     A
C430   C431    1.398   .     A
C430   H461    1.083   .     S
C431   C432    1.399   .     A
C431   H462    1.083   .     S
C432   H463    1.083   .     S
C433   H465    1.081   .     S
C433   N472    1.366   .     A
C434   F443    1.357   .     S
C435   F444    1.357   .     S
C436   F445    1.357   .     S
Cu437  O479    1.925   .     S
Cu437  Cu438   2.666   .     S
Cu437  O475    1.951   .     S
Cu437  O477    1.925   .     S
Cu437  O473    1.951   .     S
Cu437  N472    2.003   .     S
Cu438  O474    1.951   .     S
Cu438  N471    2.003   .     S
Cu438  O480    1.925   .     S
Cu438  O476    1.951   .     S
Cu438  O478    1.925   .     S
H454   C806    1.082   .     S
H460   C812    1.082   .     S
C481   C498    1.463   .     S
C481   O572    1.289   .     A
C481   O569    1.289   .     A
C482   C486    1.408   .     A
C482   C529    1.409   .     A
C482   F542    1.357   .     S
C483   O576    1.282   .     A
C483   O573    1.282   .     A
C483   C487    1.401   .     S
C484   C488    1.401   .     S
C484   O575    1.282   .     A
C484   O574    1.282   .     A
C485   C532    1.408   .     A
C485   C530    1.408   .     A
C485   C678    1.506   1_545 S
C486   C531    1.408   .     A
C486   C677    1.506   .     S
C488   C871    1.186   .     S
C489   F535    1.360   .     S
C489   C494    1.395   .     A
C489   C500    1.397   .     A
C490   F536    1.360   .     S
C490   C501    1.397   .     A
C490   C495    1.395   .     A
C491   C501    1.397   .     A
C491   C496    1.395   .     A
C491   F537    1.360   .     S
C492   O571    1.289   .     A
C492   O570    1.289   .     A
C492   C499    1.463   .     S
C493   F538    1.360   .     S
C493   C500    1.397   .     A
C493   C497    1.395   .     A
C494   C498    1.416   .     A
C494   C502    1.480   .     S
C495   C499    1.416   .     A
C495   C509    1.480   .     S
C496   C516    1.480   .     S
C496   C499    1.416   .     A
C497   C522    1.480   .     S
C497   C498    1.416   .     A
C501   C404    1.454   1_655 S
C502   C508    1.404   .     A
C502   C504    1.404   .     A
C503   H543    1.081   .     S
C503   C530    1.409   .     A
C503   N567    1.366   .     A
C504   H562    1.083   .     S
C504   C505    1.399   .     A
C505   C506    1.398   .     A
C505   H947    1.082   .     S
C506   H564    1.082   .     S
C506   C507    1.398   .     A
C507   H565    1.083   .     S
C507   C508    1.399   .     A
C508   H566    1.083   .     S
C509   C510    1.404   .     A
C509   C515    1.404   .     A
C510   H544    1.083   .     S
C510   C511    1.399   .     A
C511   C512    1.398   .     A
C511   H929    1.082   .     S
C512   H546    1.082   .     S
C512   C513    1.398   .     A
C513   H547    1.083   .     S
C513   C515    1.399   .     A
C514   N568    1.366   .     A
C514   C531    1.409   .     A
C514   H554    1.081   .     S
C515   H548    1.083   .     S
C516   C517    1.404   .     A
C516   C521    1.404   .     A
C517   H549    1.083   .     S
C517   C518    1.399   .     A
C518   C519    1.398   .     A
C519   C520    1.398   .     A
C519   H551    1.082   .     S
C520   C521    1.399   .     A
C520   H552    1.083   .     S
C521   H553    1.083   .     S
C522   C528    1.404   .     A
C522   C523    1.404   .     A
C523   H555    1.083   .     S
C523   C524    1.399   .     A
C524   C526    1.398   .     A
C525   N567    1.366   .     A
C525   H560    1.081   .     S
C525   C532    1.409   .     A
C526   C527    1.398   .     A
C526   H557    1.083   .     S
C527   C528    1.399   .     A
C527   H558    1.083   .     S
C528   H559    1.083   .     S
C529   H561    1.081   .     S
C529   N568    1.366   .     A
C530   F539    1.357   .     S
C531   F540    1.357   .     S
C532   F541    1.357   .     S
Cu533  O575    1.925   .     S
Cu533  Cu534   2.666   .     S
Cu533  O571    1.951   .     S
Cu533  O573    1.925   .     S
Cu533  O569    1.951   .     S
Cu533  N568    2.003   .     S
Cu534  O570    1.951   .     S
Cu534  N567    2.003   .     S
Cu534  O576    1.925   .     S
Cu534  O572    1.951   .     S
Cu534  O574    1.925   .     S
H550   C902    1.082   .     S
H556   C908    1.082   .     S
C577   C594    1.463   .     S
C577   O668    1.289   .     A
C577   O665    1.289   .     A
C578   C582    1.408   .     A
C578   C625    1.409   .     A
C578   F638    1.357   .     S
C579   O672    1.282   .     A
C579   O669    1.282   .     A
C579   C583    1.401   .     S
C580   C584    1.401   .     S
C580   O671    1.282   .     A
C580   O670    1.282   .     A
C581   C628    1.408   .     A
C581   C626    1.408   .     A
C582   C627    1.408   .     A
C582   C389    1.506   1_565 S
C584   C967    1.186   .     S
C585   F631    1.360   .     S
C585   C590    1.395   .     A
C585   C596    1.397   .     A
C586   F632    1.360   .     S
C586   C597    1.397   .     A
C586   C591    1.395   .     A
C587   C597    1.397   .     A
C587   C592    1.395   .     A
C587   F633    1.360   .     S
C588   O667    1.289   .     A
C588   O666    1.289   .     A
C588   C595    1.463   .     S
C589   F634    1.360   .     S
C589   C596    1.397   .     A
C589   C593    1.395   .     A
C590   C594    1.416   .     A
C590   C598    1.480   .     S
C591   C595    1.416   .     A
C591   C605    1.480   .     S
C592   C612    1.480   .     S
C592   C595    1.416   .     A
C593   C618    1.480   .     S
C593   C594    1.416   .     A
C596   C693    1.454   1_455 S
C597   C692    1.454   .     S
C598   C604    1.404   .     A
C598   C600    1.404   .     A
C599   H639    1.081   .     S
C599   C626    1.409   .     A
C599   N663    1.366   .     A
C600   H658    1.083   .     S
C600   C601    1.399   .     A
C601   C602    1.398   .     A
C601   H1043   1.082   .     S
C602   H660    1.082   .     S
C602   C603    1.398   .     A
C603   H661    1.083   .     S
C603   C604    1.399   .     A
C604   H662    1.083   .     S
C605   C606    1.404   .     A
C605   C611    1.404   .     A
C606   H640    1.083   .     S
C606   C607    1.399   .     A
C607   C608    1.398   .     A
C607   H1025   1.082   .     S
C608   H642    1.082   .     S
C608   C609    1.398   .     A
C609   H643    1.083   .     S
C609   C611    1.399   .     A
C610   N664    1.366   .     A
C610   C627    1.409   .     A
C610   H650    1.081   .     S
C611   H644    1.083   .     S
C612   C613    1.404   .     A
C612   C617    1.404   .     A
C613   H645    1.083   .     S
C613   C614    1.399   .     A
C614   C615    1.398   .     A
C615   C616    1.398   .     A
C615   H647    1.082   .     S
C616   C617    1.399   .     A
C616   H648    1.083   .     S
C617   H649    1.083   .     S
C618   C624    1.404   .     A
C618   C619    1.404   .     A
C619   H651    1.083   .     S
C619   C620    1.399   .     A
C620   C622    1.398   .     A
C621   N663    1.366   .     A
C621   H656    1.081   .     S
C621   C628    1.409   .     A
C622   C623    1.398   .     A
C622   H653    1.083   .     S
C623   C624    1.399   .     A
C623   H654    1.083   .     S
C624   H655    1.083   .     S
C625   H657    1.081   .     S
C625   N664    1.366   .     A
C626   F635    1.357   .     S
C627   F636    1.357   .     S
C628   F637    1.357   .     S
Cu629  O671    1.925   .     S
Cu629  Cu630   2.666   .     S
Cu629  O667    1.951   .     S
Cu629  O669    1.925   .     S
Cu629  O665    1.951   .     S
Cu629  N664    2.003   .     S
Cu630  O666    1.951   .     S
Cu630  N663    2.003   .     S
Cu630  O672    1.925   .     S
Cu630  O668    1.951   .     S
Cu630  O670    1.925   .     S
H646   C998    1.082   .     S
H652   C1004   1.082   .     S
C673   C690    1.463   .     S
C673   O764    1.289   .     A
C673   O761    1.289   .     A
C674   C678    1.408   .     A
C674   C721    1.409   .     A
C674   F734    1.357   .     S
C675   O768    1.282   .     A
C675   O765    1.282   .     A
C675   C679    1.401   .     S
C676   C680    1.401   .     S
C676   O767    1.282   .     A
C676   O766    1.282   .     A
C677   C724    1.408   .     A
C677   C722    1.408   .     A
C678   C723    1.408   .     A
C678   C485    1.506   1_565 S
C680   C1063   1.186   .     S
C681   F727    1.360   .     S
C681   C686    1.395   .     A
C681   C692    1.397   .     A
C682   F728    1.360   .     S
C682   C693    1.397   .     A
C682   C687    1.395   .     A
C683   C693    1.397   .     A
C683   C688    1.395   .     A
C683   F729    1.360   .     S
C684   O763    1.289   .     A
C684   O762    1.289   .     A
C684   C691    1.463   .     S
C685   F730    1.360   .     S
C685   C692    1.397   .     A
C685   C689    1.395   .     A
C686   C690    1.416   .     A
C686   C694    1.480   .     S
C687   C691    1.416   .     A
C687   C701    1.480   .     S
C688   C708    1.480   .     S
C688   C691    1.416   .     A
C689   C714    1.480   .     S
C689   C690    1.416   .     A
C693   C596    1.454   1_655 S
C694   C700    1.404   .     A
C694   C696    1.404   .     A
C695   H735    1.081   .     S
C695   C722    1.409   .     A
C695   N759    1.366   .     A
C696   H754    1.083   .     S
C696   C697    1.399   .     A
C697   C698    1.398   .     A
C697   H1139   1.082   .     S
C698   H756    1.082   .     S
C698   C699    1.398   .     A
C699   H757    1.083   .     S
C699   C700    1.399   .     A
C700   H758    1.083   .     S
C701   C702    1.404   .     A
C701   C707    1.404   .     A
C702   H736    1.083   .     S
C702   C703    1.399   .     A
C703   C704    1.398   .     A
C703   H1121   1.082   .     S
C704   H738    1.082   .     S
C704   C705    1.398   .     A
C705   H739    1.083   .     S
C705   C707    1.399   .     A
C706   N760    1.366   .     A
C706   C723    1.409   .     A
C706   H746    1.081   .     S
C707   H740    1.083   .     S
C708   C709    1.404   .     A
C708   C713    1.404   .     A
C709   H741    1.083   .     S
C709   C710    1.399   .     A
C710   C711    1.398   .     A
C711   C712    1.398   .     A
C711   H743    1.082   .     S
C712   C713    1.399   .     A
C712   H744    1.083   .     S
C713   H745    1.083   .     S
C714   C720    1.404   .     A
C714   C715    1.404   .     A
C715   H747    1.083   .     S
C715   C716    1.399   .     A
C716   C718    1.398   .     A
C717   N759    1.366   .     A
C717   H752    1.081   .     S
C717   C724    1.409   .     A
C718   C719    1.398   .     A
C718   H749    1.083   .     S
C719   C720    1.399   .     A
C719   H750    1.083   .     S
C720   H751    1.083   .     S
C721   H753    1.081   .     S
C721   N760    1.366   .     A
C722   F731    1.357   .     S
C723   F732    1.357   .     S
C724   F733    1.357   .     S
Cu725  O767    1.925   .     S
Cu725  Cu726   2.666   .     S
Cu725  O763    1.951   .     S
Cu725  O765    1.925   .     S
Cu725  O761    1.951   .     S
Cu725  N760    2.003   .     S
Cu726  O762    1.951   .     S
Cu726  N759    2.003   .     S
Cu726  O768    1.925   .     S
Cu726  O764    1.951   .     S
Cu726  O766    1.925   .     S
H742   C1094   1.082   .     S
H748   C1100   1.082   .     S
C769   C786    1.463   .     S
C769   O860    1.289   .     A
C769   O857    1.289   .     A
C770   C774    1.408   .     A
C770   C817    1.409   .     A
C770   F830    1.357   .     S
C771   O864    1.282   .     A
C771   O861    1.282   .     A
C771   C775    1.401   .     S
C772   C776    1.401   .     S
C772   O863    1.282   .     A
C772   O862    1.282   .     A
C773   C820    1.408   .     A
C773   C818    1.408   .     A
C773   C966    1.506   1_545 S
C774   C819    1.408   .     A
C774   C965    1.506   .     S
C776   C7      1.186   1_556 S
C777   F823    1.360   .     S
C777   C782    1.395   .     A
C777   C788    1.397   .     A
C778   F824    1.360   .     S
C778   C789    1.397   .     A
C778   C783    1.395   .     A
C779   C789    1.397   .     A
C779   C784    1.395   .     A
C779   F825    1.360   .     S
C780   O859    1.289   .     A
C780   O858    1.289   .     A
C780   C787    1.463   .     S
C781   F826    1.360   .     S
C781   C788    1.397   .     A
C781   C785    1.395   .     A
C782   C786    1.416   .     A
C782   C790    1.480   .     S
C783   C787    1.416   .     A
C783   C797    1.480   .     S
C784   C804    1.480   .     S
C784   C787    1.416   .     A
C785   C810    1.480   .     S
C785   C786    1.416   .     A
C788   C885    1.454   1_455 S
C789   C884    1.454   .     S
C790   C796    1.404   .     A
C790   C792    1.404   .     A
C791   H831    1.081   .     S
C791   C818    1.409   .     A
C791   N855    1.366   .     A
C792   H850    1.083   .     S
C792   C793    1.399   .     A
C793   C794    1.398   .     A
C793   H83     1.082   1_556 S
C794   H852    1.082   .     S
C794   C795    1.398   .     A
C795   H853    1.083   .     S
C795   C796    1.399   .     A
C796   H854    1.083   .     S
C797   C798    1.404   .     A
C797   C803    1.404   .     A
C798   H832    1.083   .     S
C798   C799    1.399   .     A
C799   C800    1.398   .     A
C799   H65     1.082   1_556 S
C800   H834    1.082   .     S
C800   C801    1.398   .     A
C801   H835    1.083   .     S
C801   C803    1.399   .     A
C802   N856    1.366   .     A
C802   C819    1.409   .     A
C802   H842    1.081   .     S
C803   H836    1.083   .     S
C804   C805    1.404   .     A
C804   C809    1.404   .     A
C805   H837    1.083   .     S
C805   C806    1.399   .     A
C806   C807    1.398   .     A
C807   C808    1.398   .     A
C807   H839    1.082   .     S
C808   C809    1.399   .     A
C808   H840    1.083   .     S
C809   H841    1.083   .     S
C810   C816    1.404   .     A
C810   C811    1.404   .     A
C811   H843    1.083   .     S
C811   C812    1.399   .     A
C812   C814    1.398   .     A
C813   N855    1.366   .     A
C813   H848    1.081   .     S
C813   C820    1.409   .     A
C814   C815    1.398   .     A
C814   H845    1.083   .     S
C815   C816    1.399   .     A
C815   H846    1.083   .     S
C816   H847    1.083   .     S
C817   H849    1.081   .     S
C817   N856    1.366   .     A
C818   F827    1.357   .     S
C819   F828    1.357   .     S
C820   F829    1.357   .     S
Cu821  O863    1.925   .     S
Cu821  Cu822   2.666   .     S
Cu821  O859    1.951   .     S
Cu821  O861    1.925   .     S
Cu821  O857    1.951   .     S
Cu821  N856    2.003   .     S
Cu822  O858    1.951   .     S
Cu822  N855    2.003   .     S
Cu822  O864    1.925   .     S
Cu822  O860    1.951   .     S
Cu822  O862    1.925   .     S
H838   C38     1.082   1_556 S
H844   C44     1.082   1_556 S
C865   C882    1.463   .     S
C865   O956    1.289   .     A
C865   O953    1.289   .     A
C866   C870    1.408   .     A
C866   C913    1.409   .     A
C866   F926    1.357   .     S
C867   O960    1.282   .     A
C867   O957    1.282   .     A
C867   C871    1.401   .     S
C868   C872    1.401   .     S
C868   O959    1.282   .     A
C868   O958    1.282   .     A
C869   C916    1.408   .     A
C869   C914    1.408   .     A
C869   C1062   1.506   1_545 S
C870   C915    1.408   .     A
C870   C1061   1.506   .     S
C872   C103    1.186   1_556 S
C873   F919    1.360   .     S
C873   C878    1.395   .     A
C873   C884    1.397   .     A
C874   F920    1.360   .     S
C874   C885    1.397   .     A
C874   C879    1.395   .     A
C875   C885    1.397   .     A
C875   C880    1.395   .     A
C875   F921    1.360   .     S
C876   O955    1.289   .     A
C876   O954    1.289   .     A
C876   C883    1.463   .     S
C877   F922    1.360   .     S
C877   C884    1.397   .     A
C877   C881    1.395   .     A
C878   C882    1.416   .     A
C878   C886    1.480   .     S
C879   C883    1.416   .     A
C879   C893    1.480   .     S
C880   C900    1.480   .     S
C880   C883    1.416   .     A
C881   C906    1.480   .     S
C881   C882    1.416   .     A
C885   C788    1.454   1_655 S
C886   C892    1.404   .     A
C886   C888    1.404   .     A
C887   H927    1.081   .     S
C887   C914    1.409   .     A
C887   N951    1.366   .     A
C888   H946    1.083   .     S
C888   C889    1.399   .     A
C889   C890    1.398   .     A
C889   H179    1.082   1_556 S
C890   H948    1.082   .     S
C890   C891    1.398   .     A
C891   H949    1.083   .     S
C891   C892    1.399   .     A
C892   H950    1.083   .     S
C893   C894    1.404   .     A
C893   C899    1.404   .     A
C894   H928    1.083   .     S
C894   C895    1.399   .     A
C895   C896    1.398   .     A
C895   H161    1.082   1_556 S
C896   H930    1.082   .     S
C896   C897    1.398   .     A
C897   H931    1.083   .     S
C897   C899    1.399   .     A
C898   N952    1.366   .     A
C898   C915    1.409   .     A
C898   H938    1.081   .     S
C899   H932    1.083   .     S
C900   C901    1.404   .     A
C900   C905    1.404   .     A
C901   H933    1.083   .     S
C901   C902    1.399   .     A
C902   C903    1.398   .     A
C903   C904    1.398   .     A
C903   H935    1.082   .     S
C904   C905    1.399   .     A
C904   H936    1.083   .     S
C905   H937    1.083   .     S
C906   C912    1.404   .     A
C906   C907    1.404   .     A
C907   H939    1.083   .     S
C907   C908    1.399   .     A
C908   C910    1.398   .     A
C909   N951    1.366   .     A
C909   H944    1.081   .     S
C909   C916    1.409   .     A
C910   C911    1.398   .     A
C910   H941    1.083   .     S
C911   C912    1.399   .     A
C911   H942    1.083   .     S
C912   H943    1.083   .     S
C913   H945    1.081   .     S
C913   N952    1.366   .     A
C914   F923    1.357   .     S
C915   F924    1.357   .     S
C916   F925    1.357   .     S
Cu917  O959    1.925   .     S
Cu917  Cu918   2.666   .     S
Cu917  O955    1.951   .     S
Cu917  O957    1.925   .     S
Cu917  O953    1.951   .     S
Cu917  N952    2.003   .     S
Cu918  O954    1.951   .     S
Cu918  N951    2.003   .     S
Cu918  O960    1.925   .     S
Cu918  O956    1.951   .     S
Cu918  O958    1.925   .     S
H934   C134    1.082   1_556 S
H940   C140    1.082   1_556 S
C961   C978    1.463   .     S
C961   O1052   1.289   .     A
C961   O1049   1.289   .     A
C962   C966    1.408   .     A
C962   C1009   1.409   .     A
C962   F1022   1.357   .     S
C963   O1056   1.282   .     A
C963   O1053   1.282   .     A
C963   C967    1.401   .     S
C964   C968    1.401   .     S
C964   O1055   1.282   .     A
C964   O1054   1.282   .     A
C965   C1012   1.408   .     A
C965   C1010   1.408   .     A
C966   C1011   1.408   .     A
C966   C773    1.506   1_565 S
C968   C199    1.186   1_556 S
C969   F1015   1.360   .     S
C969   C974    1.395   .     A
C969   C980    1.397   .     A
C970   F1016   1.360   .     S
C970   C981    1.397   .     A
C970   C975    1.395   .     A
C971   C981    1.397   .     A
C971   C976    1.395   .     A
C971   F1017   1.360   .     S
C972   O1051   1.289   .     A
C972   O1050   1.289   .     A
C972   C979    1.463   .     S
C973   F1018   1.360   .     S
C973   C980    1.397   .     A
C973   C977    1.395   .     A
C974   C978    1.416   .     A
C974   C982    1.480   .     S
C975   C979    1.416   .     A
C975   C989    1.480   .     S
C976   C996    1.480   .     S
C976   C979    1.416   .     A
C977   C1002   1.480   .     S
C977   C978    1.416   .     A
C980   C1077   1.454   1_455 S
C981   C1076   1.454   .     S
C982   C988    1.404   .     A
C982   C984    1.404   .     A
C983   H1023   1.081   .     S
C983   C1010   1.409   .     A
C983   N1047   1.366   .     A
C984   H1042   1.083   .     S
C984   C985    1.399   .     A
C985   C986    1.398   .     A
C985   H275    1.082   1_556 S
C986   H1044   1.082   .     S
C986   C987    1.398   .     A
C987   H1045   1.083   .     S
C987   C988    1.399   .     A
C988   H1046   1.083   .     S
C989   C990    1.404   .     A
C989   C995    1.404   .     A
C990   H1024   1.083   .     S
C990   C991    1.399   .     A
C991   C992    1.398   .     A
C991   H257    1.082   1_556 S
C992   H1026   1.082   .     S
C992   C993    1.398   .     A
C993   H1027   1.083   .     S
C993   C995    1.399   .     A
C994   N1048   1.366   .     A
C994   C1011   1.409   .     A
C994   H1034   1.081   .     S
C995   H1028   1.083   .     S
C996   C997    1.404   .     A
C996   C1001   1.404   .     A
C997   H1029   1.083   .     S
C997   C998    1.399   .     A
C998   C999    1.398   .     A
C999   C1000   1.398   .     A
C999   H1031   1.082   .     S
C1000  C1001   1.399   .     A
C1000  H1032   1.083   .     S
C1001  H1033   1.083   .     S
C1002  C1008   1.404   .     A
C1002  C1003   1.404   .     A
C1003  H1035   1.083   .     S
C1003  C1004   1.399   .     A
C1004  C1006   1.398   .     A
C1005  N1047   1.366   .     A
C1005  H1040   1.081   .     S
C1005  C1012   1.409   .     A
C1006  C1007   1.398   .     A
C1006  H1037   1.083   .     S
C1007  C1008   1.399   .     A
C1007  H1038   1.083   .     S
C1008  H1039   1.083   .     S
C1009  H1041   1.081   .     S
C1009  N1048   1.366   .     A
C1010  F1019   1.357   .     S
C1011  F1020   1.357   .     S
C1012  F1021   1.357   .     S
Cu1013 O1055   1.925   .     S
Cu1013 Cu1014  2.666   .     S
Cu1013 O1051   1.951   .     S
Cu1013 O1053   1.925   .     S
Cu1013 O1049   1.951   .     S
Cu1013 N1048   2.003   .     S
Cu1014 O1050   1.951   .     S
Cu1014 N1047   2.003   .     S
Cu1014 O1056   1.925   .     S
Cu1014 O1052   1.951   .     S
Cu1014 O1054   1.925   .     S
H1030  C230    1.082   1_556 S
H1036  C236    1.082   1_556 S
C1057  C1074   1.463   .     S
C1057  O1148   1.289   .     A
C1057  O1145   1.289   .     A
C1058  C1062   1.408   .     A
C1058  C1105   1.409   .     A
C1058  F1118   1.357   .     S
C1059  O1152   1.282   .     A
C1059  O1149   1.282   .     A
C1059  C1063   1.401   .     S
C1060  C1064   1.401   .     S
C1060  O1151   1.282   .     A
C1060  O1150   1.282   .     A
C1061  C1108   1.408   .     A
C1061  C1106   1.408   .     A
C1062  C1107   1.408   .     A
C1062  C869    1.506   1_565 S
C1064  C295    1.186   1_556 S
C1065  F1111   1.360   .     S
C1065  C1070   1.395   .     A
C1065  C1076   1.397   .     A
C1066  F1112   1.360   .     S
C1066  C1077   1.397   .     A
C1066  C1071   1.395   .     A
C1067  C1077   1.397   .     A
C1067  C1072   1.395   .     A
C1067  F1113   1.360   .     S
C1068  O1147   1.289   .     A
C1068  O1146   1.289   .     A
C1068  C1075   1.463   .     S
C1069  F1114   1.360   .     S
C1069  C1076   1.397   .     A
C1069  C1073   1.395   .     A
C1070  C1074   1.416   .     A
C1070  C1078   1.480   .     S
C1071  C1075   1.416   .     A
C1071  C1085   1.480   .     S
C1072  C1092   1.480   .     S
C1072  C1075   1.416   .     A
C1073  C1098   1.480   .     S
C1073  C1074   1.416   .     A
C1077  C980    1.454   1_655 S
C1078  C1084   1.404   .     A
C1078  C1080   1.404   .     A
C1079  H1119   1.081   .     S
C1079  C1106   1.409   .     A
C1079  N1143   1.366   .     A
C1080  H1138   1.083   .     S
C1080  C1081   1.399   .     A
C1081  C1082   1.398   .     A
C1081  H371    1.082   1_556 S
C1082  H1140   1.082   .     S
C1082  C1083   1.398   .     A
C1083  H1141   1.083   .     S
C1083  C1084   1.399   .     A
C1084  H1142   1.083   .     S
C1085  C1086   1.404   .     A
C1085  C1091   1.404   .     A
C1086  H1120   1.083   .     S
C1086  C1087   1.399   .     A
C1087  C1088   1.398   .     A
C1087  H353    1.082   1_556 S
C1088  H1122   1.082   .     S
C1088  C1089   1.398   .     A
C1089  H1123   1.083   .     S
C1089  C1091   1.399   .     A
C1090  N1144   1.366   .     A
C1090  C1107   1.409   .     A
C1090  H1130   1.081   .     S
C1091  H1124   1.083   .     S
C1092  C1093   1.404   .     A
C1092  C1097   1.404   .     A
C1093  H1125   1.083   .     S
C1093  C1094   1.399   .     A
C1094  C1095   1.398   .     A
C1095  C1096   1.398   .     A
C1095  H1127   1.082   .     S
C1096  C1097   1.399   .     A
C1096  H1128   1.083   .     S
C1097  H1129   1.083   .     S
C1098  C1104   1.404   .     A
C1098  C1099   1.404   .     A
C1099  H1131   1.083   .     S
C1099  C1100   1.399   .     A
C1100  C1102   1.398   .     A
C1101  N1143   1.366   .     A
C1101  H1136   1.081   .     S
C1101  C1108   1.409   .     A
C1102  C1103   1.398   .     A
C1102  H1133   1.083   .     S
C1103  C1104   1.399   .     A
C1103  H1134   1.083   .     S
C1104  H1135   1.083   .     S
C1105  H1137   1.081   .     S
C1105  N1144   1.366   .     A
C1106  F1115   1.357   .     S
C1107  F1116   1.357   .     S
C1108  F1117   1.357   .     S
Cu1109 O1151   1.925   .     S
Cu1109 Cu1110  2.666   .     S
Cu1109 O1147   1.951   .     S
Cu1109 O1149   1.925   .     S
Cu1109 O1145   1.951   .     S
Cu1109 N1144   2.003   .     S
Cu1110 O1146   1.951   .     S
Cu1110 N1143   2.003   .     S
Cu1110 O1152   1.925   .     S
Cu1110 O1148   1.951   .     S
Cu1110 O1150   1.925   .     S
H1126  C326    1.082   1_556 S
H1132  C332    1.082   1_556 S
