data_str_m3_o10_o17_pcu_sym.185
_audit_creation_date              2020-01-03
_audit_creation_method            'Materials Studio'
_symmetry_space_group_name_H-M    'P1'
_symmetry_Int_Tables_number       1
_symmetry_cell_setting            triclinic
loop_
_symmetry_equiv_pos_as_xyz
  x,y,z
_cell_length_a                    23.7870
_cell_length_b                    25.7626
_cell_length_c                    29.6364
_cell_angle_alpha                 94.7994
_cell_angle_beta                  84.9616
_cell_angle_gamma                 93.4609
loop_
_atom_site_label
_atom_site_type_symbol
_atom_site_fract_x
_atom_site_fract_y
_atom_site_fract_z
_atom_site_U_iso_or_equiv
_atom_site_adp_type
_atom_site_occupancy
C1     C     0.18162   0.26466   0.24891   0.00000  Uiso   1.00
C2     C     0.15171   0.06867   0.25101   0.00000  Uiso   1.00
C3     C     0.20107   0.26032   0.48326   0.00000  Uiso   1.00
C4     C     0.11551   0.07984   0.01829   0.00000  Uiso   1.00
C5     C     0.18941   0.31915   0.24804   0.00000  Uiso   1.00
C6     C     0.14391   0.01417   0.25174   0.00000  Uiso   1.00
C7     C     0.16732   0.16981   0.33629   0.00000  Uiso   1.00
C8     C     0.16608   0.16409   0.16371   0.00000  Uiso   1.00
C9     C     0.13842   0.12277   0.09171   0.00000  Uiso   1.00
C10    C     0.18336   0.21601   0.40961   0.00000  Uiso   1.00
C11    C     0.16539   0.16401   0.11601   0.00000  Uiso   1.00
C12    C     0.16732   0.17055   0.38412   0.00000  Uiso   1.00
C13    C     0.18973   0.20703   0.09564   0.00000  Uiso   1.00
C14    C     0.14859   0.12541   0.40394   0.00000  Uiso   1.00
C15    C     0.18521   0.21118   0.04991   0.00000  Uiso   1.00
C16    C     0.14329   0.12503   0.45077   0.00000  Uiso   1.00
C17    C     0.15958   0.16890   0.02416   0.00000  Uiso   1.00
C18    C     0.16041   0.17036   0.47737   0.00000  Uiso   1.00
C19    C     0.13635   0.12386   0.04497   0.00000  Uiso   1.00
C20    C     0.18117   0.21617   0.45677   0.00000  Uiso   1.00
C21    C     0.20573   0.25694   0.02991   0.00000  Uiso   1.00
C22    C     0.12340   0.07934   0.47092   0.00000  Uiso   1.00
H23    H     0.12129   0.08950   0.10938   0.00000  Uiso   1.00
H24    H     0.19835   0.25041   0.39247   0.00000  Uiso   1.00
H25    H     0.21044   0.23779   0.11631   0.00000  Uiso   1.00
H26    H     0.13742   0.09102   0.38226   0.00000  Uiso   1.00
H27    H     0.23255   0.00243   0.24431   0.00000  Uiso   1.00
H28    H     0.10077   0.33088   0.25544   0.00000  Uiso   1.00
N29    N     0.31678   0.15265   0.23783   0.00000  Uiso   1.00
N30    N     0.01656   0.18068   0.26217   0.00000  Uiso   1.00
O31    O     0.12975   0.24619   0.25298   0.00000  Uiso   1.00
O32    O     0.20358   0.08714   0.24701   0.00000  Uiso   1.00
O33    O     0.22613   0.23721   0.24518   0.00000  Uiso   1.00
O34    O     0.10720   0.09613   0.25481   0.00000  Uiso   1.00
O35    O     0.11847   0.17117   0.31997   0.00000  Uiso   1.00
O36    O     0.21486   0.16216   0.18002   0.00000  Uiso   1.00
O37    O     0.21485   0.16219   0.31217   0.00000  Uiso   1.00
O38    O     0.11848   0.17115   0.18782   0.00000  Uiso   1.00
Zn39   Zn    0.10231   0.17266   0.25521   0.00000  Uiso   1.00
Zn40   Zn    0.23102   0.16067   0.24479   0.00000  Uiso   1.00
O41    O     0.23610   0.29544   0.05476   0.00000  Uiso   1.00
C42    C     0.19930   0.33105   0.07870   0.00000  Uiso   1.00
H43    H     0.15686   0.31290   0.08865   0.00000  Uiso   1.00
H44    H     0.19558   0.02998   0.05715   0.00000  Uiso   1.00
C45    C     0.22411   0.02135   0.12200   0.00000  Uiso   1.00
H46    H     0.26206   0.04701   0.11344   0.00000  Uiso   1.00
H47    H     0.19258   0.04528   0.14271   0.00000  Uiso   1.00
H48    H     0.23553   0.32370   0.14283   0.00000  Uiso   1.00
O49    O     0.12469   0.03204   0.44507   0.00000  Uiso   1.00
C50    C     0.07178   0.01884   0.42853   0.00000  Uiso   1.00
H51    H     0.05283   0.05275   0.41579   0.00000  Uiso   1.00
H52    H     0.04363   0.00218   0.45581   0.00000  Uiso   1.00
C53    C     0.07847   0.31063   0.38921   0.00000  Uiso   1.00
H54    H     0.09094   0.27388   0.40156   0.00000  Uiso   1.00
H55    H     0.03765   0.30301   0.37389   0.00000  Uiso   1.00
H56    H     0.11099   0.32393   0.36281   0.00000  Uiso   1.00
O57    O     0.20602   0.30829   0.46518   0.00000  Uiso   1.00
C58    C     0.26284   0.32656   0.45886   0.00000  Uiso   1.00
H59    H     0.28956   0.31366   0.48421   0.00000  Uiso   1.00
H60    H     0.28059   0.31212   0.42450   0.00000  Uiso   1.00
C61    C     0.26493   0.05273   0.46215   0.00000  Uiso   1.00
H62    H     0.24705   0.06646   0.43218   0.00000  Uiso   1.00
H63    H     0.24035   0.06785   0.49349   0.00000  Uiso   1.00
H64    H     0.30873   0.06929   0.46370   0.00000  Uiso   1.00
O65    O     0.10107   0.03300   0.03697   0.00000  Uiso   1.00
C66    C     0.04527   0.03235   0.05734   0.00000  Uiso   1.00
H67    H     0.01483   0.02886   0.03093   0.00000  Uiso   1.00
H68    H     0.03634   0.06799   0.08012   0.00000  Uiso   1.00
C69    C     0.03655   0.31837   0.08524   0.00000  Uiso   1.00
H70    H     0.06204   0.32420   0.11506   0.00000  Uiso   1.00
H71    H     0.32518   0.31237   0.09786   0.00000  Uiso   1.00
H72    H     0.04943   0.28270   0.06410   0.00000  Uiso   1.00
Br73   Br    0.01353   0.10153   0.19511   0.00000  Uiso   1.00
Br74   Br    0.31941   0.23170   0.30465   0.00000  Uiso   1.00
C75    C     0.51495   0.26466   0.24891   0.00000  Uiso   1.00
C76    C     0.48505   0.06867   0.25101   0.00000  Uiso   1.00
C77    C     0.53440   0.26032   0.48326   0.00000  Uiso   1.00
C78    C     0.44884   0.07984   0.01829   0.00000  Uiso   1.00
C79    C     0.52275   0.31915   0.24804   0.00000  Uiso   1.00
C80    C     0.47724   0.01417   0.25174   0.00000  Uiso   1.00
C81    C     0.50065   0.16981   0.33629   0.00000  Uiso   1.00
C82    C     0.49942   0.16409   0.16371   0.00000  Uiso   1.00
C83    C     0.47176   0.12277   0.09171   0.00000  Uiso   1.00
C84    C     0.51670   0.21601   0.40961   0.00000  Uiso   1.00
C85    C     0.49872   0.16401   0.11601   0.00000  Uiso   1.00
C86    C     0.50065   0.17055   0.38412   0.00000  Uiso   1.00
C87    C     0.52306   0.20703   0.09564   0.00000  Uiso   1.00
C88    C     0.48192   0.12541   0.40394   0.00000  Uiso   1.00
C89    C     0.51855   0.21118   0.04991   0.00000  Uiso   1.00
C90    C     0.47663   0.12503   0.45077   0.00000  Uiso   1.00
C91    C     0.49291   0.16890   0.02416   0.00000  Uiso   1.00
C92    C     0.49375   0.17036   0.47737   0.00000  Uiso   1.00
C93    C     0.46968   0.12386   0.04497   0.00000  Uiso   1.00
C94    C     0.51450   0.21617   0.45677   0.00000  Uiso   1.00
C95    C     0.53906   0.25694   0.02991   0.00000  Uiso   1.00
C96    C     0.45673   0.07934   0.47092   0.00000  Uiso   1.00
H97    H     0.45462   0.08950   0.10938   0.00000  Uiso   1.00
H98    H     0.53169   0.25041   0.39247   0.00000  Uiso   1.00
H99    H     0.54377   0.23779   0.11631   0.00000  Uiso   1.00
H100   H     0.47075   0.09102   0.38226   0.00000  Uiso   1.00
H101   H     0.56588   0.00243   0.24431   0.00000  Uiso   1.00
H102   H     0.43410   0.33088   0.25544   0.00000  Uiso   1.00
N103   N     0.65011   0.15265   0.23783   0.00000  Uiso   1.00
N104   N     0.34989   0.18068   0.26217   0.00000  Uiso   1.00
O105   O     0.46308   0.24619   0.25298   0.00000  Uiso   1.00
O106   O     0.53692   0.08714   0.24701   0.00000  Uiso   1.00
O107   O     0.55946   0.23721   0.24518   0.00000  Uiso   1.00
O108   O     0.44054   0.09613   0.25481   0.00000  Uiso   1.00
O109   O     0.45181   0.17117   0.31997   0.00000  Uiso   1.00
O110   O     0.54819   0.16216   0.18002   0.00000  Uiso   1.00
O111   O     0.54819   0.16219   0.31217   0.00000  Uiso   1.00
O112   O     0.45181   0.17115   0.18782   0.00000  Uiso   1.00
Zn113  Zn    0.43565   0.17266   0.25521   0.00000  Uiso   1.00
Zn114  Zn    0.56435   0.16067   0.24479   0.00000  Uiso   1.00
O115   O     0.56943   0.29544   0.05476   0.00000  Uiso   1.00
C116   C     0.53263   0.33105   0.07870   0.00000  Uiso   1.00
H117   H     0.49019   0.31290   0.08865   0.00000  Uiso   1.00
H118   H     0.52891   0.02998   0.05715   0.00000  Uiso   1.00
C119   C     0.55744   0.02135   0.12200   0.00000  Uiso   1.00
H120   H     0.59539   0.04701   0.11344   0.00000  Uiso   1.00
H121   H     0.52591   0.04528   0.14271   0.00000  Uiso   1.00
H122   H     0.56886   0.32370   0.14283   0.00000  Uiso   1.00
O123   O     0.45803   0.03204   0.44507   0.00000  Uiso   1.00
C124   C     0.40511   0.01884   0.42853   0.00000  Uiso   1.00
H125   H     0.38617   0.05275   0.41579   0.00000  Uiso   1.00
H126   H     0.37696   0.00218   0.45581   0.00000  Uiso   1.00
C127   C     0.41181   0.31063   0.38921   0.00000  Uiso   1.00
H128   H     0.42427   0.27388   0.40156   0.00000  Uiso   1.00
H129   H     0.37098   0.30301   0.37389   0.00000  Uiso   1.00
H130   H     0.44432   0.32393   0.36281   0.00000  Uiso   1.00
O131   O     0.53935   0.30829   0.46518   0.00000  Uiso   1.00
C132   C     0.59618   0.32656   0.45886   0.00000  Uiso   1.00
H133   H     0.62289   0.31366   0.48421   0.00000  Uiso   1.00
H134   H     0.61392   0.31212   0.42450   0.00000  Uiso   1.00
C135   C     0.59826   0.05273   0.46215   0.00000  Uiso   1.00
H136   H     0.58038   0.06646   0.43218   0.00000  Uiso   1.00
H137   H     0.57368   0.06785   0.49349   0.00000  Uiso   1.00
H138   H     0.64206   0.06929   0.46370   0.00000  Uiso   1.00
O139   O     0.43440   0.03300   0.03697   0.00000  Uiso   1.00
C140   C     0.37860   0.03235   0.05734   0.00000  Uiso   1.00
H141   H     0.34816   0.02886   0.03093   0.00000  Uiso   1.00
H142   H     0.36967   0.06799   0.08012   0.00000  Uiso   1.00
C143   C     0.36988   0.31837   0.08524   0.00000  Uiso   1.00
H144   H     0.39538   0.32420   0.11506   0.00000  Uiso   1.00
H145   H     0.65851   0.31237   0.09786   0.00000  Uiso   1.00
H146   H     0.38276   0.28270   0.06410   0.00000  Uiso   1.00
Br147  Br    0.34687   0.10153   0.19511   0.00000  Uiso   1.00
Br148  Br    0.65275   0.23170   0.30465   0.00000  Uiso   1.00
C149   C     0.84828   0.26466   0.24891   0.00000  Uiso   1.00
C150   C     0.81838   0.06867   0.25101   0.00000  Uiso   1.00
C151   C     0.86774   0.26032   0.48326   0.00000  Uiso   1.00
C152   C     0.78218   0.07984   0.01829   0.00000  Uiso   1.00
C153   C     0.85608   0.31915   0.24804   0.00000  Uiso   1.00
C154   C     0.81057   0.01417   0.25174   0.00000  Uiso   1.00
C155   C     0.83398   0.16981   0.33629   0.00000  Uiso   1.00
C156   C     0.83275   0.16409   0.16371   0.00000  Uiso   1.00
C157   C     0.80509   0.12277   0.09171   0.00000  Uiso   1.00
C158   C     0.85003   0.21601   0.40961   0.00000  Uiso   1.00
C159   C     0.83206   0.16401   0.11601   0.00000  Uiso   1.00
C160   C     0.83398   0.17055   0.38412   0.00000  Uiso   1.00
C161   C     0.85640   0.20703   0.09564   0.00000  Uiso   1.00
C162   C     0.81526   0.12541   0.40394   0.00000  Uiso   1.00
C163   C     0.85188   0.21118   0.04991   0.00000  Uiso   1.00
C164   C     0.80996   0.12503   0.45077   0.00000  Uiso   1.00
C165   C     0.82624   0.16890   0.02416   0.00000  Uiso   1.00
C166   C     0.82708   0.17036   0.47737   0.00000  Uiso   1.00
C167   C     0.80302   0.12386   0.04497   0.00000  Uiso   1.00
C168   C     0.84784   0.21617   0.45677   0.00000  Uiso   1.00
C169   C     0.87240   0.25694   0.02991   0.00000  Uiso   1.00
C170   C     0.79007   0.07934   0.47092   0.00000  Uiso   1.00
H171   H     0.78795   0.08950   0.10938   0.00000  Uiso   1.00
H172   H     0.86502   0.25041   0.39247   0.00000  Uiso   1.00
H173   H     0.87710   0.23779   0.11631   0.00000  Uiso   1.00
H174   H     0.80409   0.09102   0.38226   0.00000  Uiso   1.00
H175   H     0.89922   0.00243   0.24431   0.00000  Uiso   1.00
H176   H     0.76744   0.33088   0.25544   0.00000  Uiso   1.00
N177   N     0.98344   0.15265   0.23783   0.00000  Uiso   1.00
N178   N     0.68322   0.18068   0.26217   0.00000  Uiso   1.00
O179   O     0.79642   0.24619   0.25298   0.00000  Uiso   1.00
O180   O     0.87025   0.08714   0.24701   0.00000  Uiso   1.00
O181   O     0.89280   0.23721   0.24518   0.00000  Uiso   1.00
O182   O     0.77387   0.09613   0.25481   0.00000  Uiso   1.00
O183   O     0.78514   0.17117   0.31997   0.00000  Uiso   1.00
O184   O     0.88153   0.16216   0.18002   0.00000  Uiso   1.00
O185   O     0.88152   0.16219   0.31217   0.00000  Uiso   1.00
O186   O     0.78515   0.17115   0.18782   0.00000  Uiso   1.00
Zn187  Zn    0.76898   0.17266   0.25521   0.00000  Uiso   1.00
Zn188  Zn    0.89769   0.16067   0.24479   0.00000  Uiso   1.00
O189   O     0.90276   0.29544   0.05476   0.00000  Uiso   1.00
C190   C     0.86597   0.33105   0.07870   0.00000  Uiso   1.00
H191   H     0.82352   0.31290   0.08865   0.00000  Uiso   1.00
H192   H     0.86225   0.02998   0.05715   0.00000  Uiso   1.00
C193   C     0.89077   0.02135   0.12200   0.00000  Uiso   1.00
H194   H     0.92872   0.04701   0.11344   0.00000  Uiso   1.00
H195   H     0.85924   0.04528   0.14271   0.00000  Uiso   1.00
H196   H     0.90220   0.32370   0.14283   0.00000  Uiso   1.00
O197   O     0.79136   0.03204   0.44507   0.00000  Uiso   1.00
C198   C     0.73845   0.01884   0.42853   0.00000  Uiso   1.00
H199   H     0.71950   0.05275   0.41579   0.00000  Uiso   1.00
H200   H     0.71030   0.00218   0.45581   0.00000  Uiso   1.00
C201   C     0.74514   0.31063   0.38921   0.00000  Uiso   1.00
H202   H     0.75761   0.27388   0.40156   0.00000  Uiso   1.00
H203   H     0.70431   0.30301   0.37389   0.00000  Uiso   1.00
H204   H     0.77765   0.32393   0.36281   0.00000  Uiso   1.00
O205   O     0.87269   0.30829   0.46518   0.00000  Uiso   1.00
C206   C     0.92951   0.32656   0.45886   0.00000  Uiso   1.00
H207   H     0.95622   0.31366   0.48421   0.00000  Uiso   1.00
H208   H     0.94725   0.31212   0.42450   0.00000  Uiso   1.00
C209   C     0.93159   0.05273   0.46215   0.00000  Uiso   1.00
H210   H     0.91371   0.06646   0.43218   0.00000  Uiso   1.00
H211   H     0.90701   0.06785   0.49349   0.00000  Uiso   1.00
H212   H     0.97540   0.06929   0.46370   0.00000  Uiso   1.00
O213   O     0.76773   0.03300   0.03697   0.00000  Uiso   1.00
C214   C     0.71193   0.03235   0.05734   0.00000  Uiso   1.00
H215   H     0.68149   0.02886   0.03093   0.00000  Uiso   1.00
H216   H     0.70300   0.06799   0.08012   0.00000  Uiso   1.00
C217   C     0.70321   0.31837   0.08524   0.00000  Uiso   1.00
H218   H     0.72871   0.32420   0.11506   0.00000  Uiso   1.00
H219   H     0.99185   0.31237   0.09786   0.00000  Uiso   1.00
H220   H     0.71609   0.28270   0.06410   0.00000  Uiso   1.00
Br221  Br    0.68020   0.10153   0.19511   0.00000  Uiso   1.00
Br222  Br    0.98608   0.23170   0.30465   0.00000  Uiso   1.00
C223   C     0.18162   0.59799   0.24891   0.00000  Uiso   1.00
C224   C     0.15171   0.40200   0.25101   0.00000  Uiso   1.00
C225   C     0.20107   0.59366   0.48326   0.00000  Uiso   1.00
C226   C     0.11551   0.41318   0.01829   0.00000  Uiso   1.00
C227   C     0.18941   0.65248   0.24804   0.00000  Uiso   1.00
C228   C     0.14391   0.34750   0.25174   0.00000  Uiso   1.00
C229   C     0.16732   0.50314   0.33629   0.00000  Uiso   1.00
C230   C     0.16608   0.49742   0.16371   0.00000  Uiso   1.00
C231   C     0.13842   0.45610   0.09171   0.00000  Uiso   1.00
C232   C     0.18336   0.54934   0.40961   0.00000  Uiso   1.00
C233   C     0.16539   0.49735   0.11601   0.00000  Uiso   1.00
C234   C     0.16732   0.50389   0.38412   0.00000  Uiso   1.00
C235   C     0.18973   0.54036   0.09564   0.00000  Uiso   1.00
C236   C     0.14859   0.45874   0.40394   0.00000  Uiso   1.00
C237   C     0.18521   0.54452   0.04991   0.00000  Uiso   1.00
C238   C     0.14329   0.45836   0.45077   0.00000  Uiso   1.00
C239   C     0.15958   0.50223   0.02416   0.00000  Uiso   1.00
C240   C     0.16041   0.50369   0.47737   0.00000  Uiso   1.00
C241   C     0.13635   0.45720   0.04497   0.00000  Uiso   1.00
C242   C     0.18117   0.54950   0.45677   0.00000  Uiso   1.00
C243   C     0.20573   0.59027   0.02991   0.00000  Uiso   1.00
C244   C     0.12340   0.41268   0.47092   0.00000  Uiso   1.00
H245   H     0.12129   0.42283   0.10938   0.00000  Uiso   1.00
H246   H     0.19835   0.58375   0.39247   0.00000  Uiso   1.00
H247   H     0.21044   0.57113   0.11631   0.00000  Uiso   1.00
H248   H     0.13742   0.42435   0.38226   0.00000  Uiso   1.00
H249   H     0.23255   0.33576   0.24431   0.00000  Uiso   1.00
H250   H     0.10077   0.66422   0.25544   0.00000  Uiso   1.00
N251   N     0.31678   0.48598   0.23783   0.00000  Uiso   1.00
N252   N     0.01656   0.51402   0.26217   0.00000  Uiso   1.00
O253   O     0.12975   0.57952   0.25298   0.00000  Uiso   1.00
O254   O     0.20358   0.42048   0.24701   0.00000  Uiso   1.00
O255   O     0.22613   0.57054   0.24518   0.00000  Uiso   1.00
O256   O     0.10720   0.42946   0.25481   0.00000  Uiso   1.00
O257   O     0.11847   0.50450   0.31997   0.00000  Uiso   1.00
O258   O     0.21486   0.49550   0.18002   0.00000  Uiso   1.00
O259   O     0.21485   0.49552   0.31217   0.00000  Uiso   1.00
O260   O     0.11848   0.50448   0.18782   0.00000  Uiso   1.00
Zn261  Zn    0.10231   0.50600   0.25521   0.00000  Uiso   1.00
Zn262  Zn    0.23102   0.49400   0.24479   0.00000  Uiso   1.00
O263   O     0.23610   0.62877   0.05476   0.00000  Uiso   1.00
C264   C     0.19930   0.66438   0.07870   0.00000  Uiso   1.00
H265   H     0.15686   0.64623   0.08865   0.00000  Uiso   1.00
H266   H     0.19558   0.36331   0.05715   0.00000  Uiso   1.00
C267   C     0.22411   0.35469   0.12200   0.00000  Uiso   1.00
H268   H     0.26206   0.38035   0.11344   0.00000  Uiso   1.00
H269   H     0.19258   0.37861   0.14271   0.00000  Uiso   1.00
H270   H     0.23553   0.65703   0.14283   0.00000  Uiso   1.00
O271   O     0.12469   0.36538   0.44507   0.00000  Uiso   1.00
C272   C     0.07178   0.35217   0.42853   0.00000  Uiso   1.00
H273   H     0.05283   0.38608   0.41579   0.00000  Uiso   1.00
H274   H     0.04363   0.33551   0.45581   0.00000  Uiso   1.00
C275   C     0.07847   0.64396   0.38921   0.00000  Uiso   1.00
H276   H     0.09094   0.60722   0.40156   0.00000  Uiso   1.00
H277   H     0.03765   0.63634   0.37389   0.00000  Uiso   1.00
H278   H     0.11099   0.65726   0.36281   0.00000  Uiso   1.00
O279   O     0.20602   0.64163   0.46518   0.00000  Uiso   1.00
C280   C     0.26284   0.65990   0.45886   0.00000  Uiso   1.00
H281   H     0.28956   0.64699   0.48421   0.00000  Uiso   1.00
H282   H     0.28059   0.64545   0.42450   0.00000  Uiso   1.00
C283   C     0.26493   0.38606   0.46215   0.00000  Uiso   1.00
H284   H     0.24705   0.39979   0.43218   0.00000  Uiso   1.00
H285   H     0.24035   0.40118   0.49349   0.00000  Uiso   1.00
H286   H     0.30873   0.40262   0.46370   0.00000  Uiso   1.00
O287   O     0.10107   0.36634   0.03697   0.00000  Uiso   1.00
C288   C     0.04527   0.36569   0.05734   0.00000  Uiso   1.00
H289   H     0.01483   0.36219   0.03093   0.00000  Uiso   1.00
H290   H     0.03634   0.40132   0.08012   0.00000  Uiso   1.00
C291   C     0.03655   0.65170   0.08524   0.00000  Uiso   1.00
H292   H     0.06204   0.65753   0.11506   0.00000  Uiso   1.00
H293   H     0.32518   0.64570   0.09786   0.00000  Uiso   1.00
H294   H     0.04943   0.61604   0.06410   0.00000  Uiso   1.00
Br295  Br    0.01353   0.43486   0.19511   0.00000  Uiso   1.00
Br296  Br    0.31941   0.56503   0.30465   0.00000  Uiso   1.00
C297   C     0.51495   0.59799   0.24891   0.00000  Uiso   1.00
C298   C     0.48505   0.40200   0.25101   0.00000  Uiso   1.00
C299   C     0.53440   0.59366   0.48326   0.00000  Uiso   1.00
C300   C     0.44884   0.41318   0.01829   0.00000  Uiso   1.00
C301   C     0.52275   0.65248   0.24804   0.00000  Uiso   1.00
C302   C     0.47724   0.34750   0.25174   0.00000  Uiso   1.00
C303   C     0.50065   0.50314   0.33629   0.00000  Uiso   1.00
C304   C     0.49942   0.49742   0.16371   0.00000  Uiso   1.00
C305   C     0.47176   0.45610   0.09171   0.00000  Uiso   1.00
C306   C     0.51670   0.54934   0.40961   0.00000  Uiso   1.00
C307   C     0.49872   0.49735   0.11601   0.00000  Uiso   1.00
C308   C     0.50065   0.50389   0.38412   0.00000  Uiso   1.00
C309   C     0.52306   0.54036   0.09564   0.00000  Uiso   1.00
C310   C     0.48192   0.45874   0.40394   0.00000  Uiso   1.00
C311   C     0.51855   0.54452   0.04991   0.00000  Uiso   1.00
C312   C     0.47663   0.45836   0.45077   0.00000  Uiso   1.00
C313   C     0.49291   0.50223   0.02416   0.00000  Uiso   1.00
C314   C     0.49375   0.50369   0.47737   0.00000  Uiso   1.00
C315   C     0.46968   0.45720   0.04497   0.00000  Uiso   1.00
C316   C     0.51450   0.54950   0.45677   0.00000  Uiso   1.00
C317   C     0.53906   0.59027   0.02991   0.00000  Uiso   1.00
C318   C     0.45673   0.41268   0.47092   0.00000  Uiso   1.00
H319   H     0.45462   0.42283   0.10938   0.00000  Uiso   1.00
H320   H     0.53169   0.58375   0.39247   0.00000  Uiso   1.00
H321   H     0.54377   0.57113   0.11631   0.00000  Uiso   1.00
H322   H     0.47075   0.42435   0.38226   0.00000  Uiso   1.00
H323   H     0.56588   0.33576   0.24431   0.00000  Uiso   1.00
H324   H     0.43410   0.66422   0.25544   0.00000  Uiso   1.00
N325   N     0.65011   0.48598   0.23783   0.00000  Uiso   1.00
N326   N     0.34989   0.51402   0.26217   0.00000  Uiso   1.00
O327   O     0.46308   0.57952   0.25298   0.00000  Uiso   1.00
O328   O     0.53692   0.42048   0.24701   0.00000  Uiso   1.00
O329   O     0.55946   0.57054   0.24518   0.00000  Uiso   1.00
O330   O     0.44054   0.42946   0.25481   0.00000  Uiso   1.00
O331   O     0.45181   0.50450   0.31997   0.00000  Uiso   1.00
O332   O     0.54819   0.49550   0.18002   0.00000  Uiso   1.00
O333   O     0.54819   0.49552   0.31217   0.00000  Uiso   1.00
O334   O     0.45181   0.50448   0.18782   0.00000  Uiso   1.00
Zn335  Zn    0.43565   0.50600   0.25521   0.00000  Uiso   1.00
Zn336  Zn    0.56435   0.49400   0.24479   0.00000  Uiso   1.00
O337   O     0.56943   0.62877   0.05476   0.00000  Uiso   1.00
C338   C     0.53263   0.66438   0.07870   0.00000  Uiso   1.00
H339   H     0.49019   0.64623   0.08865   0.00000  Uiso   1.00
H340   H     0.52891   0.36331   0.05715   0.00000  Uiso   1.00
C341   C     0.55744   0.35469   0.12200   0.00000  Uiso   1.00
H342   H     0.59539   0.38035   0.11344   0.00000  Uiso   1.00
H343   H     0.52591   0.37861   0.14271   0.00000  Uiso   1.00
H344   H     0.56886   0.65703   0.14283   0.00000  Uiso   1.00
O345   O     0.45803   0.36538   0.44507   0.00000  Uiso   1.00
C346   C     0.40511   0.35217   0.42853   0.00000  Uiso   1.00
H347   H     0.38617   0.38608   0.41579   0.00000  Uiso   1.00
H348   H     0.37696   0.33551   0.45581   0.00000  Uiso   1.00
C349   C     0.41181   0.64396   0.38921   0.00000  Uiso   1.00
H350   H     0.42427   0.60722   0.40156   0.00000  Uiso   1.00
H351   H     0.37098   0.63634   0.37389   0.00000  Uiso   1.00
H352   H     0.44432   0.65726   0.36281   0.00000  Uiso   1.00
O353   O     0.53935   0.64163   0.46518   0.00000  Uiso   1.00
C354   C     0.59618   0.65990   0.45886   0.00000  Uiso   1.00
H355   H     0.62289   0.64699   0.48421   0.00000  Uiso   1.00
H356   H     0.61392   0.64545   0.42450   0.00000  Uiso   1.00
C357   C     0.59826   0.38606   0.46215   0.00000  Uiso   1.00
H358   H     0.58038   0.39979   0.43218   0.00000  Uiso   1.00
H359   H     0.57368   0.40118   0.49349   0.00000  Uiso   1.00
H360   H     0.64206   0.40262   0.46370   0.00000  Uiso   1.00
O361   O     0.43440   0.36634   0.03697   0.00000  Uiso   1.00
C362   C     0.37860   0.36569   0.05734   0.00000  Uiso   1.00
H363   H     0.34816   0.36219   0.03093   0.00000  Uiso   1.00
H364   H     0.36967   0.40132   0.08012   0.00000  Uiso   1.00
C365   C     0.36988   0.65170   0.08524   0.00000  Uiso   1.00
H366   H     0.39538   0.65753   0.11506   0.00000  Uiso   1.00
H367   H     0.65851   0.64570   0.09786   0.00000  Uiso   1.00
H368   H     0.38276   0.61604   0.06410   0.00000  Uiso   1.00
Br369  Br    0.34687   0.43486   0.19511   0.00000  Uiso   1.00
Br370  Br    0.65275   0.56503   0.30465   0.00000  Uiso   1.00
C371   C     0.84828   0.59799   0.24891   0.00000  Uiso   1.00
C372   C     0.81838   0.40200   0.25101   0.00000  Uiso   1.00
C373   C     0.86774   0.59366   0.48326   0.00000  Uiso   1.00
C374   C     0.78218   0.41318   0.01829   0.00000  Uiso   1.00
C375   C     0.85608   0.65248   0.24804   0.00000  Uiso   1.00
C376   C     0.81057   0.34750   0.25174   0.00000  Uiso   1.00
C377   C     0.83398   0.50314   0.33629   0.00000  Uiso   1.00
C378   C     0.83275   0.49742   0.16371   0.00000  Uiso   1.00
C379   C     0.80509   0.45610   0.09171   0.00000  Uiso   1.00
C380   C     0.85003   0.54934   0.40961   0.00000  Uiso   1.00
C381   C     0.83206   0.49735   0.11601   0.00000  Uiso   1.00
C382   C     0.83398   0.50389   0.38412   0.00000  Uiso   1.00
C383   C     0.85640   0.54036   0.09564   0.00000  Uiso   1.00
C384   C     0.81526   0.45874   0.40394   0.00000  Uiso   1.00
C385   C     0.85188   0.54452   0.04991   0.00000  Uiso   1.00
C386   C     0.80996   0.45836   0.45077   0.00000  Uiso   1.00
C387   C     0.82624   0.50223   0.02416   0.00000  Uiso   1.00
C388   C     0.82708   0.50369   0.47737   0.00000  Uiso   1.00
C389   C     0.80302   0.45720   0.04497   0.00000  Uiso   1.00
C390   C     0.84784   0.54950   0.45677   0.00000  Uiso   1.00
C391   C     0.87240   0.59027   0.02991   0.00000  Uiso   1.00
C392   C     0.79007   0.41268   0.47092   0.00000  Uiso   1.00
H393   H     0.78795   0.42283   0.10938   0.00000  Uiso   1.00
H394   H     0.86502   0.58375   0.39247   0.00000  Uiso   1.00
H395   H     0.87710   0.57113   0.11631   0.00000  Uiso   1.00
H396   H     0.80409   0.42435   0.38226   0.00000  Uiso   1.00
H397   H     0.89922   0.33576   0.24431   0.00000  Uiso   1.00
H398   H     0.76744   0.66422   0.25544   0.00000  Uiso   1.00
N399   N     0.98344   0.48598   0.23783   0.00000  Uiso   1.00
N400   N     0.68322   0.51402   0.26217   0.00000  Uiso   1.00
O401   O     0.79642   0.57952   0.25298   0.00000  Uiso   1.00
O402   O     0.87025   0.42048   0.24701   0.00000  Uiso   1.00
O403   O     0.89280   0.57054   0.24518   0.00000  Uiso   1.00
O404   O     0.77387   0.42946   0.25481   0.00000  Uiso   1.00
O405   O     0.78514   0.50450   0.31997   0.00000  Uiso   1.00
O406   O     0.88153   0.49550   0.18002   0.00000  Uiso   1.00
O407   O     0.88152   0.49552   0.31217   0.00000  Uiso   1.00
O408   O     0.78515   0.50448   0.18782   0.00000  Uiso   1.00
Zn409  Zn    0.76898   0.50600   0.25521   0.00000  Uiso   1.00
Zn410  Zn    0.89769   0.49400   0.24479   0.00000  Uiso   1.00
O411   O     0.90276   0.62877   0.05476   0.00000  Uiso   1.00
C412   C     0.86597   0.66438   0.07870   0.00000  Uiso   1.00
H413   H     0.82352   0.64623   0.08865   0.00000  Uiso   1.00
H414   H     0.86225   0.36331   0.05715   0.00000  Uiso   1.00
C415   C     0.89077   0.35469   0.12200   0.00000  Uiso   1.00
H416   H     0.92872   0.38035   0.11344   0.00000  Uiso   1.00
H417   H     0.85924   0.37861   0.14271   0.00000  Uiso   1.00
H418   H     0.90220   0.65703   0.14283   0.00000  Uiso   1.00
O419   O     0.79136   0.36538   0.44507   0.00000  Uiso   1.00
C420   C     0.73845   0.35217   0.42853   0.00000  Uiso   1.00
H421   H     0.71950   0.38608   0.41579   0.00000  Uiso   1.00
H422   H     0.71030   0.33551   0.45581   0.00000  Uiso   1.00
C423   C     0.74514   0.64396   0.38921   0.00000  Uiso   1.00
H424   H     0.75761   0.60722   0.40156   0.00000  Uiso   1.00
H425   H     0.70431   0.63634   0.37389   0.00000  Uiso   1.00
H426   H     0.77765   0.65726   0.36281   0.00000  Uiso   1.00
O427   O     0.87269   0.64163   0.46518   0.00000  Uiso   1.00
C428   C     0.92951   0.65990   0.45886   0.00000  Uiso   1.00
H429   H     0.95622   0.64699   0.48421   0.00000  Uiso   1.00
H430   H     0.94725   0.64545   0.42450   0.00000  Uiso   1.00
C431   C     0.93159   0.38606   0.46215   0.00000  Uiso   1.00
H432   H     0.91371   0.39979   0.43218   0.00000  Uiso   1.00
H433   H     0.90701   0.40118   0.49349   0.00000  Uiso   1.00
H434   H     0.97540   0.40262   0.46370   0.00000  Uiso   1.00
O435   O     0.76773   0.36634   0.03697   0.00000  Uiso   1.00
C436   C     0.71193   0.36569   0.05734   0.00000  Uiso   1.00
H437   H     0.68149   0.36219   0.03093   0.00000  Uiso   1.00
H438   H     0.70300   0.40132   0.08012   0.00000  Uiso   1.00
C439   C     0.70321   0.65170   0.08524   0.00000  Uiso   1.00
H440   H     0.72871   0.65753   0.11506   0.00000  Uiso   1.00
H441   H     0.99185   0.64570   0.09786   0.00000  Uiso   1.00
H442   H     0.71609   0.61604   0.06410   0.00000  Uiso   1.00
Br443  Br    0.68020   0.43486   0.19511   0.00000  Uiso   1.00
Br444  Br    0.98608   0.56503   0.30465   0.00000  Uiso   1.00
C445   C     0.18162   0.93133   0.24891   0.00000  Uiso   1.00
C446   C     0.15171   0.73533   0.25101   0.00000  Uiso   1.00
C447   C     0.20107   0.92699   0.48326   0.00000  Uiso   1.00
C448   C     0.11551   0.74651   0.01829   0.00000  Uiso   1.00
C449   C     0.18941   0.98581   0.24804   0.00000  Uiso   1.00
C450   C     0.14391   0.68083   0.25174   0.00000  Uiso   1.00
C451   C     0.16732   0.83647   0.33629   0.00000  Uiso   1.00
C452   C     0.16608   0.83075   0.16371   0.00000  Uiso   1.00
C453   C     0.13842   0.78944   0.09171   0.00000  Uiso   1.00
C454   C     0.18336   0.88268   0.40961   0.00000  Uiso   1.00
C455   C     0.16539   0.83068   0.11601   0.00000  Uiso   1.00
C456   C     0.16732   0.83722   0.38412   0.00000  Uiso   1.00
C457   C     0.18973   0.87370   0.09564   0.00000  Uiso   1.00
C458   C     0.14859   0.79207   0.40394   0.00000  Uiso   1.00
C459   C     0.18521   0.87785   0.04991   0.00000  Uiso   1.00
C460   C     0.14329   0.79169   0.45077   0.00000  Uiso   1.00
C461   C     0.15958   0.83556   0.02416   0.00000  Uiso   1.00
C462   C     0.16041   0.83702   0.47737   0.00000  Uiso   1.00
C463   C     0.13635   0.79053   0.04497   0.00000  Uiso   1.00
C464   C     0.18117   0.88283   0.45677   0.00000  Uiso   1.00
C465   C     0.20573   0.92361   0.02991   0.00000  Uiso   1.00
C466   C     0.12340   0.74601   0.47092   0.00000  Uiso   1.00
H467   H     0.12129   0.75616   0.10938   0.00000  Uiso   1.00
H468   H     0.19835   0.91708   0.39247   0.00000  Uiso   1.00
H469   H     0.21044   0.90446   0.11631   0.00000  Uiso   1.00
H470   H     0.13742   0.75769   0.38226   0.00000  Uiso   1.00
H471   H     0.23255   0.66910   0.24431   0.00000  Uiso   1.00
H472   H     0.10077   0.99755   0.25544   0.00000  Uiso   1.00
N473   N     0.31678   0.81932   0.23783   0.00000  Uiso   1.00
N474   N     0.01656   0.84735   0.26217   0.00000  Uiso   1.00
O475   O     0.12975   0.91286   0.25298   0.00000  Uiso   1.00
O476   O     0.20358   0.75381   0.24701   0.00000  Uiso   1.00
O477   O     0.22613   0.90387   0.24518   0.00000  Uiso   1.00
O478   O     0.10720   0.76279   0.25481   0.00000  Uiso   1.00
O479   O     0.11847   0.83784   0.31997   0.00000  Uiso   1.00
O480   O     0.21486   0.82883   0.18002   0.00000  Uiso   1.00
O481   O     0.21485   0.82885   0.31217   0.00000  Uiso   1.00
O482   O     0.11848   0.83781   0.18782   0.00000  Uiso   1.00
Zn483  Zn    0.10231   0.83933   0.25521   0.00000  Uiso   1.00
Zn484  Zn    0.23102   0.82734   0.24479   0.00000  Uiso   1.00
O485   O     0.23610   0.96211   0.05476   0.00000  Uiso   1.00
C486   C     0.19930   0.99771   0.07870   0.00000  Uiso   1.00
H487   H     0.15686   0.97957   0.08865   0.00000  Uiso   1.00
H488   H     0.19558   0.69665   0.05715   0.00000  Uiso   1.00
C489   C     0.22411   0.68802   0.12200   0.00000  Uiso   1.00
H490   H     0.26206   0.71368   0.11344   0.00000  Uiso   1.00
H491   H     0.19258   0.71194   0.14271   0.00000  Uiso   1.00
H492   H     0.23553   0.99037   0.14283   0.00000  Uiso   1.00
O493   O     0.12469   0.69871   0.44507   0.00000  Uiso   1.00
C494   C     0.07178   0.68550   0.42853   0.00000  Uiso   1.00
H495   H     0.05283   0.71942   0.41579   0.00000  Uiso   1.00
H496   H     0.04363   0.66885   0.45581   0.00000  Uiso   1.00
C497   C     0.07847   0.97729   0.38921   0.00000  Uiso   1.00
H498   H     0.09094   0.94055   0.40156   0.00000  Uiso   1.00
H499   H     0.03765   0.96967   0.37389   0.00000  Uiso   1.00
H500   H     0.11099   0.99060   0.36281   0.00000  Uiso   1.00
O501   O     0.20602   0.97496   0.46518   0.00000  Uiso   1.00
C502   C     0.26284   0.99323   0.45886   0.00000  Uiso   1.00
H503   H     0.28956   0.98032   0.48421   0.00000  Uiso   1.00
H504   H     0.28059   0.97879   0.42450   0.00000  Uiso   1.00
C505   C     0.26493   0.71939   0.46215   0.00000  Uiso   1.00
H506   H     0.24705   0.73313   0.43218   0.00000  Uiso   1.00
H507   H     0.24035   0.73452   0.49349   0.00000  Uiso   1.00
H508   H     0.30873   0.73596   0.46370   0.00000  Uiso   1.00
O509   O     0.10107   0.69967   0.03697   0.00000  Uiso   1.00
C510   C     0.04527   0.69902   0.05734   0.00000  Uiso   1.00
H511   H     0.01483   0.69552   0.03093   0.00000  Uiso   1.00
H512   H     0.03634   0.73466   0.08012   0.00000  Uiso   1.00
C513   C     0.03655   0.98504   0.08524   0.00000  Uiso   1.00
H514   H     0.06204   0.99087   0.11506   0.00000  Uiso   1.00
H515   H     0.32518   0.97904   0.09786   0.00000  Uiso   1.00
H516   H     0.04943   0.94937   0.06410   0.00000  Uiso   1.00
Br517  Br    0.01353   0.76820   0.19511   0.00000  Uiso   1.00
Br518  Br    0.31941   0.89836   0.30465   0.00000  Uiso   1.00
C519   C     0.51495   0.93133   0.24891   0.00000  Uiso   1.00
C520   C     0.48505   0.73533   0.25101   0.00000  Uiso   1.00
C521   C     0.53440   0.92699   0.48326   0.00000  Uiso   1.00
C522   C     0.44884   0.74651   0.01829   0.00000  Uiso   1.00
C523   C     0.52275   0.98581   0.24804   0.00000  Uiso   1.00
C524   C     0.47724   0.68083   0.25174   0.00000  Uiso   1.00
C525   C     0.50065   0.83647   0.33629   0.00000  Uiso   1.00
C526   C     0.49942   0.83075   0.16371   0.00000  Uiso   1.00
C527   C     0.47176   0.78944   0.09171   0.00000  Uiso   1.00
C528   C     0.51670   0.88268   0.40961   0.00000  Uiso   1.00
C529   C     0.49872   0.83068   0.11601   0.00000  Uiso   1.00
C530   C     0.50065   0.83722   0.38412   0.00000  Uiso   1.00
C531   C     0.52306   0.87370   0.09564   0.00000  Uiso   1.00
C532   C     0.48192   0.79207   0.40394   0.00000  Uiso   1.00
C533   C     0.51855   0.87785   0.04991   0.00000  Uiso   1.00
C534   C     0.47663   0.79169   0.45077   0.00000  Uiso   1.00
C535   C     0.49291   0.83556   0.02416   0.00000  Uiso   1.00
C536   C     0.49375   0.83702   0.47737   0.00000  Uiso   1.00
C537   C     0.46968   0.79053   0.04497   0.00000  Uiso   1.00
C538   C     0.51450   0.88283   0.45677   0.00000  Uiso   1.00
C539   C     0.53906   0.92361   0.02991   0.00000  Uiso   1.00
C540   C     0.45673   0.74601   0.47092   0.00000  Uiso   1.00
H541   H     0.45462   0.75616   0.10938   0.00000  Uiso   1.00
H542   H     0.53169   0.91708   0.39247   0.00000  Uiso   1.00
H543   H     0.54377   0.90446   0.11631   0.00000  Uiso   1.00
H544   H     0.47075   0.75769   0.38226   0.00000  Uiso   1.00
H545   H     0.56588   0.66910   0.24431   0.00000  Uiso   1.00
H546   H     0.43410   0.99755   0.25544   0.00000  Uiso   1.00
N547   N     0.65011   0.81932   0.23783   0.00000  Uiso   1.00
N548   N     0.34989   0.84735   0.26217   0.00000  Uiso   1.00
O549   O     0.46308   0.91286   0.25298   0.00000  Uiso   1.00
O550   O     0.53692   0.75381   0.24701   0.00000  Uiso   1.00
O551   O     0.55946   0.90387   0.24518   0.00000  Uiso   1.00
O552   O     0.44054   0.76279   0.25481   0.00000  Uiso   1.00
O553   O     0.45181   0.83784   0.31997   0.00000  Uiso   1.00
O554   O     0.54819   0.82883   0.18002   0.00000  Uiso   1.00
O555   O     0.54819   0.82885   0.31217   0.00000  Uiso   1.00
O556   O     0.45181   0.83781   0.18782   0.00000  Uiso   1.00
Zn557  Zn    0.43565   0.83933   0.25521   0.00000  Uiso   1.00
Zn558  Zn    0.56435   0.82734   0.24479   0.00000  Uiso   1.00
O559   O     0.56943   0.96211   0.05476   0.00000  Uiso   1.00
C560   C     0.53263   0.99771   0.07870   0.00000  Uiso   1.00
H561   H     0.49019   0.97957   0.08865   0.00000  Uiso   1.00
H562   H     0.52891   0.69665   0.05715   0.00000  Uiso   1.00
C563   C     0.55744   0.68802   0.12200   0.00000  Uiso   1.00
H564   H     0.59539   0.71368   0.11344   0.00000  Uiso   1.00
H565   H     0.52591   0.71194   0.14271   0.00000  Uiso   1.00
H566   H     0.56886   0.99037   0.14283   0.00000  Uiso   1.00
O567   O     0.45803   0.69871   0.44507   0.00000  Uiso   1.00
C568   C     0.40511   0.68550   0.42853   0.00000  Uiso   1.00
H569   H     0.38617   0.71942   0.41579   0.00000  Uiso   1.00
H570   H     0.37696   0.66885   0.45581   0.00000  Uiso   1.00
C571   C     0.41181   0.97729   0.38921   0.00000  Uiso   1.00
H572   H     0.42427   0.94055   0.40156   0.00000  Uiso   1.00
H573   H     0.37098   0.96967   0.37389   0.00000  Uiso   1.00
H574   H     0.44432   0.99060   0.36281   0.00000  Uiso   1.00
O575   O     0.53935   0.97496   0.46518   0.00000  Uiso   1.00
C576   C     0.59618   0.99323   0.45886   0.00000  Uiso   1.00
H577   H     0.62289   0.98032   0.48421   0.00000  Uiso   1.00
H578   H     0.61392   0.97879   0.42450   0.00000  Uiso   1.00
C579   C     0.59826   0.71939   0.46215   0.00000  Uiso   1.00
H580   H     0.58038   0.73313   0.43218   0.00000  Uiso   1.00
H581   H     0.57368   0.73452   0.49349   0.00000  Uiso   1.00
H582   H     0.64206   0.73596   0.46370   0.00000  Uiso   1.00
O583   O     0.43440   0.69967   0.03697   0.00000  Uiso   1.00
C584   C     0.37860   0.69902   0.05734   0.00000  Uiso   1.00
H585   H     0.34816   0.69552   0.03093   0.00000  Uiso   1.00
H586   H     0.36967   0.73466   0.08012   0.00000  Uiso   1.00
C587   C     0.36988   0.98504   0.08524   0.00000  Uiso   1.00
H588   H     0.39538   0.99087   0.11506   0.00000  Uiso   1.00
H589   H     0.65851   0.97904   0.09786   0.00000  Uiso   1.00
H590   H     0.38276   0.94937   0.06410   0.00000  Uiso   1.00
Br591  Br    0.34687   0.76820   0.19511   0.00000  Uiso   1.00
Br592  Br    0.65275   0.89836   0.30465   0.00000  Uiso   1.00
C593   C     0.84828   0.93133   0.24891   0.00000  Uiso   1.00
C594   C     0.81838   0.73533   0.25101   0.00000  Uiso   1.00
C595   C     0.86774   0.92699   0.48326   0.00000  Uiso   1.00
C596   C     0.78218   0.74651   0.01829   0.00000  Uiso   1.00
C597   C     0.85608   0.98581   0.24804   0.00000  Uiso   1.00
C598   C     0.81057   0.68083   0.25174   0.00000  Uiso   1.00
C599   C     0.83398   0.83647   0.33629   0.00000  Uiso   1.00
C600   C     0.83275   0.83075   0.16371   0.00000  Uiso   1.00
C601   C     0.80509   0.78944   0.09171   0.00000  Uiso   1.00
C602   C     0.85003   0.88268   0.40961   0.00000  Uiso   1.00
C603   C     0.83206   0.83068   0.11601   0.00000  Uiso   1.00
C604   C     0.83398   0.83722   0.38412   0.00000  Uiso   1.00
C605   C     0.85640   0.87370   0.09564   0.00000  Uiso   1.00
C606   C     0.81526   0.79207   0.40394   0.00000  Uiso   1.00
C607   C     0.85188   0.87785   0.04991   0.00000  Uiso   1.00
C608   C     0.80996   0.79169   0.45077   0.00000  Uiso   1.00
C609   C     0.82624   0.83556   0.02416   0.00000  Uiso   1.00
C610   C     0.82708   0.83702   0.47737   0.00000  Uiso   1.00
C611   C     0.80302   0.79053   0.04497   0.00000  Uiso   1.00
C612   C     0.84784   0.88283   0.45677   0.00000  Uiso   1.00
C613   C     0.87240   0.92361   0.02991   0.00000  Uiso   1.00
C614   C     0.79007   0.74601   0.47092   0.00000  Uiso   1.00
H615   H     0.78795   0.75616   0.10938   0.00000  Uiso   1.00
H616   H     0.86502   0.91708   0.39247   0.00000  Uiso   1.00
H617   H     0.87710   0.90446   0.11631   0.00000  Uiso   1.00
H618   H     0.80409   0.75769   0.38226   0.00000  Uiso   1.00
H619   H     0.89922   0.66910   0.24431   0.00000  Uiso   1.00
H620   H     0.76744   0.99755   0.25544   0.00000  Uiso   1.00
N621   N     0.98344   0.81932   0.23783   0.00000  Uiso   1.00
N622   N     0.68322   0.84735   0.26217   0.00000  Uiso   1.00
O623   O     0.79642   0.91286   0.25298   0.00000  Uiso   1.00
O624   O     0.87025   0.75381   0.24701   0.00000  Uiso   1.00
O625   O     0.89280   0.90387   0.24518   0.00000  Uiso   1.00
O626   O     0.77387   0.76279   0.25481   0.00000  Uiso   1.00
O627   O     0.78514   0.83784   0.31997   0.00000  Uiso   1.00
O628   O     0.88153   0.82883   0.18002   0.00000  Uiso   1.00
O629   O     0.88152   0.82885   0.31217   0.00000  Uiso   1.00
O630   O     0.78515   0.83781   0.18782   0.00000  Uiso   1.00
Zn631  Zn    0.76898   0.83933   0.25521   0.00000  Uiso   1.00
Zn632  Zn    0.89769   0.82734   0.24479   0.00000  Uiso   1.00
O633   O     0.90276   0.96211   0.05476   0.00000  Uiso   1.00
C634   C     0.86597   0.99771   0.07870   0.00000  Uiso   1.00
H635   H     0.82352   0.97957   0.08865   0.00000  Uiso   1.00
H636   H     0.86225   0.69665   0.05715   0.00000  Uiso   1.00
C637   C     0.89077   0.68802   0.12200   0.00000  Uiso   1.00
H638   H     0.92872   0.71368   0.11344   0.00000  Uiso   1.00
H639   H     0.85924   0.71194   0.14271   0.00000  Uiso   1.00
H640   H     0.90220   0.99037   0.14283   0.00000  Uiso   1.00
O641   O     0.79136   0.69871   0.44507   0.00000  Uiso   1.00
C642   C     0.73845   0.68550   0.42853   0.00000  Uiso   1.00
H643   H     0.71950   0.71942   0.41579   0.00000  Uiso   1.00
H644   H     0.71030   0.66885   0.45581   0.00000  Uiso   1.00
C645   C     0.74514   0.97729   0.38921   0.00000  Uiso   1.00
H646   H     0.75761   0.94055   0.40156   0.00000  Uiso   1.00
H647   H     0.70431   0.96967   0.37389   0.00000  Uiso   1.00
H648   H     0.77765   0.99060   0.36281   0.00000  Uiso   1.00
O649   O     0.87269   0.97496   0.46518   0.00000  Uiso   1.00
C650   C     0.92951   0.99323   0.45886   0.00000  Uiso   1.00
H651   H     0.95622   0.98032   0.48421   0.00000  Uiso   1.00
H652   H     0.94725   0.97879   0.42450   0.00000  Uiso   1.00
C653   C     0.93159   0.71939   0.46215   0.00000  Uiso   1.00
H654   H     0.91371   0.73313   0.43218   0.00000  Uiso   1.00
H655   H     0.90701   0.73452   0.49349   0.00000  Uiso   1.00
H656   H     0.97540   0.73596   0.46370   0.00000  Uiso   1.00
O657   O     0.76773   0.69967   0.03697   0.00000  Uiso   1.00
C658   C     0.71193   0.69902   0.05734   0.00000  Uiso   1.00
H659   H     0.68149   0.69552   0.03093   0.00000  Uiso   1.00
H660   H     0.70300   0.73466   0.08012   0.00000  Uiso   1.00
C661   C     0.70321   0.98504   0.08524   0.00000  Uiso   1.00
H662   H     0.72871   0.99087   0.11506   0.00000  Uiso   1.00
H663   H     0.99185   0.97904   0.09786   0.00000  Uiso   1.00
H664   H     0.71609   0.94937   0.06410   0.00000  Uiso   1.00
Br665  Br    0.68020   0.76820   0.19511   0.00000  Uiso   1.00
Br666  Br    0.98608   0.89836   0.30465   0.00000  Uiso   1.00
C667   C     0.18162   0.26466   0.74891   0.00000  Uiso   1.00
C668   C     0.15171   0.06867   0.75101   0.00000  Uiso   1.00
C669   C     0.20107   0.26032   0.98326   0.00000  Uiso   1.00
C670   C     0.11551   0.07984   0.51829   0.00000  Uiso   1.00
C671   C     0.18941   0.31915   0.74804   0.00000  Uiso   1.00
C672   C     0.14391   0.01417   0.75174   0.00000  Uiso   1.00
C673   C     0.16732   0.16981   0.83629   0.00000  Uiso   1.00
C674   C     0.16608   0.16409   0.66371   0.00000  Uiso   1.00
C675   C     0.13842   0.12277   0.59171   0.00000  Uiso   1.00
C676   C     0.18336   0.21601   0.90961   0.00000  Uiso   1.00
C677   C     0.16539   0.16401   0.61601   0.00000  Uiso   1.00
C678   C     0.16732   0.17055   0.88412   0.00000  Uiso   1.00
C679   C     0.18973   0.20703   0.59564   0.00000  Uiso   1.00
C680   C     0.14859   0.12541   0.90394   0.00000  Uiso   1.00
C681   C     0.18521   0.21118   0.54991   0.00000  Uiso   1.00
C682   C     0.14329   0.12503   0.95077   0.00000  Uiso   1.00
C683   C     0.15958   0.16890   0.52416   0.00000  Uiso   1.00
C684   C     0.16041   0.17036   0.97737   0.00000  Uiso   1.00
C685   C     0.13635   0.12386   0.54497   0.00000  Uiso   1.00
C686   C     0.18117   0.21617   0.95677   0.00000  Uiso   1.00
C687   C     0.20573   0.25694   0.52991   0.00000  Uiso   1.00
C688   C     0.12340   0.07934   0.97092   0.00000  Uiso   1.00
H689   H     0.12129   0.08950   0.60938   0.00000  Uiso   1.00
H690   H     0.19835   0.25041   0.89247   0.00000  Uiso   1.00
H691   H     0.21044   0.23779   0.61631   0.00000  Uiso   1.00
H692   H     0.13742   0.09102   0.88226   0.00000  Uiso   1.00
H693   H     0.23255   0.00243   0.74431   0.00000  Uiso   1.00
H694   H     0.10077   0.33088   0.75544   0.00000  Uiso   1.00
N695   N     0.31678   0.15265   0.73783   0.00000  Uiso   1.00
N696   N     0.01656   0.18068   0.76217   0.00000  Uiso   1.00
O697   O     0.12975   0.24619   0.75298   0.00000  Uiso   1.00
O698   O     0.20358   0.08714   0.74701   0.00000  Uiso   1.00
O699   O     0.22613   0.23721   0.74518   0.00000  Uiso   1.00
O700   O     0.10720   0.09613   0.75481   0.00000  Uiso   1.00
O701   O     0.11847   0.17117   0.81997   0.00000  Uiso   1.00
O702   O     0.21486   0.16216   0.68002   0.00000  Uiso   1.00
O703   O     0.21485   0.16219   0.81217   0.00000  Uiso   1.00
O704   O     0.11848   0.17115   0.68782   0.00000  Uiso   1.00
Zn705  Zn    0.10231   0.17266   0.75521   0.00000  Uiso   1.00
Zn706  Zn    0.23102   0.16067   0.74479   0.00000  Uiso   1.00
O707   O     0.23610   0.29544   0.55476   0.00000  Uiso   1.00
C708   C     0.19930   0.33105   0.57870   0.00000  Uiso   1.00
H709   H     0.15686   0.31290   0.58865   0.00000  Uiso   1.00
H710   H     0.19558   0.02998   0.55715   0.00000  Uiso   1.00
C711   C     0.22411   0.02135   0.62200   0.00000  Uiso   1.00
H712   H     0.26206   0.04701   0.61344   0.00000  Uiso   1.00
H713   H     0.19258   0.04528   0.64271   0.00000  Uiso   1.00
H714   H     0.23553   0.32370   0.64283   0.00000  Uiso   1.00
O715   O     0.12469   0.03204   0.94507   0.00000  Uiso   1.00
C716   C     0.07178   0.01884   0.92853   0.00000  Uiso   1.00
H717   H     0.05283   0.05275   0.91579   0.00000  Uiso   1.00
H718   H     0.04363   0.00218   0.95581   0.00000  Uiso   1.00
C719   C     0.07847   0.31063   0.88921   0.00000  Uiso   1.00
H720   H     0.09094   0.27388   0.90156   0.00000  Uiso   1.00
H721   H     0.03765   0.30301   0.87389   0.00000  Uiso   1.00
H722   H     0.11099   0.32393   0.86281   0.00000  Uiso   1.00
O723   O     0.20602   0.30829   0.96518   0.00000  Uiso   1.00
C724   C     0.26284   0.32656   0.95886   0.00000  Uiso   1.00
H725   H     0.28956   0.31366   0.98421   0.00000  Uiso   1.00
H726   H     0.28059   0.31212   0.92450   0.00000  Uiso   1.00
C727   C     0.26493   0.05273   0.96215   0.00000  Uiso   1.00
H728   H     0.24705   0.06646   0.93218   0.00000  Uiso   1.00
H729   H     0.24035   0.06785   0.99349   0.00000  Uiso   1.00
H730   H     0.30873   0.06929   0.96370   0.00000  Uiso   1.00
O731   O     0.10107   0.03300   0.53697   0.00000  Uiso   1.00
C732   C     0.04527   0.03235   0.55734   0.00000  Uiso   1.00
H733   H     0.01483   0.02886   0.53093   0.00000  Uiso   1.00
H734   H     0.03634   0.06799   0.58012   0.00000  Uiso   1.00
C735   C     0.03655   0.31837   0.58524   0.00000  Uiso   1.00
H736   H     0.06204   0.32420   0.61506   0.00000  Uiso   1.00
H737   H     0.32518   0.31237   0.59786   0.00000  Uiso   1.00
H738   H     0.04943   0.28270   0.56410   0.00000  Uiso   1.00
Br739  Br    0.01353   0.10153   0.69511   0.00000  Uiso   1.00
Br740  Br    0.31941   0.23170   0.80465   0.00000  Uiso   1.00
C741   C     0.51495   0.26466   0.74891   0.00000  Uiso   1.00
C742   C     0.48505   0.06867   0.75101   0.00000  Uiso   1.00
C743   C     0.53440   0.26032   0.98326   0.00000  Uiso   1.00
C744   C     0.44884   0.07984   0.51829   0.00000  Uiso   1.00
C745   C     0.52275   0.31915   0.74804   0.00000  Uiso   1.00
C746   C     0.47724   0.01417   0.75174   0.00000  Uiso   1.00
C747   C     0.50065   0.16981   0.83629   0.00000  Uiso   1.00
C748   C     0.49942   0.16409   0.66371   0.00000  Uiso   1.00
C749   C     0.47176   0.12277   0.59171   0.00000  Uiso   1.00
C750   C     0.51670   0.21601   0.90961   0.00000  Uiso   1.00
C751   C     0.49872   0.16401   0.61601   0.00000  Uiso   1.00
C752   C     0.50065   0.17055   0.88412   0.00000  Uiso   1.00
C753   C     0.52306   0.20703   0.59564   0.00000  Uiso   1.00
C754   C     0.48192   0.12541   0.90394   0.00000  Uiso   1.00
C755   C     0.51855   0.21118   0.54991   0.00000  Uiso   1.00
C756   C     0.47663   0.12503   0.95077   0.00000  Uiso   1.00
C757   C     0.49291   0.16890   0.52416   0.00000  Uiso   1.00
C758   C     0.49375   0.17036   0.97737   0.00000  Uiso   1.00
C759   C     0.46968   0.12386   0.54497   0.00000  Uiso   1.00
C760   C     0.51450   0.21617   0.95677   0.00000  Uiso   1.00
C761   C     0.53906   0.25694   0.52991   0.00000  Uiso   1.00
C762   C     0.45673   0.07934   0.97092   0.00000  Uiso   1.00
H763   H     0.45462   0.08950   0.60938   0.00000  Uiso   1.00
H764   H     0.53169   0.25041   0.89247   0.00000  Uiso   1.00
H765   H     0.54377   0.23779   0.61631   0.00000  Uiso   1.00
H766   H     0.47075   0.09102   0.88226   0.00000  Uiso   1.00
H767   H     0.56588   0.00243   0.74431   0.00000  Uiso   1.00
H768   H     0.43410   0.33088   0.75544   0.00000  Uiso   1.00
N769   N     0.65011   0.15265   0.73783   0.00000  Uiso   1.00
N770   N     0.34989   0.18068   0.76217   0.00000  Uiso   1.00
O771   O     0.46308   0.24619   0.75298   0.00000  Uiso   1.00
O772   O     0.53692   0.08714   0.74701   0.00000  Uiso   1.00
O773   O     0.55946   0.23721   0.74518   0.00000  Uiso   1.00
O774   O     0.44054   0.09613   0.75481   0.00000  Uiso   1.00
O775   O     0.45181   0.17117   0.81997   0.00000  Uiso   1.00
O776   O     0.54819   0.16216   0.68002   0.00000  Uiso   1.00
O777   O     0.54819   0.16219   0.81217   0.00000  Uiso   1.00
O778   O     0.45181   0.17115   0.68782   0.00000  Uiso   1.00
Zn779  Zn    0.43565   0.17266   0.75521   0.00000  Uiso   1.00
Zn780  Zn    0.56435   0.16067   0.74479   0.00000  Uiso   1.00
O781   O     0.56943   0.29544   0.55476   0.00000  Uiso   1.00
C782   C     0.53263   0.33105   0.57870   0.00000  Uiso   1.00
H783   H     0.49019   0.31290   0.58865   0.00000  Uiso   1.00
H784   H     0.52891   0.02998   0.55715   0.00000  Uiso   1.00
C785   C     0.55744   0.02135   0.62200   0.00000  Uiso   1.00
H786   H     0.59539   0.04701   0.61344   0.00000  Uiso   1.00
H787   H     0.52591   0.04528   0.64271   0.00000  Uiso   1.00
H788   H     0.56886   0.32370   0.64283   0.00000  Uiso   1.00
O789   O     0.45803   0.03204   0.94507   0.00000  Uiso   1.00
C790   C     0.40511   0.01884   0.92853   0.00000  Uiso   1.00
H791   H     0.38617   0.05275   0.91579   0.00000  Uiso   1.00
H792   H     0.37696   0.00218   0.95581   0.00000  Uiso   1.00
C793   C     0.41181   0.31063   0.88921   0.00000  Uiso   1.00
H794   H     0.42427   0.27388   0.90156   0.00000  Uiso   1.00
H795   H     0.37098   0.30301   0.87389   0.00000  Uiso   1.00
H796   H     0.44432   0.32393   0.86281   0.00000  Uiso   1.00
O797   O     0.53935   0.30829   0.96518   0.00000  Uiso   1.00
C798   C     0.59618   0.32656   0.95886   0.00000  Uiso   1.00
H799   H     0.62289   0.31366   0.98421   0.00000  Uiso   1.00
H800   H     0.61392   0.31212   0.92450   0.00000  Uiso   1.00
C801   C     0.59826   0.05273   0.96215   0.00000  Uiso   1.00
H802   H     0.58038   0.06646   0.93218   0.00000  Uiso   1.00
H803   H     0.57368   0.06785   0.99349   0.00000  Uiso   1.00
H804   H     0.64206   0.06929   0.96370   0.00000  Uiso   1.00
O805   O     0.43440   0.03300   0.53697   0.00000  Uiso   1.00
C806   C     0.37860   0.03235   0.55734   0.00000  Uiso   1.00
H807   H     0.34816   0.02886   0.53093   0.00000  Uiso   1.00
H808   H     0.36967   0.06799   0.58012   0.00000  Uiso   1.00
C809   C     0.36988   0.31837   0.58524   0.00000  Uiso   1.00
H810   H     0.39538   0.32420   0.61506   0.00000  Uiso   1.00
H811   H     0.65851   0.31237   0.59786   0.00000  Uiso   1.00
H812   H     0.38276   0.28270   0.56410   0.00000  Uiso   1.00
Br813  Br    0.34687   0.10153   0.69511   0.00000  Uiso   1.00
Br814  Br    0.65275   0.23170   0.80465   0.00000  Uiso   1.00
C815   C     0.84828   0.26466   0.74891   0.00000  Uiso   1.00
C816   C     0.81838   0.06867   0.75101   0.00000  Uiso   1.00
C817   C     0.86774   0.26032   0.98326   0.00000  Uiso   1.00
C818   C     0.78218   0.07984   0.51829   0.00000  Uiso   1.00
C819   C     0.85608   0.31915   0.74804   0.00000  Uiso   1.00
C820   C     0.81057   0.01417   0.75174   0.00000  Uiso   1.00
C821   C     0.83398   0.16981   0.83629   0.00000  Uiso   1.00
C822   C     0.83275   0.16409   0.66371   0.00000  Uiso   1.00
C823   C     0.80509   0.12277   0.59171   0.00000  Uiso   1.00
C824   C     0.85003   0.21601   0.90961   0.00000  Uiso   1.00
C825   C     0.83206   0.16401   0.61601   0.00000  Uiso   1.00
C826   C     0.83398   0.17055   0.88412   0.00000  Uiso   1.00
C827   C     0.85640   0.20703   0.59564   0.00000  Uiso   1.00
C828   C     0.81526   0.12541   0.90394   0.00000  Uiso   1.00
C829   C     0.85188   0.21118   0.54991   0.00000  Uiso   1.00
C830   C     0.80996   0.12503   0.95077   0.00000  Uiso   1.00
C831   C     0.82624   0.16890   0.52416   0.00000  Uiso   1.00
C832   C     0.82708   0.17036   0.97737   0.00000  Uiso   1.00
C833   C     0.80302   0.12386   0.54497   0.00000  Uiso   1.00
C834   C     0.84784   0.21617   0.95677   0.00000  Uiso   1.00
C835   C     0.87240   0.25694   0.52991   0.00000  Uiso   1.00
C836   C     0.79007   0.07934   0.97092   0.00000  Uiso   1.00
H837   H     0.78795   0.08950   0.60938   0.00000  Uiso   1.00
H838   H     0.86502   0.25041   0.89247   0.00000  Uiso   1.00
H839   H     0.87710   0.23779   0.61631   0.00000  Uiso   1.00
H840   H     0.80409   0.09102   0.88226   0.00000  Uiso   1.00
H841   H     0.89922   0.00243   0.74431   0.00000  Uiso   1.00
H842   H     0.76744   0.33088   0.75544   0.00000  Uiso   1.00
N843   N     0.98344   0.15265   0.73783   0.00000  Uiso   1.00
N844   N     0.68322   0.18068   0.76217   0.00000  Uiso   1.00
O845   O     0.79642   0.24619   0.75298   0.00000  Uiso   1.00
O846   O     0.87025   0.08714   0.74701   0.00000  Uiso   1.00
O847   O     0.89280   0.23721   0.74518   0.00000  Uiso   1.00
O848   O     0.77387   0.09613   0.75481   0.00000  Uiso   1.00
O849   O     0.78514   0.17117   0.81997   0.00000  Uiso   1.00
O850   O     0.88153   0.16216   0.68002   0.00000  Uiso   1.00
O851   O     0.88152   0.16219   0.81217   0.00000  Uiso   1.00
O852   O     0.78515   0.17115   0.68782   0.00000  Uiso   1.00
Zn853  Zn    0.76898   0.17266   0.75521   0.00000  Uiso   1.00
Zn854  Zn    0.89769   0.16067   0.74479   0.00000  Uiso   1.00
O855   O     0.90276   0.29544   0.55476   0.00000  Uiso   1.00
C856   C     0.86597   0.33105   0.57870   0.00000  Uiso   1.00
H857   H     0.82352   0.31290   0.58865   0.00000  Uiso   1.00
H858   H     0.86225   0.02998   0.55715   0.00000  Uiso   1.00
C859   C     0.89077   0.02135   0.62200   0.00000  Uiso   1.00
H860   H     0.92872   0.04701   0.61344   0.00000  Uiso   1.00
H861   H     0.85924   0.04528   0.64271   0.00000  Uiso   1.00
H862   H     0.90220   0.32370   0.64283   0.00000  Uiso   1.00
O863   O     0.79136   0.03204   0.94507   0.00000  Uiso   1.00
C864   C     0.73845   0.01884   0.92853   0.00000  Uiso   1.00
H865   H     0.71950   0.05275   0.91579   0.00000  Uiso   1.00
H866   H     0.71030   0.00218   0.95581   0.00000  Uiso   1.00
C867   C     0.74514   0.31063   0.88921   0.00000  Uiso   1.00
H868   H     0.75761   0.27388   0.90156   0.00000  Uiso   1.00
H869   H     0.70431   0.30301   0.87389   0.00000  Uiso   1.00
H870   H     0.77765   0.32393   0.86281   0.00000  Uiso   1.00
O871   O     0.87269   0.30829   0.96518   0.00000  Uiso   1.00
C872   C     0.92951   0.32656   0.95886   0.00000  Uiso   1.00
H873   H     0.95622   0.31366   0.98421   0.00000  Uiso   1.00
H874   H     0.94725   0.31212   0.92450   0.00000  Uiso   1.00
C875   C     0.93159   0.05273   0.96215   0.00000  Uiso   1.00
H876   H     0.91371   0.06646   0.93218   0.00000  Uiso   1.00
H877   H     0.90701   0.06785   0.99349   0.00000  Uiso   1.00
H878   H     0.97540   0.06929   0.96370   0.00000  Uiso   1.00
O879   O     0.76773   0.03300   0.53697   0.00000  Uiso   1.00
C880   C     0.71193   0.03235   0.55734   0.00000  Uiso   1.00
H881   H     0.68149   0.02886   0.53093   0.00000  Uiso   1.00
H882   H     0.70300   0.06799   0.58012   0.00000  Uiso   1.00
C883   C     0.70321   0.31837   0.58524   0.00000  Uiso   1.00
H884   H     0.72871   0.32420   0.61506   0.00000  Uiso   1.00
H885   H     0.99185   0.31237   0.59786   0.00000  Uiso   1.00
H886   H     0.71609   0.28270   0.56410   0.00000  Uiso   1.00
Br887  Br    0.68020   0.10153   0.69511   0.00000  Uiso   1.00
Br888  Br    0.98608   0.23170   0.80465   0.00000  Uiso   1.00
C889   C     0.18162   0.59799   0.74891   0.00000  Uiso   1.00
C890   C     0.15171   0.40200   0.75101   0.00000  Uiso   1.00
C891   C     0.20107   0.59366   0.98326   0.00000  Uiso   1.00
C892   C     0.11551   0.41318   0.51829   0.00000  Uiso   1.00
C893   C     0.18941   0.65248   0.74804   0.00000  Uiso   1.00
C894   C     0.14391   0.34750   0.75174   0.00000  Uiso   1.00
C895   C     0.16732   0.50314   0.83629   0.00000  Uiso   1.00
C896   C     0.16608   0.49742   0.66371   0.00000  Uiso   1.00
C897   C     0.13842   0.45610   0.59171   0.00000  Uiso   1.00
C898   C     0.18336   0.54934   0.90961   0.00000  Uiso   1.00
C899   C     0.16539   0.49735   0.61601   0.00000  Uiso   1.00
C900   C     0.16732   0.50389   0.88412   0.00000  Uiso   1.00
C901   C     0.18973   0.54036   0.59564   0.00000  Uiso   1.00
C902   C     0.14859   0.45874   0.90394   0.00000  Uiso   1.00
C903   C     0.18521   0.54452   0.54991   0.00000  Uiso   1.00
C904   C     0.14329   0.45836   0.95077   0.00000  Uiso   1.00
C905   C     0.15958   0.50223   0.52416   0.00000  Uiso   1.00
C906   C     0.16041   0.50369   0.97737   0.00000  Uiso   1.00
C907   C     0.13635   0.45720   0.54497   0.00000  Uiso   1.00
C908   C     0.18117   0.54950   0.95677   0.00000  Uiso   1.00
C909   C     0.20573   0.59027   0.52991   0.00000  Uiso   1.00
C910   C     0.12340   0.41268   0.97092   0.00000  Uiso   1.00
H911   H     0.12129   0.42283   0.60938   0.00000  Uiso   1.00
H912   H     0.19835   0.58375   0.89247   0.00000  Uiso   1.00
H913   H     0.21044   0.57113   0.61631   0.00000  Uiso   1.00
H914   H     0.13742   0.42435   0.88226   0.00000  Uiso   1.00
H915   H     0.23255   0.33576   0.74431   0.00000  Uiso   1.00
H916   H     0.10077   0.66422   0.75544   0.00000  Uiso   1.00
N917   N     0.31678   0.48598   0.73783   0.00000  Uiso   1.00
N918   N     0.01656   0.51402   0.76217   0.00000  Uiso   1.00
O919   O     0.12975   0.57952   0.75298   0.00000  Uiso   1.00
O920   O     0.20358   0.42048   0.74701   0.00000  Uiso   1.00
O921   O     0.22613   0.57054   0.74518   0.00000  Uiso   1.00
O922   O     0.10720   0.42946   0.75481   0.00000  Uiso   1.00
O923   O     0.11847   0.50450   0.81997   0.00000  Uiso   1.00
O924   O     0.21486   0.49550   0.68002   0.00000  Uiso   1.00
O925   O     0.21485   0.49552   0.81217   0.00000  Uiso   1.00
O926   O     0.11848   0.50448   0.68782   0.00000  Uiso   1.00
Zn927  Zn    0.10231   0.50600   0.75521   0.00000  Uiso   1.00
Zn928  Zn    0.23102   0.49400   0.74479   0.00000  Uiso   1.00
O929   O     0.23610   0.62877   0.55476   0.00000  Uiso   1.00
C930   C     0.19930   0.66438   0.57870   0.00000  Uiso   1.00
H931   H     0.15686   0.64623   0.58865   0.00000  Uiso   1.00
H932   H     0.19558   0.36331   0.55715   0.00000  Uiso   1.00
C933   C     0.22411   0.35469   0.62200   0.00000  Uiso   1.00
H934   H     0.26206   0.38035   0.61344   0.00000  Uiso   1.00
H935   H     0.19258   0.37861   0.64271   0.00000  Uiso   1.00
H936   H     0.23553   0.65703   0.64283   0.00000  Uiso   1.00
O937   O     0.12469   0.36538   0.94507   0.00000  Uiso   1.00
C938   C     0.07178   0.35217   0.92853   0.00000  Uiso   1.00
H939   H     0.05283   0.38608   0.91579   0.00000  Uiso   1.00
H940   H     0.04363   0.33551   0.95581   0.00000  Uiso   1.00
C941   C     0.07847   0.64396   0.88921   0.00000  Uiso   1.00
H942   H     0.09094   0.60722   0.90156   0.00000  Uiso   1.00
H943   H     0.03765   0.63634   0.87389   0.00000  Uiso   1.00
H944   H     0.11099   0.65726   0.86281   0.00000  Uiso   1.00
O945   O     0.20602   0.64163   0.96518   0.00000  Uiso   1.00
C946   C     0.26284   0.65990   0.95886   0.00000  Uiso   1.00
H947   H     0.28956   0.64699   0.98421   0.00000  Uiso   1.00
H948   H     0.28059   0.64545   0.92450   0.00000  Uiso   1.00
C949   C     0.26493   0.38606   0.96215   0.00000  Uiso   1.00
H950   H     0.24705   0.39979   0.93218   0.00000  Uiso   1.00
H951   H     0.24035   0.40118   0.99349   0.00000  Uiso   1.00
H952   H     0.30873   0.40262   0.96370   0.00000  Uiso   1.00
O953   O     0.10107   0.36634   0.53697   0.00000  Uiso   1.00
C954   C     0.04527   0.36569   0.55734   0.00000  Uiso   1.00
H955   H     0.01483   0.36219   0.53093   0.00000  Uiso   1.00
H956   H     0.03634   0.40132   0.58012   0.00000  Uiso   1.00
C957   C     0.03655   0.65170   0.58524   0.00000  Uiso   1.00
H958   H     0.06204   0.65753   0.61506   0.00000  Uiso   1.00
H959   H     0.32518   0.64570   0.59786   0.00000  Uiso   1.00
H960   H     0.04943   0.61604   0.56410   0.00000  Uiso   1.00
Br961  Br    0.01353   0.43486   0.69511   0.00000  Uiso   1.00
Br962  Br    0.31941   0.56503   0.80465   0.00000  Uiso   1.00
C963   C     0.51495   0.59799   0.74891   0.00000  Uiso   1.00
C964   C     0.48505   0.40200   0.75101   0.00000  Uiso   1.00
C965   C     0.53440   0.59366   0.98326   0.00000  Uiso   1.00
C966   C     0.44884   0.41318   0.51829   0.00000  Uiso   1.00
C967   C     0.52275   0.65248   0.74804   0.00000  Uiso   1.00
C968   C     0.47724   0.34750   0.75174   0.00000  Uiso   1.00
C969   C     0.50065   0.50314   0.83629   0.00000  Uiso   1.00
C970   C     0.49942   0.49742   0.66371   0.00000  Uiso   1.00
C971   C     0.47176   0.45610   0.59171   0.00000  Uiso   1.00
C972   C     0.51670   0.54934   0.90961   0.00000  Uiso   1.00
C973   C     0.49872   0.49735   0.61601   0.00000  Uiso   1.00
C974   C     0.50065   0.50389   0.88412   0.00000  Uiso   1.00
C975   C     0.52306   0.54036   0.59564   0.00000  Uiso   1.00
C976   C     0.48192   0.45874   0.90394   0.00000  Uiso   1.00
C977   C     0.51855   0.54452   0.54991   0.00000  Uiso   1.00
C978   C     0.47663   0.45836   0.95077   0.00000  Uiso   1.00
C979   C     0.49291   0.50223   0.52416   0.00000  Uiso   1.00
C980   C     0.49375   0.50369   0.97737   0.00000  Uiso   1.00
C981   C     0.46968   0.45720   0.54497   0.00000  Uiso   1.00
C982   C     0.51450   0.54950   0.95677   0.00000  Uiso   1.00
C983   C     0.53906   0.59027   0.52991   0.00000  Uiso   1.00
C984   C     0.45673   0.41268   0.97092   0.00000  Uiso   1.00
H985   H     0.45462   0.42283   0.60938   0.00000  Uiso   1.00
H986   H     0.53169   0.58375   0.89247   0.00000  Uiso   1.00
H987   H     0.54377   0.57113   0.61631   0.00000  Uiso   1.00
H988   H     0.47075   0.42435   0.88226   0.00000  Uiso   1.00
H989   H     0.56588   0.33576   0.74431   0.00000  Uiso   1.00
H990   H     0.43410   0.66422   0.75544   0.00000  Uiso   1.00
N991   N     0.65011   0.48598   0.73783   0.00000  Uiso   1.00
N992   N     0.34989   0.51402   0.76217   0.00000  Uiso   1.00
O993   O     0.46308   0.57952   0.75298   0.00000  Uiso   1.00
O994   O     0.53692   0.42048   0.74701   0.00000  Uiso   1.00
O995   O     0.55946   0.57054   0.74518   0.00000  Uiso   1.00
O996   O     0.44054   0.42946   0.75481   0.00000  Uiso   1.00
O997   O     0.45181   0.50450   0.81997   0.00000  Uiso   1.00
O998   O     0.54819   0.49550   0.68002   0.00000  Uiso   1.00
O999   O     0.54819   0.49552   0.81217   0.00000  Uiso   1.00
O1000  O     0.45181   0.50448   0.68782   0.00000  Uiso   1.00
Zn1001 Zn    0.43565   0.50600   0.75521   0.00000  Uiso   1.00
Zn1002 Zn    0.56435   0.49400   0.74479   0.00000  Uiso   1.00
O1003  O     0.56943   0.62877   0.55476   0.00000  Uiso   1.00
C1004  C     0.53263   0.66438   0.57870   0.00000  Uiso   1.00
H1005  H     0.49019   0.64623   0.58865   0.00000  Uiso   1.00
H1006  H     0.52891   0.36331   0.55715   0.00000  Uiso   1.00
C1007  C     0.55744   0.35469   0.62200   0.00000  Uiso   1.00
H1008  H     0.59539   0.38035   0.61344   0.00000  Uiso   1.00
H1009  H     0.52591   0.37861   0.64271   0.00000  Uiso   1.00
H1010  H     0.56886   0.65703   0.64283   0.00000  Uiso   1.00
O1011  O     0.45803   0.36538   0.94507   0.00000  Uiso   1.00
C1012  C     0.40511   0.35217   0.92853   0.00000  Uiso   1.00
H1013  H     0.38617   0.38608   0.91579   0.00000  Uiso   1.00
H1014  H     0.37696   0.33551   0.95581   0.00000  Uiso   1.00
C1015  C     0.41181   0.64396   0.88921   0.00000  Uiso   1.00
H1016  H     0.42427   0.60722   0.90156   0.00000  Uiso   1.00
H1017  H     0.37098   0.63634   0.87389   0.00000  Uiso   1.00
H1018  H     0.44432   0.65726   0.86281   0.00000  Uiso   1.00
O1019  O     0.53935   0.64163   0.96518   0.00000  Uiso   1.00
C1020  C     0.59618   0.65990   0.95886   0.00000  Uiso   1.00
H1021  H     0.62289   0.64699   0.98421   0.00000  Uiso   1.00
H1022  H     0.61392   0.64545   0.92450   0.00000  Uiso   1.00
C1023  C     0.59826   0.38606   0.96215   0.00000  Uiso   1.00
H1024  H     0.58038   0.39979   0.93218   0.00000  Uiso   1.00
H1025  H     0.57368   0.40118   0.99349   0.00000  Uiso   1.00
H1026  H     0.64206   0.40262   0.96370   0.00000  Uiso   1.00
O1027  O     0.43440   0.36634   0.53697   0.00000  Uiso   1.00
C1028  C     0.37860   0.36569   0.55734   0.00000  Uiso   1.00
H1029  H     0.34816   0.36219   0.53093   0.00000  Uiso   1.00
H1030  H     0.36967   0.40132   0.58012   0.00000  Uiso   1.00
C1031  C     0.36988   0.65170   0.58524   0.00000  Uiso   1.00
H1032  H     0.39538   0.65753   0.61506   0.00000  Uiso   1.00
H1033  H     0.65851   0.64570   0.59786   0.00000  Uiso   1.00
H1034  H     0.38276   0.61604   0.56410   0.00000  Uiso   1.00
Br1035 Br    0.34687   0.43486   0.69511   0.00000  Uiso   1.00
Br1036 Br    0.65275   0.56503   0.80465   0.00000  Uiso   1.00
C1037  C     0.84828   0.59799   0.74891   0.00000  Uiso   1.00
C1038  C     0.81838   0.40200   0.75101   0.00000  Uiso   1.00
C1039  C     0.86774   0.59366   0.98326   0.00000  Uiso   1.00
C1040  C     0.78218   0.41318   0.51829   0.00000  Uiso   1.00
C1041  C     0.85608   0.65248   0.74804   0.00000  Uiso   1.00
C1042  C     0.81057   0.34750   0.75174   0.00000  Uiso   1.00
C1043  C     0.83398   0.50314   0.83629   0.00000  Uiso   1.00
C1044  C     0.83275   0.49742   0.66371   0.00000  Uiso   1.00
C1045  C     0.80509   0.45610   0.59171   0.00000  Uiso   1.00
C1046  C     0.85003   0.54934   0.90961   0.00000  Uiso   1.00
C1047  C     0.83206   0.49735   0.61601   0.00000  Uiso   1.00
C1048  C     0.83398   0.50389   0.88412   0.00000  Uiso   1.00
C1049  C     0.85640   0.54036   0.59564   0.00000  Uiso   1.00
C1050  C     0.81526   0.45874   0.90394   0.00000  Uiso   1.00
C1051  C     0.85188   0.54452   0.54991   0.00000  Uiso   1.00
C1052  C     0.80996   0.45836   0.95077   0.00000  Uiso   1.00
C1053  C     0.82624   0.50223   0.52416   0.00000  Uiso   1.00
C1054  C     0.82708   0.50369   0.97737   0.00000  Uiso   1.00
C1055  C     0.80302   0.45720   0.54497   0.00000  Uiso   1.00
C1056  C     0.84784   0.54950   0.95677   0.00000  Uiso   1.00
C1057  C     0.87240   0.59027   0.52991   0.00000  Uiso   1.00
C1058  C     0.79007   0.41268   0.97092   0.00000  Uiso   1.00
H1059  H     0.78795   0.42283   0.60938   0.00000  Uiso   1.00
H1060  H     0.86502   0.58375   0.89247   0.00000  Uiso   1.00
H1061  H     0.87710   0.57113   0.61631   0.00000  Uiso   1.00
H1062  H     0.80409   0.42435   0.88226   0.00000  Uiso   1.00
H1063  H     0.89922   0.33576   0.74431   0.00000  Uiso   1.00
H1064  H     0.76744   0.66422   0.75544   0.00000  Uiso   1.00
N1065  N     0.98344   0.48598   0.73783   0.00000  Uiso   1.00
N1066  N     0.68322   0.51402   0.76217   0.00000  Uiso   1.00
O1067  O     0.79642   0.57952   0.75298   0.00000  Uiso   1.00
O1068  O     0.87025   0.42048   0.74701   0.00000  Uiso   1.00
O1069  O     0.89280   0.57054   0.74518   0.00000  Uiso   1.00
O1070  O     0.77387   0.42946   0.75481   0.00000  Uiso   1.00
O1071  O     0.78514   0.50450   0.81997   0.00000  Uiso   1.00
O1072  O     0.88153   0.49550   0.68002   0.00000  Uiso   1.00
O1073  O     0.88152   0.49552   0.81217   0.00000  Uiso   1.00
O1074  O     0.78515   0.50448   0.68782   0.00000  Uiso   1.00
Zn1075 Zn    0.76898   0.50600   0.75521   0.00000  Uiso   1.00
Zn1076 Zn    0.89769   0.49400   0.74479   0.00000  Uiso   1.00
O1077  O     0.90276   0.62877   0.55476   0.00000  Uiso   1.00
C1078  C     0.86597   0.66438   0.57870   0.00000  Uiso   1.00
H1079  H     0.82352   0.64623   0.58865   0.00000  Uiso   1.00
H1080  H     0.86225   0.36331   0.55715   0.00000  Uiso   1.00
C1081  C     0.89077   0.35469   0.62200   0.00000  Uiso   1.00
H1082  H     0.92872   0.38035   0.61344   0.00000  Uiso   1.00
H1083  H     0.85924   0.37861   0.64271   0.00000  Uiso   1.00
H1084  H     0.90220   0.65703   0.64283   0.00000  Uiso   1.00
O1085  O     0.79136   0.36538   0.94507   0.00000  Uiso   1.00
C1086  C     0.73845   0.35217   0.92853   0.00000  Uiso   1.00
H1087  H     0.71950   0.38608   0.91579   0.00000  Uiso   1.00
H1088  H     0.71030   0.33551   0.95581   0.00000  Uiso   1.00
C1089  C     0.74514   0.64396   0.88921   0.00000  Uiso   1.00
H1090  H     0.75761   0.60722   0.90156   0.00000  Uiso   1.00
H1091  H     0.70431   0.63634   0.87389   0.00000  Uiso   1.00
H1092  H     0.77765   0.65726   0.86281   0.00000  Uiso   1.00
O1093  O     0.87269   0.64163   0.96518   0.00000  Uiso   1.00
C1094  C     0.92951   0.65990   0.95886   0.00000  Uiso   1.00
H1095  H     0.95622   0.64699   0.98421   0.00000  Uiso   1.00
H1096  H     0.94725   0.64545   0.92450   0.00000  Uiso   1.00
C1097  C     0.93159   0.38606   0.96215   0.00000  Uiso   1.00
H1098  H     0.91371   0.39979   0.93218   0.00000  Uiso   1.00
H1099  H     0.90701   0.40118   0.99349   0.00000  Uiso   1.00
H1100  H     0.97540   0.40262   0.96370   0.00000  Uiso   1.00
O1101  O     0.76773   0.36634   0.53697   0.00000  Uiso   1.00
C1102  C     0.71193   0.36569   0.55734   0.00000  Uiso   1.00
H1103  H     0.68149   0.36219   0.53093   0.00000  Uiso   1.00
H1104  H     0.70300   0.40132   0.58012   0.00000  Uiso   1.00
C1105  C     0.70321   0.65170   0.58524   0.00000  Uiso   1.00
H1106  H     0.72871   0.65753   0.61506   0.00000  Uiso   1.00
H1107  H     0.99185   0.64570   0.59786   0.00000  Uiso   1.00
H1108  H     0.71609   0.61604   0.56410   0.00000  Uiso   1.00
Br1109 Br    0.68020   0.43486   0.69511   0.00000  Uiso   1.00
Br1110 Br    0.98608   0.56503   0.80465   0.00000  Uiso   1.00
C1111  C     0.18162   0.93133   0.74891   0.00000  Uiso   1.00
C1112  C     0.15171   0.73533   0.75101   0.00000  Uiso   1.00
C1113  C     0.20107   0.92699   0.98326   0.00000  Uiso   1.00
C1114  C     0.11551   0.74651   0.51829   0.00000  Uiso   1.00
C1115  C     0.18941   0.98581   0.74804   0.00000  Uiso   1.00
C1116  C     0.14391   0.68083   0.75174   0.00000  Uiso   1.00
C1117  C     0.16732   0.83647   0.83629   0.00000  Uiso   1.00
C1118  C     0.16608   0.83075   0.66371   0.00000  Uiso   1.00
C1119  C     0.13842   0.78944   0.59171   0.00000  Uiso   1.00
C1120  C     0.18336   0.88268   0.90961   0.00000  Uiso   1.00
C1121  C     0.16539   0.83068   0.61601   0.00000  Uiso   1.00
C1122  C     0.16732   0.83722   0.88412   0.00000  Uiso   1.00
C1123  C     0.18973   0.87370   0.59564   0.00000  Uiso   1.00
C1124  C     0.14859   0.79207   0.90394   0.00000  Uiso   1.00
C1125  C     0.18521   0.87785   0.54991   0.00000  Uiso   1.00
C1126  C     0.14329   0.79169   0.95077   0.00000  Uiso   1.00
C1127  C     0.15958   0.83556   0.52416   0.00000  Uiso   1.00
C1128  C     0.16041   0.83702   0.97737   0.00000  Uiso   1.00
C1129  C     0.13635   0.79053   0.54497   0.00000  Uiso   1.00
C1130  C     0.18117   0.88283   0.95677   0.00000  Uiso   1.00
C1131  C     0.20573   0.92361   0.52991   0.00000  Uiso   1.00
C1132  C     0.12340   0.74601   0.97092   0.00000  Uiso   1.00
H1133  H     0.12129   0.75616   0.60938   0.00000  Uiso   1.00
H1134  H     0.19835   0.91708   0.89247   0.00000  Uiso   1.00
H1135  H     0.21044   0.90446   0.61631   0.00000  Uiso   1.00
H1136  H     0.13742   0.75769   0.88226   0.00000  Uiso   1.00
H1137  H     0.23255   0.66910   0.74431   0.00000  Uiso   1.00
H1138  H     0.10077   0.99755   0.75544   0.00000  Uiso   1.00
N1139  N     0.31678   0.81932   0.73783   0.00000  Uiso   1.00
N1140  N     0.01656   0.84735   0.76217   0.00000  Uiso   1.00
O1141  O     0.12975   0.91286   0.75298   0.00000  Uiso   1.00
O1142  O     0.20358   0.75381   0.74701   0.00000  Uiso   1.00
O1143  O     0.22613   0.90387   0.74518   0.00000  Uiso   1.00
O1144  O     0.10720   0.76279   0.75481   0.00000  Uiso   1.00
O1145  O     0.11847   0.83784   0.81997   0.00000  Uiso   1.00
O1146  O     0.21486   0.82883   0.68002   0.00000  Uiso   1.00
O1147  O     0.21485   0.82885   0.81217   0.00000  Uiso   1.00
O1148  O     0.11848   0.83781   0.68782   0.00000  Uiso   1.00
Zn1149 Zn    0.10231   0.83933   0.75521   0.00000  Uiso   1.00
Zn1150 Zn    0.23102   0.82734   0.74479   0.00000  Uiso   1.00
O1151  O     0.23610   0.96211   0.55476   0.00000  Uiso   1.00
C1152  C     0.19930   0.99771   0.57870   0.00000  Uiso   1.00
H1153  H     0.15686   0.97957   0.58865   0.00000  Uiso   1.00
H1154  H     0.19558   0.69665   0.55715   0.00000  Uiso   1.00
C1155  C     0.22411   0.68802   0.62200   0.00000  Uiso   1.00
H1156  H     0.26206   0.71368   0.61344   0.00000  Uiso   1.00
H1157  H     0.19258   0.71194   0.64271   0.00000  Uiso   1.00
H1158  H     0.23553   0.99037   0.64283   0.00000  Uiso   1.00
O1159  O     0.12469   0.69871   0.94507   0.00000  Uiso   1.00
C1160  C     0.07178   0.68550   0.92853   0.00000  Uiso   1.00
H1161  H     0.05283   0.71942   0.91579   0.00000  Uiso   1.00
H1162  H     0.04363   0.66885   0.95581   0.00000  Uiso   1.00
C1163  C     0.07847   0.97729   0.88921   0.00000  Uiso   1.00
H1164  H     0.09094   0.94055   0.90156   0.00000  Uiso   1.00
H1165  H     0.03765   0.96967   0.87389   0.00000  Uiso   1.00
H1166  H     0.11099   0.99060   0.86281   0.00000  Uiso   1.00
O1167  O     0.20602   0.97496   0.96518   0.00000  Uiso   1.00
C1168  C     0.26284   0.99323   0.95886   0.00000  Uiso   1.00
H1169  H     0.28956   0.98032   0.98421   0.00000  Uiso   1.00
H1170  H     0.28059   0.97879   0.92450   0.00000  Uiso   1.00
C1171  C     0.26493   0.71939   0.96215   0.00000  Uiso   1.00
H1172  H     0.24705   0.73313   0.93218   0.00000  Uiso   1.00
H1173  H     0.24035   0.73452   0.99349   0.00000  Uiso   1.00
H1174  H     0.30873   0.73596   0.96370   0.00000  Uiso   1.00
O1175  O     0.10107   0.69967   0.53697   0.00000  Uiso   1.00
C1176  C     0.04527   0.69902   0.55734   0.00000  Uiso   1.00
H1177  H     0.01483   0.69552   0.53093   0.00000  Uiso   1.00
H1178  H     0.03634   0.73466   0.58012   0.00000  Uiso   1.00
C1179  C     0.03655   0.98504   0.58524   0.00000  Uiso   1.00
H1180  H     0.06204   0.99087   0.61506   0.00000  Uiso   1.00
H1181  H     0.32518   0.97904   0.59786   0.00000  Uiso   1.00
H1182  H     0.04943   0.94937   0.56410   0.00000  Uiso   1.00
Br1183 Br    0.01353   0.76820   0.69511   0.00000  Uiso   1.00
Br1184 Br    0.31941   0.89836   0.80465   0.00000  Uiso   1.00
C1185  C     0.51495   0.93133   0.74891   0.00000  Uiso   1.00
C1186  C     0.48505   0.73533   0.75101   0.00000  Uiso   1.00
C1187  C     0.53440   0.92699   0.98326   0.00000  Uiso   1.00
C1188  C     0.44884   0.74651   0.51829   0.00000  Uiso   1.00
C1189  C     0.52275   0.98581   0.74804   0.00000  Uiso   1.00
C1190  C     0.47724   0.68083   0.75174   0.00000  Uiso   1.00
C1191  C     0.50065   0.83647   0.83629   0.00000  Uiso   1.00
C1192  C     0.49942   0.83075   0.66371   0.00000  Uiso   1.00
C1193  C     0.47176   0.78944   0.59171   0.00000  Uiso   1.00
C1194  C     0.51670   0.88268   0.90961   0.00000  Uiso   1.00
C1195  C     0.49872   0.83068   0.61601   0.00000  Uiso   1.00
C1196  C     0.50065   0.83722   0.88412   0.00000  Uiso   1.00
C1197  C     0.52306   0.87370   0.59564   0.00000  Uiso   1.00
C1198  C     0.48192   0.79207   0.90394   0.00000  Uiso   1.00
C1199  C     0.51855   0.87785   0.54991   0.00000  Uiso   1.00
C1200  C     0.47663   0.79169   0.95077   0.00000  Uiso   1.00
C1201  C     0.49291   0.83556   0.52416   0.00000  Uiso   1.00
C1202  C     0.49375   0.83702   0.97737   0.00000  Uiso   1.00
C1203  C     0.46968   0.79053   0.54497   0.00000  Uiso   1.00
C1204  C     0.51450   0.88283   0.95677   0.00000  Uiso   1.00
C1205  C     0.53906   0.92361   0.52991   0.00000  Uiso   1.00
C1206  C     0.45673   0.74601   0.97092   0.00000  Uiso   1.00
H1207  H     0.45462   0.75616   0.60938   0.00000  Uiso   1.00
H1208  H     0.53169   0.91708   0.89247   0.00000  Uiso   1.00
H1209  H     0.54377   0.90446   0.61631   0.00000  Uiso   1.00
H1210  H     0.47075   0.75769   0.88226   0.00000  Uiso   1.00
H1211  H     0.56588   0.66910   0.74431   0.00000  Uiso   1.00
H1212  H     0.43410   0.99755   0.75544   0.00000  Uiso   1.00
N1213  N     0.65011   0.81932   0.73783   0.00000  Uiso   1.00
N1214  N     0.34989   0.84735   0.76217   0.00000  Uiso   1.00
O1215  O     0.46308   0.91286   0.75298   0.00000  Uiso   1.00
O1216  O     0.53692   0.75381   0.74701   0.00000  Uiso   1.00
O1217  O     0.55946   0.90387   0.74518   0.00000  Uiso   1.00
O1218  O     0.44054   0.76279   0.75481   0.00000  Uiso   1.00
O1219  O     0.45181   0.83784   0.81997   0.00000  Uiso   1.00
O1220  O     0.54819   0.82883   0.68002   0.00000  Uiso   1.00
O1221  O     0.54819   0.82885   0.81217   0.00000  Uiso   1.00
O1222  O     0.45181   0.83781   0.68782   0.00000  Uiso   1.00
Zn1223 Zn    0.43565   0.83933   0.75521   0.00000  Uiso   1.00
Zn1224 Zn    0.56435   0.82734   0.74479   0.00000  Uiso   1.00
O1225  O     0.56943   0.96211   0.55476   0.00000  Uiso   1.00
C1226  C     0.53263   0.99771   0.57870   0.00000  Uiso   1.00
H1227  H     0.49019   0.97957   0.58865   0.00000  Uiso   1.00
H1228  H     0.52891   0.69665   0.55715   0.00000  Uiso   1.00
C1229  C     0.55744   0.68802   0.62200   0.00000  Uiso   1.00
H1230  H     0.59539   0.71368   0.61344   0.00000  Uiso   1.00
H1231  H     0.52591   0.71194   0.64271   0.00000  Uiso   1.00
H1232  H     0.56886   0.99037   0.64283   0.00000  Uiso   1.00
O1233  O     0.45803   0.69871   0.94507   0.00000  Uiso   1.00
C1234  C     0.40511   0.68550   0.92853   0.00000  Uiso   1.00
H1235  H     0.38617   0.71942   0.91579   0.00000  Uiso   1.00
H1236  H     0.37696   0.66885   0.95581   0.00000  Uiso   1.00
C1237  C     0.41181   0.97729   0.88921   0.00000  Uiso   1.00
H1238  H     0.42427   0.94055   0.90156   0.00000  Uiso   1.00
H1239  H     0.37098   0.96967   0.87389   0.00000  Uiso   1.00
H1240  H     0.44432   0.99060   0.86281   0.00000  Uiso   1.00
O1241  O     0.53935   0.97496   0.96518   0.00000  Uiso   1.00
C1242  C     0.59618   0.99323   0.95886   0.00000  Uiso   1.00
H1243  H     0.62289   0.98032   0.98421   0.00000  Uiso   1.00
H1244  H     0.61392   0.97879   0.92450   0.00000  Uiso   1.00
C1245  C     0.59826   0.71939   0.96215   0.00000  Uiso   1.00
H1246  H     0.58038   0.73313   0.93218   0.00000  Uiso   1.00
H1247  H     0.57368   0.73452   0.99349   0.00000  Uiso   1.00
H1248  H     0.64206   0.73596   0.96370   0.00000  Uiso   1.00
O1249  O     0.43440   0.69967   0.53697   0.00000  Uiso   1.00
C1250  C     0.37860   0.69902   0.55734   0.00000  Uiso   1.00
H1251  H     0.34816   0.69552   0.53093   0.00000  Uiso   1.00
H1252  H     0.36967   0.73466   0.58012   0.00000  Uiso   1.00
C1253  C     0.36988   0.98504   0.58524   0.00000  Uiso   1.00
H1254  H     0.39538   0.99087   0.61506   0.00000  Uiso   1.00
H1255  H     0.65851   0.97904   0.59786   0.00000  Uiso   1.00
H1256  H     0.38276   0.94937   0.56410   0.00000  Uiso   1.00
Br1257 Br    0.34687   0.76820   0.69511   0.00000  Uiso   1.00
Br1258 Br    0.65275   0.89836   0.80465   0.00000  Uiso   1.00
C1259  C     0.84828   0.93133   0.74891   0.00000  Uiso   1.00
C1260  C     0.81838   0.73533   0.75101   0.00000  Uiso   1.00
C1261  C     0.86774   0.92699   0.98326   0.00000  Uiso   1.00
C1262  C     0.78218   0.74651   0.51829   0.00000  Uiso   1.00
C1263  C     0.85608   0.98581   0.74804   0.00000  Uiso   1.00
C1264  C     0.81057   0.68083   0.75174   0.00000  Uiso   1.00
C1265  C     0.83398   0.83647   0.83629   0.00000  Uiso   1.00
C1266  C     0.83275   0.83075   0.66371   0.00000  Uiso   1.00
C1267  C     0.80509   0.78944   0.59171   0.00000  Uiso   1.00
C1268  C     0.85003   0.88268   0.90961   0.00000  Uiso   1.00
C1269  C     0.83206   0.83068   0.61601   0.00000  Uiso   1.00
C1270  C     0.83398   0.83722   0.88412   0.00000  Uiso   1.00
C1271  C     0.85640   0.87370   0.59564   0.00000  Uiso   1.00
C1272  C     0.81526   0.79207   0.90394   0.00000  Uiso   1.00
C1273  C     0.85188   0.87785   0.54991   0.00000  Uiso   1.00
C1274  C     0.80996   0.79169   0.95077   0.00000  Uiso   1.00
C1275  C     0.82624   0.83556   0.52416   0.00000  Uiso   1.00
C1276  C     0.82708   0.83702   0.97737   0.00000  Uiso   1.00
C1277  C     0.80302   0.79053   0.54497   0.00000  Uiso   1.00
C1278  C     0.84784   0.88283   0.95677   0.00000  Uiso   1.00
C1279  C     0.87240   0.92361   0.52991   0.00000  Uiso   1.00
C1280  C     0.79007   0.74601   0.97092   0.00000  Uiso   1.00
H1281  H     0.78795   0.75616   0.60938   0.00000  Uiso   1.00
H1282  H     0.86502   0.91708   0.89247   0.00000  Uiso   1.00
H1283  H     0.87710   0.90446   0.61631   0.00000  Uiso   1.00
H1284  H     0.80409   0.75769   0.88226   0.00000  Uiso   1.00
H1285  H     0.89922   0.66910   0.74431   0.00000  Uiso   1.00
H1286  H     0.76744   0.99755   0.75544   0.00000  Uiso   1.00
N1287  N     0.98344   0.81932   0.73783   0.00000  Uiso   1.00
N1288  N     0.68322   0.84735   0.76217   0.00000  Uiso   1.00
O1289  O     0.79642   0.91286   0.75298   0.00000  Uiso   1.00
O1290  O     0.87025   0.75381   0.74701   0.00000  Uiso   1.00
O1291  O     0.89280   0.90387   0.74518   0.00000  Uiso   1.00
O1292  O     0.77387   0.76279   0.75481   0.00000  Uiso   1.00
O1293  O     0.78514   0.83784   0.81997   0.00000  Uiso   1.00
O1294  O     0.88153   0.82883   0.68002   0.00000  Uiso   1.00
O1295  O     0.88152   0.82885   0.81217   0.00000  Uiso   1.00
O1296  O     0.78515   0.83781   0.68782   0.00000  Uiso   1.00
Zn1297 Zn    0.76898   0.83933   0.75521   0.00000  Uiso   1.00
Zn1298 Zn    0.89769   0.82734   0.74479   0.00000  Uiso   1.00
O1299  O     0.90276   0.96211   0.55476   0.00000  Uiso   1.00
C1300  C     0.86597   0.99771   0.57870   0.00000  Uiso   1.00
H1301  H     0.82352   0.97957   0.58865   0.00000  Uiso   1.00
H1302  H     0.86225   0.69665   0.55715   0.00000  Uiso   1.00
C1303  C     0.89077   0.68802   0.62200   0.00000  Uiso   1.00
H1304  H     0.92872   0.71368   0.61344   0.00000  Uiso   1.00
H1305  H     0.85924   0.71194   0.64271   0.00000  Uiso   1.00
H1306  H     0.90220   0.99037   0.64283   0.00000  Uiso   1.00
O1307  O     0.79136   0.69871   0.94507   0.00000  Uiso   1.00
C1308  C     0.73845   0.68550   0.92853   0.00000  Uiso   1.00
H1309  H     0.71950   0.71942   0.91579   0.00000  Uiso   1.00
H1310  H     0.71030   0.66885   0.95581   0.00000  Uiso   1.00
C1311  C     0.74514   0.97729   0.88921   0.00000  Uiso   1.00
H1312  H     0.75761   0.94055   0.90156   0.00000  Uiso   1.00
H1313  H     0.70431   0.96967   0.87389   0.00000  Uiso   1.00
H1314  H     0.77765   0.99060   0.86281   0.00000  Uiso   1.00
O1315  O     0.87269   0.97496   0.96518   0.00000  Uiso   1.00
C1316  C     0.92951   0.99323   0.95886   0.00000  Uiso   1.00
H1317  H     0.95622   0.98032   0.98421   0.00000  Uiso   1.00
H1318  H     0.94725   0.97879   0.92450   0.00000  Uiso   1.00
C1319  C     0.93159   0.71939   0.96215   0.00000  Uiso   1.00
H1320  H     0.91371   0.73313   0.93218   0.00000  Uiso   1.00
H1321  H     0.90701   0.73452   0.99349   0.00000  Uiso   1.00
H1322  H     0.97540   0.73596   0.96370   0.00000  Uiso   1.00
O1323  O     0.76773   0.69967   0.53697   0.00000  Uiso   1.00
C1324  C     0.71193   0.69902   0.55734   0.00000  Uiso   1.00
H1325  H     0.68149   0.69552   0.53093   0.00000  Uiso   1.00
H1326  H     0.70300   0.73466   0.58012   0.00000  Uiso   1.00
C1327  C     0.70321   0.98504   0.58524   0.00000  Uiso   1.00
H1328  H     0.72871   0.99087   0.61506   0.00000  Uiso   1.00
H1329  H     0.99185   0.97904   0.59786   0.00000  Uiso   1.00
H1330  H     0.71609   0.94937   0.56410   0.00000  Uiso   1.00
Br1331 Br    0.68020   0.76820   0.69511   0.00000  Uiso   1.00
Br1332 Br    0.98608   0.89836   0.80465   0.00000  Uiso   1.00
loop_
_geom_bond_atom_site_label_1
_geom_bond_atom_site_label_2
_geom_bond_distance
_geom_bond_site_symmetry_2
_ccdc_geom_bond_type
C1     O31     1.295   .     A
C1     O33     1.300   .     A
C1     C5      1.407   .     S
C2     O34     1.300   .     A
C2     C6      1.407   .     S
C2     O32     1.295   .     A
C3     C20     1.409   .     A
C3     O57     1.382   .     S
C3     C687    1.407   .     S
C4     O65     1.382   .     S
C4     C19     1.417   .     A
C4     C688    1.399   1_554 S
C5     C228    1.334   .     S
C5     H249    1.088   .     S
C6     C449    1.334   1_545 S
C6     H472    1.088   1_545 S
C7     O37     1.300   .     A
C7     C12     1.416   .     S
C7     O35     1.301   .     A
C8     O38     1.299   .     A
C8     C11     1.415   .     S
C8     O36     1.301   .     A
C9     C11     1.389   .     A
C9     H23     1.082   .     S
C9     C19     1.393   .     A
C10    C12     1.392   .     A
C10    H24     1.085   .     S
C10    C20     1.394   .     A
C11    C13     1.379   .     A
C12    C14     1.379   .     A
C13    C15     1.382   .     A
C13    H25     1.082   .     S
C14    H26     1.084   .     S
C14    C16     1.383   .     A
C15    C17     1.416   .     A
C15    C21     1.406   .     A
C16    C18     1.413   .     A
C16    C22     1.402   .     A
C17    C19     1.419   .     A
C17    C684    1.389   1_554 S
C18    C20     1.416   .     A
C18    C683    1.389   .     S
C21    O41     1.390   .     S
C21    C669    1.407   1_554 S
C22    O49     1.385   .     S
C22    C670    1.399   .     S
H27    C449    1.088   1_545 S
H28    C228    1.088   .     S
N29    Zn40    2.053   .     S
N29    N104    1.267   .     S
N29    Br147   1.878   .     S
N30    Zn39    2.053   .     S
N30    N177    1.267   1_455 S
N30    Br222   1.875   1_455 S
O31    Zn39    1.970   .     S
O32    Zn40    1.970   .     S
O33    Zn40    1.981   .     S
O34    Zn39    1.981   .     S
O35    Zn39    1.994   .     S
O36    Zn40    1.994   .     S
O37    Zn40    1.998   .     S
O38    Zn39    1.998   .     S
O41    C42     1.411   .     S
C42    H43     1.113   .     S
C42    H266    1.102   .     S
C42    C267    1.525   .     S
H44    C486    1.102   1_545 S
C45    H46     1.110   .     S
C45    H47     1.109   .     S
C45    C486    1.525   1_545 S
C45    H492    1.109   1_545 S
H48    C267    1.109   .     S
O49    C50     1.403   .     S
C50    H52     1.102   .     S
C50    H51     1.114   .     S
C50    C497    1.519   1_545 S
C53    H55     1.108   .     S
C53    H56     1.111   .     S
C53    H54     1.109   .     S
C53    C272    1.519   .     S
O57    C58     1.406   .     S
C58    H60     1.111   .     S
C58    H59     1.109   .     S
C58    C283    1.526   .     S
C61    H64     1.105   .     S
C61    H62     1.110   .     S
C61    H63     1.108   .     S
C61    C502    1.526   1_545 S
O65    C66     1.409   .     S
C66    H68     1.113   .     S
C66    H67     1.107   .     S
C66    C513    1.523   1_545 S
C69    H72     1.111   .     S
C69    H70     1.110   .     S
C69    C288    1.523   .     S
C69    H219    1.102   1_455 S
H71    C143    1.102   .     S
Br73   N177    1.878   1_455 S
Br74   N104    1.875   .     S
C75    O105    1.295   .     A
C75    O107    1.300   .     A
C75    C79     1.407   .     S
C76    O108    1.300   .     A
C76    C80     1.407   .     S
C76    O106    1.295   .     A
C77    C94     1.409   .     A
C77    O131    1.382   .     S
C77    C761    1.407   .     S
C78    O139    1.382   .     S
C78    C93     1.417   .     A
C78    C762    1.399   1_554 S
C79    C302    1.334   .     S
C79    H323    1.088   .     S
C80    C523    1.334   1_545 S
C80    H546    1.088   1_545 S
C81    O111    1.300   .     A
C81    C86     1.416   .     S
C81    O109    1.301   .     A
C82    O112    1.299   .     A
C82    C85     1.415   .     S
C82    O110    1.301   .     A
C83    C85     1.389   .     A
C83    H97     1.082   .     S
C83    C93     1.393   .     A
C84    C86     1.392   .     A
C84    H98     1.085   .     S
C84    C94     1.394   .     A
C85    C87     1.379   .     A
C86    C88     1.379   .     A
C87    C89     1.382   .     A
C87    H99     1.082   .     S
C88    H100    1.084   .     S
C88    C90     1.383   .     A
C89    C91     1.416   .     A
C89    C95     1.406   .     A
C90    C92     1.413   .     A
C90    C96     1.402   .     A
C91    C93     1.419   .     A
C91    C758    1.389   1_554 S
C92    C94     1.416   .     A
C92    C757    1.389   .     S
C95    O115    1.390   .     S
C95    C743    1.407   1_554 S
C96    O123    1.385   .     S
C96    C744    1.399   .     S
H101   C523    1.088   1_545 S
H102   C302    1.088   .     S
N103   Zn114   2.053   .     S
N103   N178    1.267   .     S
N103   Br221   1.878   .     S
N104   Zn113   2.053   .     S
O105   Zn113   1.970   .     S
O106   Zn114   1.970   .     S
O107   Zn114   1.981   .     S
O108   Zn113   1.981   .     S
O109   Zn113   1.994   .     S
O110   Zn114   1.994   .     S
O111   Zn114   1.998   .     S
O112   Zn113   1.998   .     S
O115   C116    1.411   .     S
C116   H117    1.113   .     S
C116   H340    1.102   .     S
C116   C341    1.525   .     S
H118   C560    1.102   1_545 S
C119   H120    1.110   .     S
C119   H121    1.109   .     S
C119   C560    1.525   1_545 S
C119   H566    1.109   1_545 S
H122   C341    1.109   .     S
O123   C124    1.403   .     S
C124   H126    1.102   .     S
C124   H125    1.114   .     S
C124   C571    1.519   1_545 S
C127   H129    1.108   .     S
C127   H130    1.111   .     S
C127   H128    1.109   .     S
C127   C346    1.519   .     S
O131   C132    1.406   .     S
C132   H134    1.111   .     S
C132   H133    1.109   .     S
C132   C357    1.526   .     S
C135   H138    1.105   .     S
C135   H136    1.110   .     S
C135   H137    1.108   .     S
C135   C576    1.526   1_545 S
O139   C140    1.409   .     S
C140   H142    1.113   .     S
C140   H141    1.107   .     S
C140   C587    1.523   1_545 S
C143   H146    1.111   .     S
C143   H144    1.110   .     S
C143   C362    1.523   .     S
H145   C217    1.102   .     S
Br148  N178    1.875   .     S
C149   O179    1.295   .     A
C149   O181    1.300   .     A
C149   C153    1.407   .     S
C150   O182    1.300   .     A
C150   C154    1.407   .     S
C150   O180    1.295   .     A
C151   C168    1.409   .     A
C151   O205    1.382   .     S
C151   C835    1.407   .     S
C152   O213    1.382   .     S
C152   C167    1.417   .     A
C152   C836    1.399   1_554 S
C153   C376    1.334   .     S
C153   H397    1.088   .     S
C154   C597    1.334   1_545 S
C154   H620    1.088   1_545 S
C155   O185    1.300   .     A
C155   C160    1.416   .     S
C155   O183    1.301   .     A
C156   O186    1.299   .     A
C156   C159    1.415   .     S
C156   O184    1.301   .     A
C157   C159    1.389   .     A
C157   H171    1.082   .     S
C157   C167    1.393   .     A
C158   C160    1.392   .     A
C158   H172    1.085   .     S
C158   C168    1.394   .     A
C159   C161    1.379   .     A
C160   C162    1.379   .     A
C161   C163    1.382   .     A
C161   H173    1.082   .     S
C162   H174    1.084   .     S
C162   C164    1.383   .     A
C163   C165    1.416   .     A
C163   C169    1.406   .     A
C164   C166    1.413   .     A
C164   C170    1.402   .     A
C165   C167    1.419   .     A
C165   C832    1.389   1_554 S
C166   C168    1.416   .     A
C166   C831    1.389   .     S
C169   O189    1.390   .     S
C169   C817    1.407   1_554 S
C170   O197    1.385   .     S
C170   C818    1.399   .     S
H175   C597    1.088   1_545 S
H176   C376    1.088   .     S
N177   Zn188   2.053   .     S
N177   N30     1.267   1_655 S
N177   Br73    1.878   1_655 S
N178   Zn187   2.053   .     S
O179   Zn187   1.970   .     S
O180   Zn188   1.970   .     S
O181   Zn188   1.981   .     S
O182   Zn187   1.981   .     S
O183   Zn187   1.994   .     S
O184   Zn188   1.994   .     S
O185   Zn188   1.998   .     S
O186   Zn187   1.998   .     S
O189   C190    1.411   .     S
C190   H191    1.113   .     S
C190   H414    1.102   .     S
C190   C415    1.525   .     S
H192   C634    1.102   1_545 S
C193   H194    1.110   .     S
C193   H195    1.109   .     S
C193   C634    1.525   1_545 S
C193   H640    1.109   1_545 S
H196   C415    1.109   .     S
O197   C198    1.403   .     S
C198   H200    1.102   .     S
C198   H199    1.114   .     S
C198   C645    1.519   1_545 S
C201   H203    1.108   .     S
C201   H204    1.111   .     S
C201   H202    1.109   .     S
C201   C420    1.519   .     S
O205   C206    1.406   .     S
C206   H208    1.111   .     S
C206   H207    1.109   .     S
C206   C431    1.526   .     S
C209   H212    1.105   .     S
C209   H210    1.110   .     S
C209   H211    1.108   .     S
C209   C650    1.526   1_545 S
O213   C214    1.409   .     S
C214   H216    1.113   .     S
C214   H215    1.107   .     S
C214   C661    1.523   1_545 S
C217   H220    1.111   .     S
C217   H218    1.110   .     S
C217   C436    1.523   .     S
H219   C69     1.102   1_655 S
Br222  N30     1.875   1_655 S
C223   O253    1.295   .     A
C223   O255    1.300   .     A
C223   C227    1.407   .     S
C224   O256    1.300   .     A
C224   C228    1.407   .     S
C224   O254    1.295   .     A
C225   C242    1.409   .     A
C225   O279    1.382   .     S
C225   C909    1.407   .     S
C226   O287    1.382   .     S
C226   C241    1.417   .     A
C226   C910    1.399   1_554 S
C227   C450    1.334   .     S
C227   H471    1.088   .     S
C229   O259    1.300   .     A
C229   C234    1.416   .     S
C229   O257    1.301   .     A
C230   O260    1.299   .     A
C230   C233    1.415   .     S
C230   O258    1.301   .     A
C231   C233    1.389   .     A
C231   H245    1.082   .     S
C231   C241    1.393   .     A
C232   C234    1.392   .     A
C232   H246    1.085   .     S
C232   C242    1.394   .     A
C233   C235    1.379   .     A
C234   C236    1.379   .     A
C235   C237    1.382   .     A
C235   H247    1.082   .     S
C236   H248    1.084   .     S
C236   C238    1.383   .     A
C237   C239    1.416   .     A
C237   C243    1.406   .     A
C238   C240    1.413   .     A
C238   C244    1.402   .     A
C239   C241    1.419   .     A
C239   C906    1.389   1_554 S
C240   C242    1.416   .     A
C240   C905    1.389   .     S
C243   O263    1.390   .     S
C243   C891    1.407   1_554 S
C244   O271    1.385   .     S
C244   C892    1.399   .     S
H250   C450    1.088   .     S
N251   Zn262   2.053   .     S
N251   N326    1.267   .     S
N251   Br369   1.878   .     S
N252   Zn261   2.053   .     S
N252   N399    1.267   1_455 S
N252   Br444   1.875   1_455 S
O253   Zn261   1.970   .     S
O254   Zn262   1.970   .     S
O255   Zn262   1.981   .     S
O256   Zn261   1.981   .     S
O257   Zn261   1.994   .     S
O258   Zn262   1.994   .     S
O259   Zn262   1.998   .     S
O260   Zn261   1.998   .     S
O263   C264    1.411   .     S
C264   H265    1.113   .     S
C264   H488    1.102   .     S
C264   C489    1.525   .     S
C267   H268    1.110   .     S
C267   H269    1.109   .     S
H270   C489    1.109   .     S
O271   C272    1.403   .     S
C272   H274    1.102   .     S
C272   H273    1.114   .     S
C275   H277    1.108   .     S
C275   H278    1.111   .     S
C275   H276    1.109   .     S
C275   C494    1.519   .     S
O279   C280    1.406   .     S
C280   H282    1.111   .     S
C280   H281    1.109   .     S
C280   C505    1.526   .     S
C283   H286    1.105   .     S
C283   H284    1.110   .     S
C283   H285    1.108   .     S
O287   C288    1.409   .     S
C288   H290    1.113   .     S
C288   H289    1.107   .     S
C291   H294    1.111   .     S
C291   H292    1.110   .     S
C291   C510    1.523   .     S
C291   H441    1.102   1_455 S
H293   C365    1.102   .     S
Br295  N399    1.878   1_455 S
Br296  N326    1.875   .     S
C297   O327    1.295   .     A
C297   O329    1.300   .     A
C297   C301    1.407   .     S
C298   O330    1.300   .     A
C298   C302    1.407   .     S
C298   O328    1.295   .     A
C299   C316    1.409   .     A
C299   O353    1.382   .     S
C299   C983    1.407   .     S
C300   O361    1.382   .     S
C300   C315    1.417   .     A
C300   C984    1.399   1_554 S
C301   C524    1.334   .     S
C301   H545    1.088   .     S
C303   O333    1.300   .     A
C303   C308    1.416   .     S
C303   O331    1.301   .     A
C304   O334    1.299   .     A
C304   C307    1.415   .     S
C304   O332    1.301   .     A
C305   C307    1.389   .     A
C305   H319    1.082   .     S
C305   C315    1.393   .     A
C306   C308    1.392   .     A
C306   H320    1.085   .     S
C306   C316    1.394   .     A
C307   C309    1.379   .     A
C308   C310    1.379   .     A
C309   C311    1.382   .     A
C309   H321    1.082   .     S
C310   H322    1.084   .     S
C310   C312    1.383   .     A
C311   C313    1.416   .     A
C311   C317    1.406   .     A
C312   C314    1.413   .     A
C312   C318    1.402   .     A
C313   C315    1.419   .     A
C313   C980    1.389   1_554 S
C314   C316    1.416   .     A
C314   C979    1.389   .     S
C317   O337    1.390   .     S
C317   C965    1.407   1_554 S
C318   O345    1.385   .     S
C318   C966    1.399   .     S
H324   C524    1.088   .     S
N325   Zn336   2.053   .     S
N325   N400    1.267   .     S
N325   Br443   1.878   .     S
N326   Zn335   2.053   .     S
O327   Zn335   1.970   .     S
O328   Zn336   1.970   .     S
O329   Zn336   1.981   .     S
O330   Zn335   1.981   .     S
O331   Zn335   1.994   .     S
O332   Zn336   1.994   .     S
O333   Zn336   1.998   .     S
O334   Zn335   1.998   .     S
O337   C338    1.411   .     S
C338   H339    1.113   .     S
C338   H562    1.102   .     S
C338   C563    1.525   .     S
C341   H342    1.110   .     S
C341   H343    1.109   .     S
H344   C563    1.109   .     S
O345   C346    1.403   .     S
C346   H348    1.102   .     S
C346   H347    1.114   .     S
C349   H351    1.108   .     S
C349   H352    1.111   .     S
C349   H350    1.109   .     S
C349   C568    1.519   .     S
O353   C354    1.406   .     S
C354   H356    1.111   .     S
C354   H355    1.109   .     S
C354   C579    1.526   .     S
C357   H360    1.105   .     S
C357   H358    1.110   .     S
C357   H359    1.108   .     S
O361   C362    1.409   .     S
C362   H364    1.113   .     S
C362   H363    1.107   .     S
C365   H368    1.111   .     S
C365   H366    1.110   .     S
C365   C584    1.523   .     S
H367   C439    1.102   .     S
Br370  N400    1.875   .     S
C371   O401    1.295   .     A
C371   O403    1.300   .     A
C371   C375    1.407   .     S
C372   O404    1.300   .     A
C372   C376    1.407   .     S
C372   O402    1.295   .     A
C373   C390    1.409   .     A
C373   O427    1.382   .     S
C373   C1057   1.407   .     S
C374   O435    1.382   .     S
C374   C389    1.417   .     A
C374   C1058   1.399   1_554 S
C375   C598    1.334   .     S
C375   H619    1.088   .     S
C377   O407    1.300   .     A
C377   C382    1.416   .     S
C377   O405    1.301   .     A
C378   O408    1.299   .     A
C378   C381    1.415   .     S
C378   O406    1.301   .     A
C379   C381    1.389   .     A
C379   H393    1.082   .     S
C379   C389    1.393   .     A
C380   C382    1.392   .     A
C380   H394    1.085   .     S
C380   C390    1.394   .     A
C381   C383    1.379   .     A
C382   C384    1.379   .     A
C383   C385    1.382   .     A
C383   H395    1.082   .     S
C384   H396    1.084   .     S
C384   C386    1.383   .     A
C385   C387    1.416   .     A
C385   C391    1.406   .     A
C386   C388    1.413   .     A
C386   C392    1.402   .     A
C387   C389    1.419   .     A
C387   C1054   1.389   1_554 S
C388   C390    1.416   .     A
C388   C1053   1.389   .     S
C391   O411    1.390   .     S
C391   C1039   1.407   1_554 S
C392   O419    1.385   .     S
C392   C1040   1.399   .     S
H398   C598    1.088   .     S
N399   Zn410   2.053   .     S
N399   N252    1.267   1_655 S
N399   Br295   1.878   1_655 S
N400   Zn409   2.053   .     S
O401   Zn409   1.970   .     S
O402   Zn410   1.970   .     S
O403   Zn410   1.981   .     S
O404   Zn409   1.981   .     S
O405   Zn409   1.994   .     S
O406   Zn410   1.994   .     S
O407   Zn410   1.998   .     S
O408   Zn409   1.998   .     S
O411   C412    1.411   .     S
C412   H413    1.113   .     S
C412   H636    1.102   .     S
C412   C637    1.525   .     S
C415   H416    1.110   .     S
C415   H417    1.109   .     S
H418   C637    1.109   .     S
O419   C420    1.403   .     S
C420   H422    1.102   .     S
C420   H421    1.114   .     S
C423   H425    1.108   .     S
C423   H426    1.111   .     S
C423   H424    1.109   .     S
C423   C642    1.519   .     S
O427   C428    1.406   .     S
C428   H430    1.111   .     S
C428   H429    1.109   .     S
C428   C653    1.526   .     S
C431   H434    1.105   .     S
C431   H432    1.110   .     S
C431   H433    1.108   .     S
O435   C436    1.409   .     S
C436   H438    1.113   .     S
C436   H437    1.107   .     S
C439   H442    1.111   .     S
C439   H440    1.110   .     S
C439   C658    1.523   .     S
H441   C291    1.102   1_655 S
Br444  N252    1.875   1_655 S
C445   O475    1.295   .     A
C445   O477    1.300   .     A
C445   C449    1.407   .     S
C446   O478    1.300   .     A
C446   C450    1.407   .     S
C446   O476    1.295   .     A
C447   C464    1.409   .     A
C447   O501    1.382   .     S
C447   C1131   1.407   .     S
C448   O509    1.382   .     S
C448   C463    1.417   .     A
C448   C1132   1.399   1_554 S
C449   C6      1.334   1_565 S
C449   H27     1.088   1_565 S
C451   O481    1.300   .     A
C451   C456    1.416   .     S
C451   O479    1.301   .     A
C452   O482    1.299   .     A
C452   C455    1.415   .     S
C452   O480    1.301   .     A
C453   C455    1.389   .     A
C453   H467    1.082   .     S
C453   C463    1.393   .     A
C454   C456    1.392   .     A
C454   H468    1.085   .     S
C454   C464    1.394   .     A
C455   C457    1.379   .     A
C456   C458    1.379   .     A
C457   C459    1.382   .     A
C457   H469    1.082   .     S
C458   H470    1.084   .     S
C458   C460    1.383   .     A
C459   C461    1.416   .     A
C459   C465    1.406   .     A
C460   C462    1.413   .     A
C460   C466    1.402   .     A
C461   C463    1.419   .     A
C461   C1128   1.389   1_554 S
C462   C464    1.416   .     A
C462   C1127   1.389   .     S
C465   O485    1.390   .     S
C465   C1113   1.407   1_554 S
C466   O493    1.385   .     S
C466   C1114   1.399   .     S
H472   C6      1.088   1_565 S
N473   Zn484   2.053   .     S
N473   N548    1.267   .     S
N473   Br591   1.878   .     S
N474   Zn483   2.053   .     S
N474   N621    1.267   1_455 S
N474   Br666   1.875   1_455 S
O475   Zn483   1.970   .     S
O476   Zn484   1.970   .     S
O477   Zn484   1.981   .     S
O478   Zn483   1.981   .     S
O479   Zn483   1.994   .     S
O480   Zn484   1.994   .     S
O481   Zn484   1.998   .     S
O482   Zn483   1.998   .     S
O485   C486    1.411   .     S
C486   H487    1.113   .     S
C486   H44     1.102   1_565 S
C486   C45     1.525   1_565 S
C489   H490    1.110   .     S
C489   H491    1.109   .     S
H492   C45     1.109   1_565 S
O493   C494    1.403   .     S
C494   H496    1.102   .     S
C494   H495    1.114   .     S
C497   H499    1.108   .     S
C497   H500    1.111   .     S
C497   H498    1.109   .     S
C497   C50     1.519   1_565 S
O501   C502    1.406   .     S
C502   H504    1.111   .     S
C502   H503    1.109   .     S
C502   C61     1.526   1_565 S
C505   H508    1.105   .     S
C505   H506    1.110   .     S
C505   H507    1.108   .     S
O509   C510    1.409   .     S
C510   H512    1.113   .     S
C510   H511    1.107   .     S
C513   H516    1.111   .     S
C513   H514    1.110   .     S
C513   C66     1.523   1_565 S
C513   H663    1.102   1_455 S
H515   C587    1.102   .     S
Br517  N621    1.878   1_455 S
Br518  N548    1.875   .     S
C519   O549    1.295   .     A
C519   O551    1.300   .     A
C519   C523    1.407   .     S
C520   O552    1.300   .     A
C520   C524    1.407   .     S
C520   O550    1.295   .     A
C521   C538    1.409   .     A
C521   O575    1.382   .     S
C521   C1205   1.407   .     S
C522   O583    1.382   .     S
C522   C537    1.417   .     A
C522   C1206   1.399   1_554 S
C523   C80     1.334   1_565 S
C523   H101    1.088   1_565 S
C525   O555    1.300   .     A
C525   C530    1.416   .     S
C525   O553    1.301   .     A
C526   O556    1.299   .     A
C526   C529    1.415   .     S
C526   O554    1.301   .     A
C527   C529    1.389   .     A
C527   H541    1.082   .     S
C527   C537    1.393   .     A
C528   C530    1.392   .     A
C528   H542    1.085   .     S
C528   C538    1.394   .     A
C529   C531    1.379   .     A
C530   C532    1.379   .     A
C531   C533    1.382   .     A
C531   H543    1.082   .     S
C532   H544    1.084   .     S
C532   C534    1.383   .     A
C533   C535    1.416   .     A
C533   C539    1.406   .     A
C534   C536    1.413   .     A
C534   C540    1.402   .     A
C535   C537    1.419   .     A
C535   C1202   1.389   1_554 S
C536   C538    1.416   .     A
C536   C1201   1.389   .     S
C539   O559    1.390   .     S
C539   C1187   1.407   1_554 S
C540   O567    1.385   .     S
C540   C1188   1.399   .     S
H546   C80     1.088   1_565 S
N547   Zn558   2.053   .     S
N547   N622    1.267   .     S
N547   Br665   1.878   .     S
N548   Zn557   2.053   .     S
O549   Zn557   1.970   .     S
O550   Zn558   1.970   .     S
O551   Zn558   1.981   .     S
O552   Zn557   1.981   .     S
O553   Zn557   1.994   .     S
O554   Zn558   1.994   .     S
O555   Zn558   1.998   .     S
O556   Zn557   1.998   .     S
O559   C560    1.411   .     S
C560   H561    1.113   .     S
C560   H118    1.102   1_565 S
C560   C119    1.525   1_565 S
C563   H564    1.110   .     S
C563   H565    1.109   .     S
H566   C119    1.109   1_565 S
O567   C568    1.403   .     S
C568   H570    1.102   .     S
C568   H569    1.114   .     S
C571   H573    1.108   .     S
C571   H574    1.111   .     S
C571   H572    1.109   .     S
C571   C124    1.519   1_565 S
O575   C576    1.406   .     S
C576   H578    1.111   .     S
C576   H577    1.109   .     S
C576   C135    1.526   1_565 S
C579   H582    1.105   .     S
C579   H580    1.110   .     S
C579   H581    1.108   .     S
O583   C584    1.409   .     S
C584   H586    1.113   .     S
C584   H585    1.107   .     S
C587   H590    1.111   .     S
C587   H588    1.110   .     S
C587   C140    1.523   1_565 S
H589   C661    1.102   .     S
Br592  N622    1.875   .     S
C593   O623    1.295   .     A
C593   O625    1.300   .     A
C593   C597    1.407   .     S
C594   O626    1.300   .     A
C594   C598    1.407   .     S
C594   O624    1.295   .     A
C595   C612    1.409   .     A
C595   O649    1.382   .     S
C595   C1279   1.407   .     S
C596   O657    1.382   .     S
C596   C611    1.417   .     A
C596   C1280   1.399   1_554 S
C597   C154    1.334   1_565 S
C597   H175    1.088   1_565 S
C599   O629    1.300   .     A
C599   C604    1.416   .     S
C599   O627    1.301   .     A
C600   O630    1.299   .     A
C600   C603    1.415   .     S
C600   O628    1.301   .     A
C601   C603    1.389   .     A
C601   H615    1.082   .     S
C601   C611    1.393   .     A
C602   C604    1.392   .     A
C602   H616    1.085   .     S
C602   C612    1.394   .     A
C603   C605    1.379   .     A
C604   C606    1.379   .     A
C605   C607    1.382   .     A
C605   H617    1.082   .     S
C606   H618    1.084   .     S
C606   C608    1.383   .     A
C607   C609    1.416   .     A
C607   C613    1.406   .     A
C608   C610    1.413   .     A
C608   C614    1.402   .     A
C609   C611    1.419   .     A
C609   C1276   1.389   1_554 S
C610   C612    1.416   .     A
C610   C1275   1.389   .     S
C613   O633    1.390   .     S
C613   C1261   1.407   1_554 S
C614   O641    1.385   .     S
C614   C1262   1.399   .     S
H620   C154    1.088   1_565 S
N621   Zn632   2.053   .     S
N621   N474    1.267   1_655 S
N621   Br517   1.878   1_655 S
N622   Zn631   2.053   .     S
O623   Zn631   1.970   .     S
O624   Zn632   1.970   .     S
O625   Zn632   1.981   .     S
O626   Zn631   1.981   .     S
O627   Zn631   1.994   .     S
O628   Zn632   1.994   .     S
O629   Zn632   1.998   .     S
O630   Zn631   1.998   .     S
O633   C634    1.411   .     S
C634   H635    1.113   .     S
C634   H192    1.102   1_565 S
C634   C193    1.525   1_565 S
C637   H638    1.110   .     S
C637   H639    1.109   .     S
H640   C193    1.109   1_565 S
O641   C642    1.403   .     S
C642   H644    1.102   .     S
C642   H643    1.114   .     S
C645   H647    1.108   .     S
C645   H648    1.111   .     S
C645   H646    1.109   .     S
C645   C198    1.519   1_565 S
O649   C650    1.406   .     S
C650   H652    1.111   .     S
C650   H651    1.109   .     S
C650   C209    1.526   1_565 S
C653   H656    1.105   .     S
C653   H654    1.110   .     S
C653   H655    1.108   .     S
O657   C658    1.409   .     S
C658   H660    1.113   .     S
C658   H659    1.107   .     S
C661   H664    1.111   .     S
C661   H662    1.110   .     S
C661   C214    1.523   1_565 S
H663   C513    1.102   1_655 S
Br666  N474    1.875   1_655 S
C667   O697    1.295   .     A
C667   O699    1.300   .     A
C667   C671    1.407   .     S
C668   O700    1.300   .     A
C668   C672    1.407   .     S
C668   O698    1.295   .     A
C669   C686    1.409   .     A
C669   O723    1.382   .     S
C669   C21     1.407   1_556 S
C670   O731    1.382   .     S
C670   C685    1.417   .     A
C671   C894    1.334   .     S
C671   H915    1.088   .     S
C672   C1115   1.334   1_545 S
C672   H1138   1.088   1_545 S
C673   O703    1.300   .     A
C673   C678    1.416   .     S
C673   O701    1.301   .     A
C674   O704    1.299   .     A
C674   C677    1.415   .     S
C674   O702    1.301   .     A
C675   C677    1.389   .     A
C675   H689    1.082   .     S
C675   C685    1.393   .     A
C676   C678    1.392   .     A
C676   H690    1.085   .     S
C676   C686    1.394   .     A
C677   C679    1.379   .     A
C678   C680    1.379   .     A
C679   C681    1.382   .     A
C679   H691    1.082   .     S
C680   H692    1.084   .     S
C680   C682    1.383   .     A
C681   C683    1.416   .     A
C681   C687    1.406   .     A
C682   C684    1.413   .     A
C682   C688    1.402   .     A
C683   C685    1.419   .     A
C684   C686    1.416   .     A
C684   C17     1.389   1_556 S
C687   O707    1.390   .     S
C688   O715    1.385   .     S
C688   C4      1.399   1_556 S
H693   C1115   1.088   1_545 S
H694   C894    1.088   .     S
N695   Zn706   2.053   .     S
N695   N770    1.267   .     S
N695   Br813   1.878   .     S
N696   Zn705   2.053   .     S
N696   N843    1.267   1_455 S
N696   Br888   1.875   1_455 S
O697   Zn705   1.970   .     S
O698   Zn706   1.970   .     S
O699   Zn706   1.981   .     S
O700   Zn705   1.981   .     S
O701   Zn705   1.994   .     S
O702   Zn706   1.994   .     S
O703   Zn706   1.998   .     S
O704   Zn705   1.998   .     S
O707   C708    1.411   .     S
C708   H709    1.113   .     S
C708   H932    1.102   .     S
C708   C933    1.525   .     S
H710   C1152   1.102   1_545 S
C711   H712    1.110   .     S
C711   H713    1.109   .     S
C711   C1152   1.525   1_545 S
C711   H1158   1.109   1_545 S
H714   C933    1.109   .     S
O715   C716    1.403   .     S
C716   H718    1.102   .     S
C716   H717    1.114   .     S
C716   C1163   1.519   1_545 S
C719   H721    1.108   .     S
C719   H722    1.111   .     S
C719   H720    1.109   .     S
C719   C938    1.519   .     S
O723   C724    1.406   .     S
C724   H726    1.111   .     S
C724   H725    1.109   .     S
C724   C949    1.526   .     S
C727   H730    1.105   .     S
C727   H728    1.110   .     S
C727   H729    1.108   .     S
C727   C1168   1.526   1_545 S
O731   C732    1.409   .     S
C732   H734    1.113   .     S
C732   H733    1.107   .     S
C732   C1179   1.523   1_545 S
C735   H738    1.111   .     S
C735   H736    1.110   .     S
C735   C954    1.523   .     S
C735   H885    1.102   1_455 S
H737   C809    1.102   .     S
Br739  N843    1.878   1_455 S
Br740  N770    1.875   .     S
C741   O771    1.295   .     A
C741   O773    1.300   .     A
C741   C745    1.407   .     S
C742   O774    1.300   .     A
C742   C746    1.407   .     S
C742   O772    1.295   .     A
C743   C760    1.409   .     A
C743   O797    1.382   .     S
C743   C95     1.407   1_556 S
C744   O805    1.382   .     S
C744   C759    1.417   .     A
C745   C968    1.334   .     S
C745   H989    1.088   .     S
C746   C1189   1.334   1_545 S
C746   H1212   1.088   1_545 S
C747   O777    1.300   .     A
C747   C752    1.416   .     S
C747   O775    1.301   .     A
C748   O778    1.299   .     A
C748   C751    1.415   .     S
C748   O776    1.301   .     A
C749   C751    1.389   .     A
C749   H763    1.082   .     S
C749   C759    1.393   .     A
C750   C752    1.392   .     A
C750   H764    1.085   .     S
C750   C760    1.394   .     A
C751   C753    1.379   .     A
C752   C754    1.379   .     A
C753   C755    1.382   .     A
C753   H765    1.082   .     S
C754   H766    1.084   .     S
C754   C756    1.383   .     A
C755   C757    1.416   .     A
C755   C761    1.406   .     A
C756   C758    1.413   .     A
C756   C762    1.402   .     A
C757   C759    1.419   .     A
C758   C760    1.416   .     A
C758   C91     1.389   1_556 S
C761   O781    1.390   .     S
C762   O789    1.385   .     S
C762   C78     1.399   1_556 S
H767   C1189   1.088   1_545 S
H768   C968    1.088   .     S
N769   Zn780   2.053   .     S
N769   N844    1.267   .     S
N769   Br887   1.878   .     S
N770   Zn779   2.053   .     S
O771   Zn779   1.970   .     S
O772   Zn780   1.970   .     S
O773   Zn780   1.981   .     S
O774   Zn779   1.981   .     S
O775   Zn779   1.994   .     S
O776   Zn780   1.994   .     S
O777   Zn780   1.998   .     S
O778   Zn779   1.998   .     S
O781   C782    1.411   .     S
C782   H783    1.113   .     S
C782   H1006   1.102   .     S
C782   C1007   1.525   .     S
H784   C1226   1.102   1_545 S
C785   H786    1.110   .     S
C785   H787    1.109   .     S
C785   C1226   1.525   1_545 S
C785   H1232   1.109   1_545 S
H788   C1007   1.109   .     S
O789   C790    1.403   .     S
C790   H792    1.102   .     S
C790   H791    1.114   .     S
C790   C1237   1.519   1_545 S
C793   H795    1.108   .     S
C793   H796    1.111   .     S
C793   H794    1.109   .     S
C793   C1012   1.519   .     S
O797   C798    1.406   .     S
C798   H800    1.111   .     S
C798   H799    1.109   .     S
C798   C1023   1.526   .     S
C801   H804    1.105   .     S
C801   H802    1.110   .     S
C801   H803    1.108   .     S
C801   C1242   1.526   1_545 S
O805   C806    1.409   .     S
C806   H808    1.113   .     S
C806   H807    1.107   .     S
C806   C1253   1.523   1_545 S
C809   H812    1.111   .     S
C809   H810    1.110   .     S
C809   C1028   1.523   .     S
H811   C883    1.102   .     S
Br814  N844    1.875   .     S
C815   O845    1.295   .     A
C815   O847    1.300   .     A
C815   C819    1.407   .     S
C816   O848    1.300   .     A
C816   C820    1.407   .     S
C816   O846    1.295   .     A
C817   C834    1.409   .     A
C817   O871    1.382   .     S
C817   C169    1.407   1_556 S
C818   O879    1.382   .     S
C818   C833    1.417   .     A
C819   C1042   1.334   .     S
C819   H1063   1.088   .     S
C820   C1263   1.334   1_545 S
C820   H1286   1.088   1_545 S
C821   O851    1.300   .     A
C821   C826    1.416   .     S
C821   O849    1.301   .     A
C822   O852    1.299   .     A
C822   C825    1.415   .     S
C822   O850    1.301   .     A
C823   C825    1.389   .     A
C823   H837    1.082   .     S
C823   C833    1.393   .     A
C824   C826    1.392   .     A
C824   H838    1.085   .     S
C824   C834    1.394   .     A
C825   C827    1.379   .     A
C826   C828    1.379   .     A
C827   C829    1.382   .     A
C827   H839    1.082   .     S
C828   H840    1.084   .     S
C828   C830    1.383   .     A
C829   C831    1.416   .     A
C829   C835    1.406   .     A
C830   C832    1.413   .     A
C830   C836    1.402   .     A
C831   C833    1.419   .     A
C832   C834    1.416   .     A
C832   C165    1.389   1_556 S
C835   O855    1.390   .     S
C836   O863    1.385   .     S
C836   C152    1.399   1_556 S
H841   C1263   1.088   1_545 S
H842   C1042   1.088   .     S
N843   Zn854   2.053   .     S
N843   N696    1.267   1_655 S
N843   Br739   1.878   1_655 S
N844   Zn853   2.053   .     S
O845   Zn853   1.970   .     S
O846   Zn854   1.970   .     S
O847   Zn854   1.981   .     S
O848   Zn853   1.981   .     S
O849   Zn853   1.994   .     S
O850   Zn854   1.994   .     S
O851   Zn854   1.998   .     S
O852   Zn853   1.998   .     S
O855   C856    1.411   .     S
C856   H857    1.113   .     S
C856   H1080   1.102   .     S
C856   C1081   1.525   .     S
H858   C1300   1.102   1_545 S
C859   H860    1.110   .     S
C859   H861    1.109   .     S
C859   C1300   1.525   1_545 S
C859   H1306   1.109   1_545 S
H862   C1081   1.109   .     S
O863   C864    1.403   .     S
C864   H866    1.102   .     S
C864   H865    1.114   .     S
C864   C1311   1.519   1_545 S
C867   H869    1.108   .     S
C867   H870    1.111   .     S
C867   H868    1.109   .     S
C867   C1086   1.519   .     S
O871   C872    1.406   .     S
C872   H874    1.111   .     S
C872   H873    1.109   .     S
C872   C1097   1.526   .     S
C875   H878    1.105   .     S
C875   H876    1.110   .     S
C875   H877    1.108   .     S
C875   C1316   1.526   1_545 S
O879   C880    1.409   .     S
C880   H882    1.113   .     S
C880   H881    1.107   .     S
C880   C1327   1.523   1_545 S
C883   H886    1.111   .     S
C883   H884    1.110   .     S
C883   C1102   1.523   .     S
H885   C735    1.102   1_655 S
Br888  N696    1.875   1_655 S
C889   O919    1.295   .     A
C889   O921    1.300   .     A
C889   C893    1.407   .     S
C890   O922    1.300   .     A
C890   C894    1.407   .     S
C890   O920    1.295   .     A
C891   C908    1.409   .     A
C891   O945    1.382   .     S
C891   C243    1.407   1_556 S
C892   O953    1.382   .     S
C892   C907    1.417   .     A
C893   C1116   1.334   .     S
C893   H1137   1.088   .     S
C895   O925    1.300   .     A
C895   C900    1.416   .     S
C895   O923    1.301   .     A
C896   O926    1.299   .     A
C896   C899    1.415   .     S
C896   O924    1.301   .     A
C897   C899    1.389   .     A
C897   H911    1.082   .     S
C897   C907    1.393   .     A
C898   C900    1.392   .     A
C898   H912    1.085   .     S
C898   C908    1.394   .     A
C899   C901    1.379   .     A
C900   C902    1.379   .     A
C901   C903    1.382   .     A
C901   H913    1.082   .     S
C902   H914    1.084   .     S
C902   C904    1.383   .     A
C903   C905    1.416   .     A
C903   C909    1.406   .     A
C904   C906    1.413   .     A
C904   C910    1.402   .     A
C905   C907    1.419   .     A
C906   C908    1.416   .     A
C906   C239    1.389   1_556 S
C909   O929    1.390   .     S
C910   O937    1.385   .     S
C910   C226    1.399   1_556 S
H916   C1116   1.088   .     S
N917   Zn928   2.053   .     S
N917   N992    1.267   .     S
N917   Br1035  1.878   .     S
N918   Zn927   2.053   .     S
N918   N1065   1.267   1_455 S
N918   Br1110  1.875   1_455 S
O919   Zn927   1.970   .     S
O920   Zn928   1.970   .     S
O921   Zn928   1.981   .     S
O922   Zn927   1.981   .     S
O923   Zn927   1.994   .     S
O924   Zn928   1.994   .     S
O925   Zn928   1.998   .     S
O926   Zn927   1.998   .     S
O929   C930    1.411   .     S
C930   H931    1.113   .     S
C930   H1154   1.102   .     S
C930   C1155   1.525   .     S
C933   H934    1.110   .     S
C933   H935    1.109   .     S
H936   C1155   1.109   .     S
O937   C938    1.403   .     S
C938   H940    1.102   .     S
C938   H939    1.114   .     S
C941   H943    1.108   .     S
C941   H944    1.111   .     S
C941   H942    1.109   .     S
C941   C1160   1.519   .     S
O945   C946    1.406   .     S
C946   H948    1.111   .     S
C946   H947    1.109   .     S
C946   C1171   1.526   .     S
C949   H952    1.105   .     S
C949   H950    1.110   .     S
C949   H951    1.108   .     S
O953   C954    1.409   .     S
C954   H956    1.113   .     S
C954   H955    1.107   .     S
C957   H960    1.111   .     S
C957   H958    1.110   .     S
C957   C1176   1.523   .     S
C957   H1107   1.102   1_455 S
H959   C1031   1.102   .     S
Br961  N1065   1.878   1_455 S
Br962  N992    1.875   .     S
C963   O993    1.295   .     A
C963   O995    1.300   .     A
C963   C967    1.407   .     S
C964   O996    1.300   .     A
C964   C968    1.407   .     S
C964   O994    1.295   .     A
C965   C982    1.409   .     A
C965   O1019   1.382   .     S
C965   C317    1.407   1_556 S
C966   O1027   1.382   .     S
C966   C981    1.417   .     A
C967   C1190   1.334   .     S
C967   H1211   1.088   .     S
C969   O999    1.300   .     A
C969   C974    1.416   .     S
C969   O997    1.301   .     A
C970   O1000   1.299   .     A
C970   C973    1.415   .     S
C970   O998    1.301   .     A
C971   C973    1.389   .     A
C971   H985    1.082   .     S
C971   C981    1.393   .     A
C972   C974    1.392   .     A
C972   H986    1.085   .     S
C972   C982    1.394   .     A
C973   C975    1.379   .     A
C974   C976    1.379   .     A
C975   C977    1.382   .     A
C975   H987    1.082   .     S
C976   H988    1.084   .     S
C976   C978    1.383   .     A
C977   C979    1.416   .     A
C977   C983    1.406   .     A
C978   C980    1.413   .     A
C978   C984    1.402   .     A
C979   C981    1.419   .     A
C980   C982    1.416   .     A
C980   C313    1.389   1_556 S
C983   O1003   1.390   .     S
C984   O1011   1.385   .     S
C984   C300    1.399   1_556 S
H990   C1190   1.088   .     S
N991   Zn1002  2.053   .     S
N991   N1066   1.267   .     S
N991   Br1109  1.878   .     S
N992   Zn1001  2.053   .     S
O993   Zn1001  1.970   .     S
O994   Zn1002  1.970   .     S
O995   Zn1002  1.981   .     S
O996   Zn1001  1.981   .     S
O997   Zn1001  1.994   .     S
O998   Zn1002  1.994   .     S
O999   Zn1002  1.998   .     S
O1000  Zn1001  1.998   .     S
O1003  C1004   1.411   .     S
C1004  H1005   1.113   .     S
C1004  H1228   1.102   .     S
C1004  C1229   1.525   .     S
C1007  H1008   1.110   .     S
C1007  H1009   1.109   .     S
H1010  C1229   1.109   .     S
O1011  C1012   1.403   .     S
C1012  H1014   1.102   .     S
C1012  H1013   1.114   .     S
C1015  H1017   1.108   .     S
C1015  H1018   1.111   .     S
C1015  H1016   1.109   .     S
C1015  C1234   1.519   .     S
O1019  C1020   1.406   .     S
C1020  H1022   1.111   .     S
C1020  H1021   1.109   .     S
C1020  C1245   1.526   .     S
C1023  H1026   1.105   .     S
C1023  H1024   1.110   .     S
C1023  H1025   1.108   .     S
O1027  C1028   1.409   .     S
C1028  H1030   1.113   .     S
C1028  H1029   1.107   .     S
C1031  H1034   1.111   .     S
C1031  H1032   1.110   .     S
C1031  C1250   1.523   .     S
H1033  C1105   1.102   .     S
Br1036 N1066   1.875   .     S
C1037  O1067   1.295   .     A
C1037  O1069   1.300   .     A
C1037  C1041   1.407   .     S
C1038  O1070   1.300   .     A
C1038  C1042   1.407   .     S
C1038  O1068   1.295   .     A
C1039  C1056   1.409   .     A
C1039  O1093   1.382   .     S
C1039  C391    1.407   1_556 S
C1040  O1101   1.382   .     S
C1040  C1055   1.417   .     A
C1041  C1264   1.334   .     S
C1041  H1285   1.088   .     S
C1043  O1073   1.300   .     A
C1043  C1048   1.416   .     S
C1043  O1071   1.301   .     A
C1044  O1074   1.299   .     A
C1044  C1047   1.415   .     S
C1044  O1072   1.301   .     A
C1045  C1047   1.389   .     A
C1045  H1059   1.082   .     S
C1045  C1055   1.393   .     A
C1046  C1048   1.392   .     A
C1046  H1060   1.085   .     S
C1046  C1056   1.394   .     A
C1047  C1049   1.379   .     A
C1048  C1050   1.379   .     A
C1049  C1051   1.382   .     A
C1049  H1061   1.082   .     S
C1050  H1062   1.084   .     S
C1050  C1052   1.383   .     A
C1051  C1053   1.416   .     A
C1051  C1057   1.406   .     A
C1052  C1054   1.413   .     A
C1052  C1058   1.402   .     A
C1053  C1055   1.419   .     A
C1054  C1056   1.416   .     A
C1054  C387    1.389   1_556 S
C1057  O1077   1.390   .     S
C1058  O1085   1.385   .     S
C1058  C374    1.399   1_556 S
H1064  C1264   1.088   .     S
N1065  Zn1076  2.053   .     S
N1065  N918    1.267   1_655 S
N1065  Br961   1.878   1_655 S
N1066  Zn1075  2.053   .     S
O1067  Zn1075  1.970   .     S
O1068  Zn1076  1.970   .     S
O1069  Zn1076  1.981   .     S
O1070  Zn1075  1.981   .     S
O1071  Zn1075  1.994   .     S
O1072  Zn1076  1.994   .     S
O1073  Zn1076  1.998   .     S
O1074  Zn1075  1.998   .     S
O1077  C1078   1.411   .     S
C1078  H1079   1.113   .     S
C1078  H1302   1.102   .     S
C1078  C1303   1.525   .     S
C1081  H1082   1.110   .     S
C1081  H1083   1.109   .     S
H1084  C1303   1.109   .     S
O1085  C1086   1.403   .     S
C1086  H1088   1.102   .     S
C1086  H1087   1.114   .     S
C1089  H1091   1.108   .     S
C1089  H1092   1.111   .     S
C1089  H1090   1.109   .     S
C1089  C1308   1.519   .     S
O1093  C1094   1.406   .     S
C1094  H1096   1.111   .     S
C1094  H1095   1.109   .     S
C1094  C1319   1.526   .     S
C1097  H1100   1.105   .     S
C1097  H1098   1.110   .     S
C1097  H1099   1.108   .     S
O1101  C1102   1.409   .     S
C1102  H1104   1.113   .     S
C1102  H1103   1.107   .     S
C1105  H1108   1.111   .     S
C1105  H1106   1.110   .     S
C1105  C1324   1.523   .     S
H1107  C957    1.102   1_655 S
Br1110 N918    1.875   1_655 S
C1111  O1141   1.295   .     A
C1111  O1143   1.300   .     A
C1111  C1115   1.407   .     S
C1112  O1144   1.300   .     A
C1112  C1116   1.407   .     S
C1112  O1142   1.295   .     A
C1113  C1130   1.409   .     A
C1113  O1167   1.382   .     S
C1113  C465    1.407   1_556 S
C1114  O1175   1.382   .     S
C1114  C1129   1.417   .     A
C1115  C672    1.334   1_565 S
C1115  H693    1.088   1_565 S
C1117  O1147   1.300   .     A
C1117  C1122   1.416   .     S
C1117  O1145   1.301   .     A
C1118  O1148   1.299   .     A
C1118  C1121   1.415   .     S
C1118  O1146   1.301   .     A
C1119  C1121   1.389   .     A
C1119  H1133   1.082   .     S
C1119  C1129   1.393   .     A
C1120  C1122   1.392   .     A
C1120  H1134   1.085   .     S
C1120  C1130   1.394   .     A
C1121  C1123   1.379   .     A
C1122  C1124   1.379   .     A
C1123  C1125   1.382   .     A
C1123  H1135   1.082   .     S
C1124  H1136   1.084   .     S
C1124  C1126   1.383   .     A
C1125  C1127   1.416   .     A
C1125  C1131   1.406   .     A
C1126  C1128   1.413   .     A
C1126  C1132   1.402   .     A
C1127  C1129   1.419   .     A
C1128  C1130   1.416   .     A
C1128  C461    1.389   1_556 S
C1131  O1151   1.390   .     S
C1132  O1159   1.385   .     S
C1132  C448    1.399   1_556 S
H1138  C672    1.088   1_565 S
N1139  Zn1150  2.053   .     S
N1139  N1214   1.267   .     S
N1139  Br1257  1.878   .     S
N1140  Zn1149  2.053   .     S
N1140  N1287   1.267   1_455 S
N1140  Br1332  1.875   1_455 S
O1141  Zn1149  1.970   .     S
O1142  Zn1150  1.970   .     S
O1143  Zn1150  1.981   .     S
O1144  Zn1149  1.981   .     S
O1145  Zn1149  1.994   .     S
O1146  Zn1150  1.994   .     S
O1147  Zn1150  1.998   .     S
O1148  Zn1149  1.998   .     S
O1151  C1152   1.411   .     S
C1152  H1153   1.113   .     S
C1152  H710    1.102   1_565 S
C1152  C711    1.525   1_565 S
C1155  H1156   1.110   .     S
C1155  H1157   1.109   .     S
H1158  C711    1.109   1_565 S
O1159  C1160   1.403   .     S
C1160  H1162   1.102   .     S
C1160  H1161   1.114   .     S
C1163  H1165   1.108   .     S
C1163  H1166   1.111   .     S
C1163  H1164   1.109   .     S
C1163  C716    1.519   1_565 S
O1167  C1168   1.406   .     S
C1168  H1170   1.111   .     S
C1168  H1169   1.109   .     S
C1168  C727    1.526   1_565 S
C1171  H1174   1.105   .     S
C1171  H1172   1.110   .     S
C1171  H1173   1.108   .     S
O1175  C1176   1.409   .     S
C1176  H1178   1.113   .     S
C1176  H1177   1.107   .     S
C1179  H1182   1.111   .     S
C1179  H1180   1.110   .     S
C1179  C732    1.523   1_565 S
C1179  H1329   1.102   1_455 S
H1181  C1253   1.102   .     S
Br1183 N1287   1.878   1_455 S
Br1184 N1214   1.875   .     S
C1185  O1215   1.295   .     A
C1185  O1217   1.300   .     A
C1185  C1189   1.407   .     S
C1186  O1218   1.300   .     A
C1186  C1190   1.407   .     S
C1186  O1216   1.295   .     A
C1187  C1204   1.409   .     A
C1187  O1241   1.382   .     S
C1187  C539    1.407   1_556 S
C1188  O1249   1.382   .     S
C1188  C1203   1.417   .     A
C1189  C746    1.334   1_565 S
C1189  H767    1.088   1_565 S
C1191  O1221   1.300   .     A
C1191  C1196   1.416   .     S
C1191  O1219   1.301   .     A
C1192  O1222   1.299   .     A
C1192  C1195   1.415   .     S
C1192  O1220   1.301   .     A
C1193  C1195   1.389   .     A
C1193  H1207   1.082   .     S
C1193  C1203   1.393   .     A
C1194  C1196   1.392   .     A
C1194  H1208   1.085   .     S
C1194  C1204   1.394   .     A
C1195  C1197   1.379   .     A
C1196  C1198   1.379   .     A
C1197  C1199   1.382   .     A
C1197  H1209   1.082   .     S
C1198  H1210   1.084   .     S
C1198  C1200   1.383   .     A
C1199  C1201   1.416   .     A
C1199  C1205   1.406   .     A
C1200  C1202   1.413   .     A
C1200  C1206   1.402   .     A
C1201  C1203   1.419   .     A
C1202  C1204   1.416   .     A
C1202  C535    1.389   1_556 S
C1205  O1225   1.390   .     S
C1206  O1233   1.385   .     S
C1206  C522    1.399   1_556 S
H1212  C746    1.088   1_565 S
N1213  Zn1224  2.053   .     S
N1213  N1288   1.267   .     S
N1213  Br1331  1.878   .     S
N1214  Zn1223  2.053   .     S
O1215  Zn1223  1.970   .     S
O1216  Zn1224  1.970   .     S
O1217  Zn1224  1.981   .     S
O1218  Zn1223  1.981   .     S
O1219  Zn1223  1.994   .     S
O1220  Zn1224  1.994   .     S
O1221  Zn1224  1.998   .     S
O1222  Zn1223  1.998   .     S
O1225  C1226   1.411   .     S
C1226  H1227   1.113   .     S
C1226  H784    1.102   1_565 S
C1226  C785    1.525   1_565 S
C1229  H1230   1.110   .     S
C1229  H1231   1.109   .     S
H1232  C785    1.109   1_565 S
O1233  C1234   1.403   .     S
C1234  H1236   1.102   .     S
C1234  H1235   1.114   .     S
C1237  H1239   1.108   .     S
C1237  H1240   1.111   .     S
C1237  H1238   1.109   .     S
C1237  C790    1.519   1_565 S
O1241  C1242   1.406   .     S
C1242  H1244   1.111   .     S
C1242  H1243   1.109   .     S
C1242  C801    1.526   1_565 S
C1245  H1248   1.105   .     S
C1245  H1246   1.110   .     S
C1245  H1247   1.108   .     S
O1249  C1250   1.409   .     S
C1250  H1252   1.113   .     S
C1250  H1251   1.107   .     S
C1253  H1256   1.111   .     S
C1253  H1254   1.110   .     S
C1253  C806    1.523   1_565 S
H1255  C1327   1.102   .     S
Br1258 N1288   1.875   .     S
C1259  O1289   1.295   .     A
C1259  O1291   1.300   .     A
C1259  C1263   1.407   .     S
C1260  O1292   1.300   .     A
C1260  C1264   1.407   .     S
C1260  O1290   1.295   .     A
C1261  C1278   1.409   .     A
C1261  O1315   1.382   .     S
C1261  C613    1.407   1_556 S
C1262  O1323   1.382   .     S
C1262  C1277   1.417   .     A
C1263  C820    1.334   1_565 S
C1263  H841    1.088   1_565 S
C1265  O1295   1.300   .     A
C1265  C1270   1.416   .     S
C1265  O1293   1.301   .     A
C1266  O1296   1.299   .     A
C1266  C1269   1.415   .     S
C1266  O1294   1.301   .     A
C1267  C1269   1.389   .     A
C1267  H1281   1.082   .     S
C1267  C1277   1.393   .     A
C1268  C1270   1.392   .     A
C1268  H1282   1.085   .     S
C1268  C1278   1.394   .     A
C1269  C1271   1.379   .     A
C1270  C1272   1.379   .     A
C1271  C1273   1.382   .     A
C1271  H1283   1.082   .     S
C1272  H1284   1.084   .     S
C1272  C1274   1.383   .     A
C1273  C1275   1.416   .     A
C1273  C1279   1.406   .     A
C1274  C1276   1.413   .     A
C1274  C1280   1.402   .     A
C1275  C1277   1.419   .     A
C1276  C1278   1.416   .     A
C1276  C609    1.389   1_556 S
C1279  O1299   1.390   .     S
C1280  O1307   1.385   .     S
C1280  C596    1.399   1_556 S
H1286  C820    1.088   1_565 S
N1287  Zn1298  2.053   .     S
N1287  N1140   1.267   1_655 S
N1287  Br1183  1.878   1_655 S
N1288  Zn1297  2.053   .     S
O1289  Zn1297  1.970   .     S
O1290  Zn1298  1.970   .     S
O1291  Zn1298  1.981   .     S
O1292  Zn1297  1.981   .     S
O1293  Zn1297  1.994   .     S
O1294  Zn1298  1.994   .     S
O1295  Zn1298  1.998   .     S
O1296  Zn1297  1.998   .     S
O1299  C1300   1.411   .     S
C1300  H1301   1.113   .     S
C1300  H858    1.102   1_565 S
C1300  C859    1.525   1_565 S
C1303  H1304   1.110   .     S
C1303  H1305   1.109   .     S
H1306  C859    1.109   1_565 S
O1307  C1308   1.403   .     S
C1308  H1310   1.102   .     S
C1308  H1309   1.114   .     S
C1311  H1313   1.108   .     S
C1311  H1314   1.111   .     S
C1311  H1312   1.109   .     S
C1311  C864    1.519   1_565 S
O1315  C1316   1.406   .     S
C1316  H1318   1.111   .     S
C1316  H1317   1.109   .     S
C1316  C875    1.526   1_565 S
C1319  H1322   1.105   .     S
C1319  H1320   1.110   .     S
C1319  H1321   1.108   .     S
O1323  C1324   1.409   .     S
C1324  H1326   1.113   .     S
C1324  H1325   1.107   .     S
C1327  H1330   1.111   .     S
C1327  H1328   1.110   .     S
C1327  C880    1.523   1_565 S
H1329  C1179   1.102   1_655 S
Br1332 N1140   1.875   1_655 S
