data_str_m2_o1_o10_pcu_sym.159
_audit_creation_date              2020-01-03
_audit_creation_method            'Materials Studio'
_symmetry_space_group_name_H-M    'P1'
_symmetry_Int_Tables_number       1
_symmetry_cell_setting            triclinic
loop_
_symmetry_equiv_pos_as_xyz
  x,y,z
_cell_length_a                    26.3814
_cell_length_b                    32.3530
_cell_length_c                    28.7785
_cell_angle_alpha                 89.0347
_cell_angle_beta                  97.1752
_cell_angle_gamma                 90.5286
loop_
_atom_site_label
_atom_site_type_symbol
_atom_site_fract_x
_atom_site_fract_y
_atom_site_fract_z
_atom_site_U_iso_or_equiv
_atom_site_adp_type
_atom_site_occupancy
C1     C     0.16686   0.08755   0.16702   0.00000  Uiso   1.00
C2     C     0.16648   0.24578   0.16631   0.00000  Uiso   1.00
C3     C     0.06827   0.16559   0.15502   0.00000  Uiso   1.00
C4     C     0.26507   0.16774   0.17832   0.00000  Uiso   1.00
C5     C     0.01340   0.16033   0.14952   0.00000  Uiso   1.00
C6     C     0.31993   0.17300   0.18381   0.00000  Uiso   1.00
C7     C     0.20791   0.02171   0.15027   0.00000  Uiso   1.00
C8     C     0.12542   0.31162   0.18307   0.00000  Uiso   1.00
C9     C     0.20613   0.31176   0.14858   0.00000  Uiso   1.00
C10    C     0.12720   0.02157   0.18475   0.00000  Uiso   1.00
C11    C     0.16543   0.29047   0.16541   0.00000  Uiso   1.00
C12    C     0.16790   0.04286   0.16792   0.00000  Uiso   1.00
C13    C     0.12911   0.14699   0.02131   0.00000  Uiso   1.00
C14    C     0.20423   0.18635   0.31202   0.00000  Uiso   1.00
C15    C     0.12901   0.14639   0.30553   0.00000  Uiso   1.00
C16    C     0.20432   0.18694   0.02780   0.00000  Uiso   1.00
Cu17   Cu    0.16667   0.16667   0.21355   0.00000  Uiso   1.00
Cu18   Cu    0.16667   0.16666   0.11978   0.00000  Uiso   1.00
H19    H     0.09929   0.13082   0.03696   0.00000  Uiso   1.00
H20    H     0.23404   0.20251   0.29638   0.00000  Uiso   1.00
N21    N     0.16668   0.16668   0.28403   0.00000  Uiso   1.00
N22    N     0.16665   0.16666   0.04931   0.00000  Uiso   1.00
O23    O     0.16666   0.10655   0.20625   0.00000  Uiso   1.00
O24    O     0.16667   0.22678   0.12709   0.00000  Uiso   1.00
O25    O     0.16666   0.10654   0.12706   0.00000  Uiso   1.00
O26    O     0.16667   0.22679   0.20628   0.00000  Uiso   1.00
O27    O     0.09161   0.16667   0.19712   0.00000  Uiso   1.00
O28    O     0.24172   0.16666   0.13621   0.00000  Uiso   1.00
O29    O     0.09161   0.16666   0.11793   0.00000  Uiso   1.00
O30    O     0.24172   0.16667   0.21540   0.00000  Uiso   1.00
O31    O     0.32240   0.14359   0.10830   0.00000  Uiso   1.00
C32    C     0.00574   0.10265   0.10372   0.00000  Uiso   1.00
H33    H     0.00794   0.08465   0.13725   0.00000  Uiso   1.00
H34    H     0.04328   0.10223   0.09018   0.00000  Uiso   1.00
H35    H     0.31124   0.08677   0.07776   0.00000  Uiso   1.00
O36    O     0.01093   0.18974   0.22503   0.00000  Uiso   1.00
C37    C     0.32760   0.23068   0.22962   0.00000  Uiso   1.00
H38    H     0.29006   0.23111   0.24314   0.00000  Uiso   1.00
H39    H     0.32540   0.24869   0.19609   0.00000  Uiso   1.00
H40    H     0.02210   0.24656   0.25557   0.00000  Uiso   1.00
O41    O     0.24940   0.04209   0.13531   0.00000  Uiso   1.00
H42    H     0.25246   0.07019   0.14842   0.00000  Uiso   1.00
O43    O     0.08393   0.29124   0.19801   0.00000  Uiso   1.00
H44    H     0.08088   0.26314   0.18492   0.00000  Uiso   1.00
O45    O     0.24452   0.28905   0.13256   0.00000  Uiso   1.00
H46    H     0.27061   0.30769   0.12152   0.00000  Uiso   1.00
O47    O     0.08882   0.04428   0.20077   0.00000  Uiso   1.00
H48    H     0.06274   0.02565   0.21184   0.00000  Uiso   1.00
O49    O     0.08990   0.12466   0.28083   0.00000  Uiso   1.00
H50    H     0.10287   0.11321   0.25331   0.00000  Uiso   1.00
O51    O     0.24343   0.20868   0.05251   0.00000  Uiso   1.00
H52    H     0.23046   0.22013   0.08003   0.00000  Uiso   1.00
C53    C     0.50019   0.08755   0.16702   0.00000  Uiso   1.00
C54    C     0.49981   0.24578   0.16631   0.00000  Uiso   1.00
C55    C     0.40160   0.16559   0.15502   0.00000  Uiso   1.00
C56    C     0.59840   0.16774   0.17832   0.00000  Uiso   1.00
C57    C     0.34674   0.16033   0.14952   0.00000  Uiso   1.00
C58    C     0.65326   0.17300   0.18381   0.00000  Uiso   1.00
C59    C     0.54125   0.02171   0.15027   0.00000  Uiso   1.00
C60    C     0.45875   0.31162   0.18307   0.00000  Uiso   1.00
C61    C     0.53947   0.31176   0.14858   0.00000  Uiso   1.00
C62    C     0.46053   0.02157   0.18475   0.00000  Uiso   1.00
C63    C     0.49876   0.29047   0.16541   0.00000  Uiso   1.00
C64    C     0.50124   0.04286   0.16792   0.00000  Uiso   1.00
C65    C     0.46244   0.14699   0.02131   0.00000  Uiso   1.00
C66    C     0.53756   0.18635   0.31202   0.00000  Uiso   1.00
C67    C     0.46234   0.14639   0.30553   0.00000  Uiso   1.00
C68    C     0.53766   0.18694   0.02780   0.00000  Uiso   1.00
Cu69   Cu    0.50000   0.16667   0.21355   0.00000  Uiso   1.00
Cu70   Cu    0.50000   0.16666   0.11978   0.00000  Uiso   1.00
H71    H     0.43263   0.13082   0.03696   0.00000  Uiso   1.00
H72    H     0.56737   0.20251   0.29638   0.00000  Uiso   1.00
N73    N     0.50001   0.16668   0.28403   0.00000  Uiso   1.00
N74    N     0.49999   0.16666   0.04931   0.00000  Uiso   1.00
O75    O     0.50000   0.10655   0.20625   0.00000  Uiso   1.00
O76    O     0.50000   0.22678   0.12709   0.00000  Uiso   1.00
O77    O     0.50000   0.10654   0.12706   0.00000  Uiso   1.00
O78    O     0.50000   0.22679   0.20628   0.00000  Uiso   1.00
O79    O     0.42495   0.16667   0.19712   0.00000  Uiso   1.00
O80    O     0.57505   0.16666   0.13621   0.00000  Uiso   1.00
O81    O     0.42494   0.16666   0.11793   0.00000  Uiso   1.00
O82    O     0.57506   0.16667   0.21540   0.00000  Uiso   1.00
O83    O     0.65574   0.14359   0.10830   0.00000  Uiso   1.00
C84    C     0.33907   0.10265   0.10372   0.00000  Uiso   1.00
H85    H     0.34128   0.08465   0.13725   0.00000  Uiso   1.00
H86    H     0.37661   0.10223   0.09018   0.00000  Uiso   1.00
H87    H     0.64457   0.08677   0.07776   0.00000  Uiso   1.00
O88    O     0.34426   0.18974   0.22503   0.00000  Uiso   1.00
C89    C     0.66093   0.23068   0.22962   0.00000  Uiso   1.00
H90    H     0.62339   0.23111   0.24314   0.00000  Uiso   1.00
H91    H     0.65873   0.24869   0.19609   0.00000  Uiso   1.00
H92    H     0.35543   0.24656   0.25557   0.00000  Uiso   1.00
O93    O     0.58273   0.04209   0.13531   0.00000  Uiso   1.00
H94    H     0.58579   0.07019   0.14842   0.00000  Uiso   1.00
O95    O     0.41726   0.29124   0.19801   0.00000  Uiso   1.00
H96    H     0.41421   0.26314   0.18492   0.00000  Uiso   1.00
O97    O     0.57785   0.28905   0.13256   0.00000  Uiso   1.00
H98    H     0.60394   0.30769   0.12152   0.00000  Uiso   1.00
O99    O     0.42215   0.04428   0.20077   0.00000  Uiso   1.00
H100   H     0.39608   0.02565   0.21184   0.00000  Uiso   1.00
O101   O     0.42324   0.12466   0.28083   0.00000  Uiso   1.00
H102   H     0.43621   0.11321   0.25331   0.00000  Uiso   1.00
O103   O     0.57676   0.20868   0.05251   0.00000  Uiso   1.00
H104   H     0.56379   0.22013   0.08003   0.00000  Uiso   1.00
C105   C     0.83352   0.08755   0.16702   0.00000  Uiso   1.00
C106   C     0.83314   0.24578   0.16631   0.00000  Uiso   1.00
C107   C     0.73494   0.16559   0.15502   0.00000  Uiso   1.00
C108   C     0.93173   0.16774   0.17832   0.00000  Uiso   1.00
C109   C     0.68007   0.16033   0.14952   0.00000  Uiso   1.00
C110   C     0.98660   0.17300   0.18381   0.00000  Uiso   1.00
C111   C     0.87458   0.02171   0.15027   0.00000  Uiso   1.00
C112   C     0.79209   0.31162   0.18307   0.00000  Uiso   1.00
C113   C     0.87280   0.31176   0.14858   0.00000  Uiso   1.00
C114   C     0.79387   0.02157   0.18475   0.00000  Uiso   1.00
C115   C     0.83210   0.29047   0.16541   0.00000  Uiso   1.00
C116   C     0.83457   0.04286   0.16792   0.00000  Uiso   1.00
C117   C     0.79577   0.14699   0.02131   0.00000  Uiso   1.00
C118   C     0.87089   0.18635   0.31202   0.00000  Uiso   1.00
C119   C     0.79568   0.14639   0.30553   0.00000  Uiso   1.00
C120   C     0.87099   0.18694   0.02780   0.00000  Uiso   1.00
Cu121  Cu    0.83333   0.16667   0.21355   0.00000  Uiso   1.00
Cu122  Cu    0.83333   0.16666   0.11978   0.00000  Uiso   1.00
H123   H     0.76596   0.13082   0.03696   0.00000  Uiso   1.00
H124   H     0.90071   0.20251   0.29638   0.00000  Uiso   1.00
N125   N     0.83335   0.16668   0.28403   0.00000  Uiso   1.00
N126   N     0.83332   0.16666   0.04931   0.00000  Uiso   1.00
O127   O     0.83333   0.10655   0.20625   0.00000  Uiso   1.00
O128   O     0.83334   0.22678   0.12709   0.00000  Uiso   1.00
O129   O     0.83333   0.10654   0.12706   0.00000  Uiso   1.00
O130   O     0.83334   0.22679   0.20628   0.00000  Uiso   1.00
O131   O     0.75828   0.16667   0.19712   0.00000  Uiso   1.00
O132   O     0.90839   0.16666   0.13621   0.00000  Uiso   1.00
O133   O     0.75828   0.16666   0.11793   0.00000  Uiso   1.00
O134   O     0.90839   0.16667   0.21540   0.00000  Uiso   1.00
O135   O     0.98907   0.14359   0.10830   0.00000  Uiso   1.00
C136   C     0.67241   0.10265   0.10372   0.00000  Uiso   1.00
H137   H     0.67461   0.08465   0.13725   0.00000  Uiso   1.00
H138   H     0.70994   0.10223   0.09018   0.00000  Uiso   1.00
H139   H     0.97790   0.08677   0.07776   0.00000  Uiso   1.00
O140   O     0.67760   0.18974   0.22503   0.00000  Uiso   1.00
C141   C     0.99426   0.23068   0.22962   0.00000  Uiso   1.00
H142   H     0.95673   0.23111   0.24314   0.00000  Uiso   1.00
H143   H     0.99207   0.24869   0.19609   0.00000  Uiso   1.00
H144   H     0.68877   0.24656   0.25557   0.00000  Uiso   1.00
O145   O     0.91607   0.04209   0.13531   0.00000  Uiso   1.00
H146   H     0.91912   0.07019   0.14842   0.00000  Uiso   1.00
O147   O     0.75060   0.29124   0.19801   0.00000  Uiso   1.00
H148   H     0.74755   0.26314   0.18492   0.00000  Uiso   1.00
O149   O     0.91118   0.28905   0.13256   0.00000  Uiso   1.00
H150   H     0.93728   0.30769   0.12152   0.00000  Uiso   1.00
O151   O     0.75548   0.04428   0.20077   0.00000  Uiso   1.00
H152   H     0.72941   0.02565   0.21184   0.00000  Uiso   1.00
O153   O     0.75657   0.12466   0.28083   0.00000  Uiso   1.00
H154   H     0.76954   0.11321   0.25331   0.00000  Uiso   1.00
O155   O     0.91010   0.20868   0.05251   0.00000  Uiso   1.00
H156   H     0.89713   0.22013   0.08003   0.00000  Uiso   1.00
C157   C     0.16686   0.42089   0.16702   0.00000  Uiso   1.00
C158   C     0.16648   0.57911   0.16631   0.00000  Uiso   1.00
C159   C     0.06827   0.49893   0.15502   0.00000  Uiso   1.00
C160   C     0.26507   0.50107   0.17832   0.00000  Uiso   1.00
C161   C     0.01340   0.49367   0.14952   0.00000  Uiso   1.00
C162   C     0.31993   0.50633   0.18381   0.00000  Uiso   1.00
C163   C     0.20791   0.35505   0.15027   0.00000  Uiso   1.00
C164   C     0.12542   0.64495   0.18307   0.00000  Uiso   1.00
C165   C     0.20613   0.64510   0.14858   0.00000  Uiso   1.00
C166   C     0.12720   0.35490   0.18475   0.00000  Uiso   1.00
C167   C     0.16543   0.62381   0.16541   0.00000  Uiso   1.00
C168   C     0.16790   0.37619   0.16792   0.00000  Uiso   1.00
C169   C     0.12911   0.48032   0.02131   0.00000  Uiso   1.00
C170   C     0.20423   0.51968   0.31202   0.00000  Uiso   1.00
C171   C     0.12901   0.47973   0.30553   0.00000  Uiso   1.00
C172   C     0.20432   0.52027   0.02780   0.00000  Uiso   1.00
Cu173  Cu    0.16667   0.50001   0.21355   0.00000  Uiso   1.00
Cu174  Cu    0.16667   0.49999   0.11978   0.00000  Uiso   1.00
H175   H     0.09929   0.46416   0.03696   0.00000  Uiso   1.00
H176   H     0.23404   0.53584   0.29638   0.00000  Uiso   1.00
N177   N     0.16668   0.50001   0.28403   0.00000  Uiso   1.00
N178   N     0.16665   0.49999   0.04931   0.00000  Uiso   1.00
O179   O     0.16666   0.43989   0.20625   0.00000  Uiso   1.00
O180   O     0.16667   0.56011   0.12709   0.00000  Uiso   1.00
O181   O     0.16666   0.43988   0.12706   0.00000  Uiso   1.00
O182   O     0.16667   0.56012   0.20628   0.00000  Uiso   1.00
O183   O     0.09161   0.50000   0.19712   0.00000  Uiso   1.00
O184   O     0.24172   0.50000   0.13621   0.00000  Uiso   1.00
O185   O     0.09161   0.49999   0.11793   0.00000  Uiso   1.00
O186   O     0.24172   0.50001   0.21540   0.00000  Uiso   1.00
O187   O     0.32240   0.47693   0.10830   0.00000  Uiso   1.00
C188   C     0.00574   0.43599   0.10372   0.00000  Uiso   1.00
H189   H     0.00794   0.41798   0.13725   0.00000  Uiso   1.00
H190   H     0.04328   0.43556   0.09018   0.00000  Uiso   1.00
H191   H     0.31124   0.42010   0.07776   0.00000  Uiso   1.00
O192   O     0.01093   0.52307   0.22503   0.00000  Uiso   1.00
C193   C     0.32760   0.56401   0.22962   0.00000  Uiso   1.00
H194   H     0.29006   0.56444   0.24314   0.00000  Uiso   1.00
H195   H     0.32540   0.58202   0.19609   0.00000  Uiso   1.00
H196   H     0.02210   0.57989   0.25557   0.00000  Uiso   1.00
O197   O     0.24940   0.37543   0.13531   0.00000  Uiso   1.00
H198   H     0.25246   0.40352   0.14842   0.00000  Uiso   1.00
O199   O     0.08393   0.62457   0.19801   0.00000  Uiso   1.00
H200   H     0.08088   0.59648   0.18492   0.00000  Uiso   1.00
O201   O     0.24452   0.62238   0.13256   0.00000  Uiso   1.00
H202   H     0.27061   0.64102   0.12152   0.00000  Uiso   1.00
O203   O     0.08882   0.37762   0.20077   0.00000  Uiso   1.00
H204   H     0.06274   0.35898   0.21184   0.00000  Uiso   1.00
O205   O     0.08990   0.45799   0.28083   0.00000  Uiso   1.00
H206   H     0.10287   0.44654   0.25331   0.00000  Uiso   1.00
O207   O     0.24343   0.54201   0.05251   0.00000  Uiso   1.00
H208   H     0.23046   0.55346   0.08003   0.00000  Uiso   1.00
C209   C     0.50019   0.42089   0.16702   0.00000  Uiso   1.00
C210   C     0.49981   0.57911   0.16631   0.00000  Uiso   1.00
C211   C     0.40160   0.49893   0.15502   0.00000  Uiso   1.00
C212   C     0.59840   0.50107   0.17832   0.00000  Uiso   1.00
C213   C     0.34674   0.49367   0.14952   0.00000  Uiso   1.00
C214   C     0.65326   0.50633   0.18381   0.00000  Uiso   1.00
C215   C     0.54125   0.35505   0.15027   0.00000  Uiso   1.00
C216   C     0.45875   0.64495   0.18307   0.00000  Uiso   1.00
C217   C     0.53947   0.64510   0.14858   0.00000  Uiso   1.00
C218   C     0.46053   0.35490   0.18475   0.00000  Uiso   1.00
C219   C     0.49876   0.62381   0.16541   0.00000  Uiso   1.00
C220   C     0.50124   0.37619   0.16792   0.00000  Uiso   1.00
C221   C     0.46244   0.48032   0.02131   0.00000  Uiso   1.00
C222   C     0.53756   0.51968   0.31202   0.00000  Uiso   1.00
C223   C     0.46234   0.47973   0.30553   0.00000  Uiso   1.00
C224   C     0.53766   0.52027   0.02780   0.00000  Uiso   1.00
Cu225  Cu    0.50000   0.50001   0.21355   0.00000  Uiso   1.00
Cu226  Cu    0.50000   0.49999   0.11978   0.00000  Uiso   1.00
H227   H     0.43263   0.46416   0.03696   0.00000  Uiso   1.00
H228   H     0.56737   0.53584   0.29638   0.00000  Uiso   1.00
N229   N     0.50001   0.50001   0.28403   0.00000  Uiso   1.00
N230   N     0.49999   0.49999   0.04931   0.00000  Uiso   1.00
O231   O     0.50000   0.43989   0.20625   0.00000  Uiso   1.00
O232   O     0.50000   0.56011   0.12709   0.00000  Uiso   1.00
O233   O     0.50000   0.43988   0.12706   0.00000  Uiso   1.00
O234   O     0.50000   0.56012   0.20628   0.00000  Uiso   1.00
O235   O     0.42495   0.50000   0.19712   0.00000  Uiso   1.00
O236   O     0.57505   0.50000   0.13621   0.00000  Uiso   1.00
O237   O     0.42494   0.49999   0.11793   0.00000  Uiso   1.00
O238   O     0.57506   0.50001   0.21540   0.00000  Uiso   1.00
O239   O     0.65574   0.47693   0.10830   0.00000  Uiso   1.00
C240   C     0.33907   0.43599   0.10372   0.00000  Uiso   1.00
H241   H     0.34128   0.41798   0.13725   0.00000  Uiso   1.00
H242   H     0.37661   0.43556   0.09018   0.00000  Uiso   1.00
H243   H     0.64457   0.42010   0.07776   0.00000  Uiso   1.00
O244   O     0.34426   0.52307   0.22503   0.00000  Uiso   1.00
C245   C     0.66093   0.56401   0.22962   0.00000  Uiso   1.00
H246   H     0.62339   0.56444   0.24314   0.00000  Uiso   1.00
H247   H     0.65873   0.58202   0.19609   0.00000  Uiso   1.00
H248   H     0.35543   0.57989   0.25557   0.00000  Uiso   1.00
O249   O     0.58273   0.37543   0.13531   0.00000  Uiso   1.00
H250   H     0.58579   0.40352   0.14842   0.00000  Uiso   1.00
O251   O     0.41726   0.62457   0.19801   0.00000  Uiso   1.00
H252   H     0.41421   0.59648   0.18492   0.00000  Uiso   1.00
O253   O     0.57785   0.62238   0.13256   0.00000  Uiso   1.00
H254   H     0.60394   0.64102   0.12152   0.00000  Uiso   1.00
O255   O     0.42215   0.37762   0.20077   0.00000  Uiso   1.00
H256   H     0.39608   0.35898   0.21184   0.00000  Uiso   1.00
O257   O     0.42324   0.45799   0.28083   0.00000  Uiso   1.00
H258   H     0.43621   0.44654   0.25331   0.00000  Uiso   1.00
O259   O     0.57676   0.54201   0.05251   0.00000  Uiso   1.00
H260   H     0.56379   0.55346   0.08003   0.00000  Uiso   1.00
C261   C     0.83352   0.42089   0.16702   0.00000  Uiso   1.00
C262   C     0.83314   0.57911   0.16631   0.00000  Uiso   1.00
C263   C     0.73494   0.49893   0.15502   0.00000  Uiso   1.00
C264   C     0.93173   0.50107   0.17832   0.00000  Uiso   1.00
C265   C     0.68007   0.49367   0.14952   0.00000  Uiso   1.00
C266   C     0.98660   0.50633   0.18381   0.00000  Uiso   1.00
C267   C     0.87458   0.35505   0.15027   0.00000  Uiso   1.00
C268   C     0.79209   0.64495   0.18307   0.00000  Uiso   1.00
C269   C     0.87280   0.64510   0.14858   0.00000  Uiso   1.00
C270   C     0.79387   0.35490   0.18475   0.00000  Uiso   1.00
C271   C     0.83210   0.62381   0.16541   0.00000  Uiso   1.00
C272   C     0.83457   0.37619   0.16792   0.00000  Uiso   1.00
C273   C     0.79577   0.48032   0.02131   0.00000  Uiso   1.00
C274   C     0.87089   0.51968   0.31202   0.00000  Uiso   1.00
C275   C     0.79568   0.47973   0.30553   0.00000  Uiso   1.00
C276   C     0.87099   0.52027   0.02780   0.00000  Uiso   1.00
Cu277  Cu    0.83333   0.50001   0.21355   0.00000  Uiso   1.00
Cu278  Cu    0.83333   0.49999   0.11978   0.00000  Uiso   1.00
H279   H     0.76596   0.46416   0.03696   0.00000  Uiso   1.00
H280   H     0.90071   0.53584   0.29638   0.00000  Uiso   1.00
N281   N     0.83335   0.50001   0.28403   0.00000  Uiso   1.00
N282   N     0.83332   0.49999   0.04931   0.00000  Uiso   1.00
O283   O     0.83333   0.43989   0.20625   0.00000  Uiso   1.00
O284   O     0.83334   0.56011   0.12709   0.00000  Uiso   1.00
O285   O     0.83333   0.43988   0.12706   0.00000  Uiso   1.00
O286   O     0.83334   0.56012   0.20628   0.00000  Uiso   1.00
O287   O     0.75828   0.50000   0.19712   0.00000  Uiso   1.00
O288   O     0.90839   0.50000   0.13621   0.00000  Uiso   1.00
O289   O     0.75828   0.49999   0.11793   0.00000  Uiso   1.00
O290   O     0.90839   0.50001   0.21540   0.00000  Uiso   1.00
O291   O     0.98907   0.47693   0.10830   0.00000  Uiso   1.00
C292   C     0.67241   0.43599   0.10372   0.00000  Uiso   1.00
H293   H     0.67461   0.41798   0.13725   0.00000  Uiso   1.00
H294   H     0.70994   0.43556   0.09018   0.00000  Uiso   1.00
H295   H     0.97790   0.42010   0.07776   0.00000  Uiso   1.00
O296   O     0.67760   0.52307   0.22503   0.00000  Uiso   1.00
C297   C     0.99426   0.56401   0.22962   0.00000  Uiso   1.00
H298   H     0.95673   0.56444   0.24314   0.00000  Uiso   1.00
H299   H     0.99207   0.58202   0.19609   0.00000  Uiso   1.00
H300   H     0.68877   0.57989   0.25557   0.00000  Uiso   1.00
O301   O     0.91607   0.37543   0.13531   0.00000  Uiso   1.00
H302   H     0.91912   0.40352   0.14842   0.00000  Uiso   1.00
O303   O     0.75060   0.62457   0.19801   0.00000  Uiso   1.00
H304   H     0.74755   0.59648   0.18492   0.00000  Uiso   1.00
O305   O     0.91118   0.62238   0.13256   0.00000  Uiso   1.00
H306   H     0.93728   0.64102   0.12152   0.00000  Uiso   1.00
O307   O     0.75548   0.37762   0.20077   0.00000  Uiso   1.00
H308   H     0.72941   0.35898   0.21184   0.00000  Uiso   1.00
O309   O     0.75657   0.45799   0.28083   0.00000  Uiso   1.00
H310   H     0.76954   0.44654   0.25331   0.00000  Uiso   1.00
O311   O     0.91010   0.54201   0.05251   0.00000  Uiso   1.00
H312   H     0.89713   0.55346   0.08003   0.00000  Uiso   1.00
C313   C     0.16686   0.75422   0.16702   0.00000  Uiso   1.00
C314   C     0.16648   0.91245   0.16631   0.00000  Uiso   1.00
C315   C     0.06827   0.83226   0.15502   0.00000  Uiso   1.00
C316   C     0.26507   0.83440   0.17832   0.00000  Uiso   1.00
C317   C     0.01340   0.82700   0.14952   0.00000  Uiso   1.00
C318   C     0.31993   0.83967   0.18381   0.00000  Uiso   1.00
C319   C     0.20791   0.68838   0.15027   0.00000  Uiso   1.00
C320   C     0.12542   0.97829   0.18307   0.00000  Uiso   1.00
C321   C     0.20613   0.97843   0.14858   0.00000  Uiso   1.00
C322   C     0.12720   0.68824   0.18475   0.00000  Uiso   1.00
C323   C     0.16543   0.95714   0.16541   0.00000  Uiso   1.00
C324   C     0.16790   0.70953   0.16792   0.00000  Uiso   1.00
C325   C     0.12911   0.81365   0.02131   0.00000  Uiso   1.00
C326   C     0.20423   0.85301   0.31202   0.00000  Uiso   1.00
C327   C     0.12901   0.81306   0.30553   0.00000  Uiso   1.00
C328   C     0.20432   0.85361   0.02780   0.00000  Uiso   1.00
Cu329  Cu    0.16667   0.83334   0.21355   0.00000  Uiso   1.00
Cu330  Cu    0.16667   0.83333   0.11978   0.00000  Uiso   1.00
H331   H     0.09929   0.79749   0.03696   0.00000  Uiso   1.00
H332   H     0.23404   0.86918   0.29638   0.00000  Uiso   1.00
N333   N     0.16668   0.83334   0.28403   0.00000  Uiso   1.00
N334   N     0.16665   0.83332   0.04931   0.00000  Uiso   1.00
O335   O     0.16666   0.77322   0.20625   0.00000  Uiso   1.00
O336   O     0.16667   0.89345   0.12709   0.00000  Uiso   1.00
O337   O     0.16666   0.77321   0.12706   0.00000  Uiso   1.00
O338   O     0.16667   0.89346   0.20628   0.00000  Uiso   1.00
O339   O     0.09161   0.83334   0.19712   0.00000  Uiso   1.00
O340   O     0.24172   0.83333   0.13621   0.00000  Uiso   1.00
O341   O     0.09161   0.83333   0.11793   0.00000  Uiso   1.00
O342   O     0.24172   0.83334   0.21540   0.00000  Uiso   1.00
O343   O     0.32240   0.81026   0.10830   0.00000  Uiso   1.00
C344   C     0.00574   0.76932   0.10372   0.00000  Uiso   1.00
H345   H     0.00794   0.75131   0.13725   0.00000  Uiso   1.00
H346   H     0.04328   0.76889   0.09018   0.00000  Uiso   1.00
H347   H     0.31124   0.75344   0.07776   0.00000  Uiso   1.00
O348   O     0.01093   0.85640   0.22503   0.00000  Uiso   1.00
C349   C     0.32760   0.89734   0.22962   0.00000  Uiso   1.00
H350   H     0.29006   0.89777   0.24314   0.00000  Uiso   1.00
H351   H     0.32540   0.91535   0.19609   0.00000  Uiso   1.00
H352   H     0.02210   0.91323   0.25557   0.00000  Uiso   1.00
O353   O     0.24940   0.70876   0.13531   0.00000  Uiso   1.00
H354   H     0.25246   0.73685   0.14842   0.00000  Uiso   1.00
O355   O     0.08393   0.95791   0.19801   0.00000  Uiso   1.00
H356   H     0.08088   0.92981   0.18492   0.00000  Uiso   1.00
O357   O     0.24452   0.95572   0.13256   0.00000  Uiso   1.00
H358   H     0.27061   0.97435   0.12152   0.00000  Uiso   1.00
O359   O     0.08882   0.71095   0.20077   0.00000  Uiso   1.00
H360   H     0.06274   0.69231   0.21184   0.00000  Uiso   1.00
O361   O     0.08990   0.79132   0.28083   0.00000  Uiso   1.00
H362   H     0.10287   0.77987   0.25331   0.00000  Uiso   1.00
O363   O     0.24343   0.87534   0.05251   0.00000  Uiso   1.00
H364   H     0.23046   0.88679   0.08003   0.00000  Uiso   1.00
C365   C     0.50019   0.75422   0.16702   0.00000  Uiso   1.00
C366   C     0.49981   0.91245   0.16631   0.00000  Uiso   1.00
C367   C     0.40160   0.83226   0.15502   0.00000  Uiso   1.00
C368   C     0.59840   0.83440   0.17832   0.00000  Uiso   1.00
C369   C     0.34674   0.82700   0.14952   0.00000  Uiso   1.00
C370   C     0.65326   0.83967   0.18381   0.00000  Uiso   1.00
C371   C     0.54125   0.68838   0.15027   0.00000  Uiso   1.00
C372   C     0.45875   0.97829   0.18307   0.00000  Uiso   1.00
C373   C     0.53947   0.97843   0.14858   0.00000  Uiso   1.00
C374   C     0.46053   0.68824   0.18475   0.00000  Uiso   1.00
C375   C     0.49876   0.95714   0.16541   0.00000  Uiso   1.00
C376   C     0.50124   0.70953   0.16792   0.00000  Uiso   1.00
C377   C     0.46244   0.81365   0.02131   0.00000  Uiso   1.00
C378   C     0.53756   0.85301   0.31202   0.00000  Uiso   1.00
C379   C     0.46234   0.81306   0.30553   0.00000  Uiso   1.00
C380   C     0.53766   0.85361   0.02780   0.00000  Uiso   1.00
Cu381  Cu    0.50000   0.83334   0.21355   0.00000  Uiso   1.00
Cu382  Cu    0.50000   0.83333   0.11978   0.00000  Uiso   1.00
H383   H     0.43263   0.79749   0.03696   0.00000  Uiso   1.00
H384   H     0.56737   0.86918   0.29638   0.00000  Uiso   1.00
N385   N     0.50001   0.83334   0.28403   0.00000  Uiso   1.00
N386   N     0.49999   0.83332   0.04931   0.00000  Uiso   1.00
O387   O     0.50000   0.77322   0.20625   0.00000  Uiso   1.00
O388   O     0.50000   0.89345   0.12709   0.00000  Uiso   1.00
O389   O     0.50000   0.77321   0.12706   0.00000  Uiso   1.00
O390   O     0.50000   0.89346   0.20628   0.00000  Uiso   1.00
O391   O     0.42495   0.83334   0.19712   0.00000  Uiso   1.00
O392   O     0.57505   0.83333   0.13621   0.00000  Uiso   1.00
O393   O     0.42494   0.83333   0.11793   0.00000  Uiso   1.00
O394   O     0.57506   0.83334   0.21540   0.00000  Uiso   1.00
O395   O     0.65574   0.81026   0.10830   0.00000  Uiso   1.00
C396   C     0.33907   0.76932   0.10372   0.00000  Uiso   1.00
H397   H     0.34128   0.75131   0.13725   0.00000  Uiso   1.00
H398   H     0.37661   0.76889   0.09018   0.00000  Uiso   1.00
H399   H     0.64457   0.75344   0.07776   0.00000  Uiso   1.00
O400   O     0.34426   0.85640   0.22503   0.00000  Uiso   1.00
C401   C     0.66093   0.89734   0.22962   0.00000  Uiso   1.00
H402   H     0.62339   0.89777   0.24314   0.00000  Uiso   1.00
H403   H     0.65873   0.91535   0.19609   0.00000  Uiso   1.00
H404   H     0.35543   0.91323   0.25557   0.00000  Uiso   1.00
O405   O     0.58273   0.70876   0.13531   0.00000  Uiso   1.00
H406   H     0.58579   0.73685   0.14842   0.00000  Uiso   1.00
O407   O     0.41726   0.95791   0.19801   0.00000  Uiso   1.00
H408   H     0.41421   0.92981   0.18492   0.00000  Uiso   1.00
O409   O     0.57785   0.95572   0.13256   0.00000  Uiso   1.00
H410   H     0.60394   0.97435   0.12152   0.00000  Uiso   1.00
O411   O     0.42215   0.71095   0.20077   0.00000  Uiso   1.00
H412   H     0.39608   0.69231   0.21184   0.00000  Uiso   1.00
O413   O     0.42324   0.79132   0.28083   0.00000  Uiso   1.00
H414   H     0.43621   0.77987   0.25331   0.00000  Uiso   1.00
O415   O     0.57676   0.87534   0.05251   0.00000  Uiso   1.00
H416   H     0.56379   0.88679   0.08003   0.00000  Uiso   1.00
C417   C     0.83352   0.75422   0.16702   0.00000  Uiso   1.00
C418   C     0.83314   0.91245   0.16631   0.00000  Uiso   1.00
C419   C     0.73494   0.83226   0.15502   0.00000  Uiso   1.00
C420   C     0.93173   0.83440   0.17832   0.00000  Uiso   1.00
C421   C     0.68007   0.82700   0.14952   0.00000  Uiso   1.00
C422   C     0.98660   0.83967   0.18381   0.00000  Uiso   1.00
C423   C     0.87458   0.68838   0.15027   0.00000  Uiso   1.00
C424   C     0.79209   0.97829   0.18307   0.00000  Uiso   1.00
C425   C     0.87280   0.97843   0.14858   0.00000  Uiso   1.00
C426   C     0.79387   0.68824   0.18475   0.00000  Uiso   1.00
C427   C     0.83210   0.95714   0.16541   0.00000  Uiso   1.00
C428   C     0.83457   0.70953   0.16792   0.00000  Uiso   1.00
C429   C     0.79577   0.81365   0.02131   0.00000  Uiso   1.00
C430   C     0.87089   0.85301   0.31202   0.00000  Uiso   1.00
C431   C     0.79568   0.81306   0.30553   0.00000  Uiso   1.00
C432   C     0.87099   0.85361   0.02780   0.00000  Uiso   1.00
Cu433  Cu    0.83333   0.83334   0.21355   0.00000  Uiso   1.00
Cu434  Cu    0.83333   0.83333   0.11978   0.00000  Uiso   1.00
H435   H     0.76596   0.79749   0.03696   0.00000  Uiso   1.00
H436   H     0.90071   0.86918   0.29638   0.00000  Uiso   1.00
N437   N     0.83335   0.83334   0.28403   0.00000  Uiso   1.00
N438   N     0.83332   0.83332   0.04931   0.00000  Uiso   1.00
O439   O     0.83333   0.77322   0.20625   0.00000  Uiso   1.00
O440   O     0.83334   0.89345   0.12709   0.00000  Uiso   1.00
O441   O     0.83333   0.77321   0.12706   0.00000  Uiso   1.00
O442   O     0.83334   0.89346   0.20628   0.00000  Uiso   1.00
O443   O     0.75828   0.83334   0.19712   0.00000  Uiso   1.00
O444   O     0.90839   0.83333   0.13621   0.00000  Uiso   1.00
O445   O     0.75828   0.83333   0.11793   0.00000  Uiso   1.00
O446   O     0.90839   0.83334   0.21540   0.00000  Uiso   1.00
O447   O     0.98907   0.81026   0.10830   0.00000  Uiso   1.00
C448   C     0.67241   0.76932   0.10372   0.00000  Uiso   1.00
H449   H     0.67461   0.75131   0.13725   0.00000  Uiso   1.00
H450   H     0.70994   0.76889   0.09018   0.00000  Uiso   1.00
H451   H     0.97790   0.75344   0.07776   0.00000  Uiso   1.00
O452   O     0.67760   0.85640   0.22503   0.00000  Uiso   1.00
C453   C     0.99426   0.89734   0.22962   0.00000  Uiso   1.00
H454   H     0.95673   0.89777   0.24314   0.00000  Uiso   1.00
H455   H     0.99207   0.91535   0.19609   0.00000  Uiso   1.00
H456   H     0.68877   0.91323   0.25557   0.00000  Uiso   1.00
O457   O     0.91607   0.70876   0.13531   0.00000  Uiso   1.00
H458   H     0.91912   0.73685   0.14842   0.00000  Uiso   1.00
O459   O     0.75060   0.95791   0.19801   0.00000  Uiso   1.00
H460   H     0.74755   0.92981   0.18492   0.00000  Uiso   1.00
O461   O     0.91118   0.95572   0.13256   0.00000  Uiso   1.00
H462   H     0.93728   0.97435   0.12152   0.00000  Uiso   1.00
O463   O     0.75548   0.71095   0.20077   0.00000  Uiso   1.00
H464   H     0.72941   0.69231   0.21184   0.00000  Uiso   1.00
O465   O     0.75657   0.79132   0.28083   0.00000  Uiso   1.00
H466   H     0.76954   0.77987   0.25331   0.00000  Uiso   1.00
O467   O     0.91010   0.87534   0.05251   0.00000  Uiso   1.00
H468   H     0.89713   0.88679   0.08003   0.00000  Uiso   1.00
C469   C     0.16686   0.08755   0.50036   0.00000  Uiso   1.00
C470   C     0.16648   0.24578   0.49964   0.00000  Uiso   1.00
C471   C     0.06827   0.16559   0.48835   0.00000  Uiso   1.00
C472   C     0.26507   0.16774   0.51165   0.00000  Uiso   1.00
C473   C     0.01340   0.16033   0.48286   0.00000  Uiso   1.00
C474   C     0.31993   0.17300   0.51714   0.00000  Uiso   1.00
C475   C     0.20791   0.02171   0.48360   0.00000  Uiso   1.00
C476   C     0.12542   0.31162   0.51640   0.00000  Uiso   1.00
C477   C     0.20613   0.31176   0.48192   0.00000  Uiso   1.00
C478   C     0.12720   0.02157   0.51808   0.00000  Uiso   1.00
C479   C     0.16543   0.29047   0.49874   0.00000  Uiso   1.00
C480   C     0.16790   0.04286   0.50126   0.00000  Uiso   1.00
C481   C     0.12911   0.14699   0.35465   0.00000  Uiso   1.00
C482   C     0.20423   0.18635   0.64535   0.00000  Uiso   1.00
C483   C     0.12901   0.14639   0.63886   0.00000  Uiso   1.00
C484   C     0.20432   0.18694   0.36114   0.00000  Uiso   1.00
Cu485  Cu    0.16667   0.16667   0.54689   0.00000  Uiso   1.00
Cu486  Cu    0.16667   0.16666   0.45311   0.00000  Uiso   1.00
H487   H     0.09929   0.13082   0.37029   0.00000  Uiso   1.00
H488   H     0.23404   0.20251   0.62971   0.00000  Uiso   1.00
N489   N     0.16668   0.16668   0.61736   0.00000  Uiso   1.00
N490   N     0.16665   0.16666   0.38264   0.00000  Uiso   1.00
O491   O     0.16666   0.10655   0.53958   0.00000  Uiso   1.00
O492   O     0.16667   0.22678   0.46042   0.00000  Uiso   1.00
O493   O     0.16666   0.10654   0.46039   0.00000  Uiso   1.00
O494   O     0.16667   0.22679   0.53961   0.00000  Uiso   1.00
O495   O     0.09161   0.16667   0.53046   0.00000  Uiso   1.00
O496   O     0.24172   0.16666   0.46954   0.00000  Uiso   1.00
O497   O     0.09161   0.16666   0.45127   0.00000  Uiso   1.00
O498   O     0.24172   0.16667   0.54873   0.00000  Uiso   1.00
O499   O     0.32240   0.14359   0.44164   0.00000  Uiso   1.00
C500   C     0.00574   0.10265   0.43705   0.00000  Uiso   1.00
H501   H     0.00794   0.08465   0.47058   0.00000  Uiso   1.00
H502   H     0.04328   0.10223   0.42352   0.00000  Uiso   1.00
H503   H     0.31124   0.08677   0.41110   0.00000  Uiso   1.00
O504   O     0.01093   0.18974   0.55837   0.00000  Uiso   1.00
C505   C     0.32760   0.23068   0.56295   0.00000  Uiso   1.00
H506   H     0.29006   0.23111   0.57648   0.00000  Uiso   1.00
H507   H     0.32540   0.24869   0.52942   0.00000  Uiso   1.00
H508   H     0.02210   0.24656   0.58890   0.00000  Uiso   1.00
O509   O     0.24940   0.04209   0.46865   0.00000  Uiso   1.00
H510   H     0.25246   0.07019   0.48175   0.00000  Uiso   1.00
O511   O     0.08393   0.29124   0.53135   0.00000  Uiso   1.00
H512   H     0.08088   0.26314   0.51825   0.00000  Uiso   1.00
O513   O     0.24452   0.28905   0.46589   0.00000  Uiso   1.00
H514   H     0.27061   0.30769   0.45486   0.00000  Uiso   1.00
O515   O     0.08882   0.04428   0.53410   0.00000  Uiso   1.00
H516   H     0.06274   0.02565   0.54517   0.00000  Uiso   1.00
O517   O     0.08990   0.12466   0.61416   0.00000  Uiso   1.00
H518   H     0.10287   0.11321   0.58664   0.00000  Uiso   1.00
O519   O     0.24343   0.20868   0.38584   0.00000  Uiso   1.00
H520   H     0.23046   0.22013   0.41336   0.00000  Uiso   1.00
C521   C     0.50019   0.08755   0.50036   0.00000  Uiso   1.00
C522   C     0.49981   0.24578   0.49964   0.00000  Uiso   1.00
C523   C     0.40160   0.16559   0.48835   0.00000  Uiso   1.00
C524   C     0.59840   0.16774   0.51165   0.00000  Uiso   1.00
C525   C     0.34674   0.16033   0.48286   0.00000  Uiso   1.00
C526   C     0.65326   0.17300   0.51714   0.00000  Uiso   1.00
C527   C     0.54125   0.02171   0.48360   0.00000  Uiso   1.00
C528   C     0.45875   0.31162   0.51640   0.00000  Uiso   1.00
C529   C     0.53947   0.31176   0.48192   0.00000  Uiso   1.00
C530   C     0.46053   0.02157   0.51808   0.00000  Uiso   1.00
C531   C     0.49876   0.29047   0.49874   0.00000  Uiso   1.00
C532   C     0.50124   0.04286   0.50126   0.00000  Uiso   1.00
C533   C     0.46244   0.14699   0.35465   0.00000  Uiso   1.00
C534   C     0.53756   0.18635   0.64535   0.00000  Uiso   1.00
C535   C     0.46234   0.14639   0.63886   0.00000  Uiso   1.00
C536   C     0.53766   0.18694   0.36114   0.00000  Uiso   1.00
Cu537  Cu    0.50000   0.16667   0.54689   0.00000  Uiso   1.00
Cu538  Cu    0.50000   0.16666   0.45311   0.00000  Uiso   1.00
H539   H     0.43263   0.13082   0.37029   0.00000  Uiso   1.00
H540   H     0.56737   0.20251   0.62971   0.00000  Uiso   1.00
N541   N     0.50001   0.16668   0.61736   0.00000  Uiso   1.00
N542   N     0.49999   0.16666   0.38264   0.00000  Uiso   1.00
O543   O     0.50000   0.10655   0.53958   0.00000  Uiso   1.00
O544   O     0.50000   0.22678   0.46042   0.00000  Uiso   1.00
O545   O     0.50000   0.10654   0.46039   0.00000  Uiso   1.00
O546   O     0.50000   0.22679   0.53961   0.00000  Uiso   1.00
O547   O     0.42495   0.16667   0.53046   0.00000  Uiso   1.00
O548   O     0.57505   0.16666   0.46954   0.00000  Uiso   1.00
O549   O     0.42494   0.16666   0.45127   0.00000  Uiso   1.00
O550   O     0.57506   0.16667   0.54873   0.00000  Uiso   1.00
O551   O     0.65574   0.14359   0.44164   0.00000  Uiso   1.00
C552   C     0.33907   0.10265   0.43705   0.00000  Uiso   1.00
H553   H     0.34128   0.08465   0.47058   0.00000  Uiso   1.00
H554   H     0.37661   0.10223   0.42352   0.00000  Uiso   1.00
H555   H     0.64457   0.08677   0.41110   0.00000  Uiso   1.00
O556   O     0.34426   0.18974   0.55837   0.00000  Uiso   1.00
C557   C     0.66093   0.23068   0.56295   0.00000  Uiso   1.00
H558   H     0.62339   0.23111   0.57648   0.00000  Uiso   1.00
H559   H     0.65873   0.24869   0.52942   0.00000  Uiso   1.00
H560   H     0.35543   0.24656   0.58890   0.00000  Uiso   1.00
O561   O     0.58273   0.04209   0.46865   0.00000  Uiso   1.00
H562   H     0.58579   0.07019   0.48175   0.00000  Uiso   1.00
O563   O     0.41726   0.29124   0.53135   0.00000  Uiso   1.00
H564   H     0.41421   0.26314   0.51825   0.00000  Uiso   1.00
O565   O     0.57785   0.28905   0.46589   0.00000  Uiso   1.00
H566   H     0.60394   0.30769   0.45486   0.00000  Uiso   1.00
O567   O     0.42215   0.04428   0.53410   0.00000  Uiso   1.00
H568   H     0.39608   0.02565   0.54517   0.00000  Uiso   1.00
O569   O     0.42324   0.12466   0.61416   0.00000  Uiso   1.00
H570   H     0.43621   0.11321   0.58664   0.00000  Uiso   1.00
O571   O     0.57676   0.20868   0.38584   0.00000  Uiso   1.00
H572   H     0.56379   0.22013   0.41336   0.00000  Uiso   1.00
C573   C     0.83352   0.08755   0.50036   0.00000  Uiso   1.00
C574   C     0.83314   0.24578   0.49964   0.00000  Uiso   1.00
C575   C     0.73494   0.16559   0.48835   0.00000  Uiso   1.00
C576   C     0.93173   0.16774   0.51165   0.00000  Uiso   1.00
C577   C     0.68007   0.16033   0.48286   0.00000  Uiso   1.00
C578   C     0.98660   0.17300   0.51714   0.00000  Uiso   1.00
C579   C     0.87458   0.02171   0.48360   0.00000  Uiso   1.00
C580   C     0.79209   0.31162   0.51640   0.00000  Uiso   1.00
C581   C     0.87280   0.31176   0.48192   0.00000  Uiso   1.00
C582   C     0.79387   0.02157   0.51808   0.00000  Uiso   1.00
C583   C     0.83210   0.29047   0.49874   0.00000  Uiso   1.00
C584   C     0.83457   0.04286   0.50126   0.00000  Uiso   1.00
C585   C     0.79577   0.14699   0.35465   0.00000  Uiso   1.00
C586   C     0.87089   0.18635   0.64535   0.00000  Uiso   1.00
C587   C     0.79568   0.14639   0.63886   0.00000  Uiso   1.00
C588   C     0.87099   0.18694   0.36114   0.00000  Uiso   1.00
Cu589  Cu    0.83333   0.16667   0.54689   0.00000  Uiso   1.00
Cu590  Cu    0.83333   0.16666   0.45311   0.00000  Uiso   1.00
H591   H     0.76596   0.13082   0.37029   0.00000  Uiso   1.00
H592   H     0.90071   0.20251   0.62971   0.00000  Uiso   1.00
N593   N     0.83335   0.16668   0.61736   0.00000  Uiso   1.00
N594   N     0.83332   0.16666   0.38264   0.00000  Uiso   1.00
O595   O     0.83333   0.10655   0.53958   0.00000  Uiso   1.00
O596   O     0.83334   0.22678   0.46042   0.00000  Uiso   1.00
O597   O     0.83333   0.10654   0.46039   0.00000  Uiso   1.00
O598   O     0.83334   0.22679   0.53961   0.00000  Uiso   1.00
O599   O     0.75828   0.16667   0.53046   0.00000  Uiso   1.00
O600   O     0.90839   0.16666   0.46954   0.00000  Uiso   1.00
O601   O     0.75828   0.16666   0.45127   0.00000  Uiso   1.00
O602   O     0.90839   0.16667   0.54873   0.00000  Uiso   1.00
O603   O     0.98907   0.14359   0.44164   0.00000  Uiso   1.00
C604   C     0.67241   0.10265   0.43705   0.00000  Uiso   1.00
H605   H     0.67461   0.08465   0.47058   0.00000  Uiso   1.00
H606   H     0.70994   0.10223   0.42352   0.00000  Uiso   1.00
H607   H     0.97790   0.08677   0.41110   0.00000  Uiso   1.00
O608   O     0.67760   0.18974   0.55837   0.00000  Uiso   1.00
C609   C     0.99426   0.23068   0.56295   0.00000  Uiso   1.00
H610   H     0.95673   0.23111   0.57648   0.00000  Uiso   1.00
H611   H     0.99207   0.24869   0.52942   0.00000  Uiso   1.00
H612   H     0.68877   0.24656   0.58890   0.00000  Uiso   1.00
O613   O     0.91607   0.04209   0.46865   0.00000  Uiso   1.00
H614   H     0.91912   0.07019   0.48175   0.00000  Uiso   1.00
O615   O     0.75060   0.29124   0.53135   0.00000  Uiso   1.00
H616   H     0.74755   0.26314   0.51825   0.00000  Uiso   1.00
O617   O     0.91118   0.28905   0.46589   0.00000  Uiso   1.00
H618   H     0.93728   0.30769   0.45486   0.00000  Uiso   1.00
O619   O     0.75548   0.04428   0.53410   0.00000  Uiso   1.00
H620   H     0.72941   0.02565   0.54517   0.00000  Uiso   1.00
O621   O     0.75657   0.12466   0.61416   0.00000  Uiso   1.00
H622   H     0.76954   0.11321   0.58664   0.00000  Uiso   1.00
O623   O     0.91010   0.20868   0.38584   0.00000  Uiso   1.00
H624   H     0.89713   0.22013   0.41336   0.00000  Uiso   1.00
C625   C     0.16686   0.42089   0.50036   0.00000  Uiso   1.00
C626   C     0.16648   0.57911   0.49964   0.00000  Uiso   1.00
C627   C     0.06827   0.49893   0.48835   0.00000  Uiso   1.00
C628   C     0.26507   0.50107   0.51165   0.00000  Uiso   1.00
C629   C     0.01340   0.49367   0.48286   0.00000  Uiso   1.00
C630   C     0.31993   0.50633   0.51714   0.00000  Uiso   1.00
C631   C     0.20791   0.35505   0.48360   0.00000  Uiso   1.00
C632   C     0.12542   0.64495   0.51640   0.00000  Uiso   1.00
C633   C     0.20613   0.64510   0.48192   0.00000  Uiso   1.00
C634   C     0.12720   0.35490   0.51808   0.00000  Uiso   1.00
C635   C     0.16543   0.62381   0.49874   0.00000  Uiso   1.00
C636   C     0.16790   0.37619   0.50126   0.00000  Uiso   1.00
C637   C     0.12911   0.48032   0.35465   0.00000  Uiso   1.00
C638   C     0.20423   0.51968   0.64535   0.00000  Uiso   1.00
C639   C     0.12901   0.47973   0.63886   0.00000  Uiso   1.00
C640   C     0.20432   0.52027   0.36114   0.00000  Uiso   1.00
Cu641  Cu    0.16667   0.50001   0.54689   0.00000  Uiso   1.00
Cu642  Cu    0.16667   0.49999   0.45311   0.00000  Uiso   1.00
H643   H     0.09929   0.46416   0.37029   0.00000  Uiso   1.00
H644   H     0.23404   0.53584   0.62971   0.00000  Uiso   1.00
N645   N     0.16668   0.50001   0.61736   0.00000  Uiso   1.00
N646   N     0.16665   0.49999   0.38264   0.00000  Uiso   1.00
O647   O     0.16666   0.43989   0.53958   0.00000  Uiso   1.00
O648   O     0.16667   0.56011   0.46042   0.00000  Uiso   1.00
O649   O     0.16666   0.43988   0.46039   0.00000  Uiso   1.00
O650   O     0.16667   0.56012   0.53961   0.00000  Uiso   1.00
O651   O     0.09161   0.50000   0.53046   0.00000  Uiso   1.00
O652   O     0.24172   0.50000   0.46954   0.00000  Uiso   1.00
O653   O     0.09161   0.49999   0.45127   0.00000  Uiso   1.00
O654   O     0.24172   0.50001   0.54873   0.00000  Uiso   1.00
O655   O     0.32240   0.47693   0.44164   0.00000  Uiso   1.00
C656   C     0.00574   0.43599   0.43705   0.00000  Uiso   1.00
H657   H     0.00794   0.41798   0.47058   0.00000  Uiso   1.00
H658   H     0.04328   0.43556   0.42352   0.00000  Uiso   1.00
H659   H     0.31124   0.42010   0.41110   0.00000  Uiso   1.00
O660   O     0.01093   0.52307   0.55837   0.00000  Uiso   1.00
C661   C     0.32760   0.56401   0.56295   0.00000  Uiso   1.00
H662   H     0.29006   0.56444   0.57648   0.00000  Uiso   1.00
H663   H     0.32540   0.58202   0.52942   0.00000  Uiso   1.00
H664   H     0.02210   0.57989   0.58890   0.00000  Uiso   1.00
O665   O     0.24940   0.37543   0.46865   0.00000  Uiso   1.00
H666   H     0.25246   0.40352   0.48175   0.00000  Uiso   1.00
O667   O     0.08393   0.62457   0.53135   0.00000  Uiso   1.00
H668   H     0.08088   0.59648   0.51825   0.00000  Uiso   1.00
O669   O     0.24452   0.62238   0.46589   0.00000  Uiso   1.00
H670   H     0.27061   0.64102   0.45486   0.00000  Uiso   1.00
O671   O     0.08882   0.37762   0.53410   0.00000  Uiso   1.00
H672   H     0.06274   0.35898   0.54517   0.00000  Uiso   1.00
O673   O     0.08990   0.45799   0.61416   0.00000  Uiso   1.00
H674   H     0.10287   0.44654   0.58664   0.00000  Uiso   1.00
O675   O     0.24343   0.54201   0.38584   0.00000  Uiso   1.00
H676   H     0.23046   0.55346   0.41336   0.00000  Uiso   1.00
C677   C     0.50019   0.42089   0.50036   0.00000  Uiso   1.00
C678   C     0.49981   0.57911   0.49964   0.00000  Uiso   1.00
C679   C     0.40160   0.49893   0.48835   0.00000  Uiso   1.00
C680   C     0.59840   0.50107   0.51165   0.00000  Uiso   1.00
C681   C     0.34674   0.49367   0.48286   0.00000  Uiso   1.00
C682   C     0.65326   0.50633   0.51714   0.00000  Uiso   1.00
C683   C     0.54125   0.35505   0.48360   0.00000  Uiso   1.00
C684   C     0.45875   0.64495   0.51640   0.00000  Uiso   1.00
C685   C     0.53947   0.64510   0.48192   0.00000  Uiso   1.00
C686   C     0.46053   0.35490   0.51808   0.00000  Uiso   1.00
C687   C     0.49876   0.62381   0.49874   0.00000  Uiso   1.00
C688   C     0.50124   0.37619   0.50126   0.00000  Uiso   1.00
C689   C     0.46244   0.48032   0.35465   0.00000  Uiso   1.00
C690   C     0.53756   0.51968   0.64535   0.00000  Uiso   1.00
C691   C     0.46234   0.47973   0.63886   0.00000  Uiso   1.00
C692   C     0.53766   0.52027   0.36114   0.00000  Uiso   1.00
Cu693  Cu    0.50000   0.50001   0.54689   0.00000  Uiso   1.00
Cu694  Cu    0.50000   0.49999   0.45311   0.00000  Uiso   1.00
H695   H     0.43263   0.46416   0.37029   0.00000  Uiso   1.00
H696   H     0.56737   0.53584   0.62971   0.00000  Uiso   1.00
N697   N     0.50001   0.50001   0.61736   0.00000  Uiso   1.00
N698   N     0.49999   0.49999   0.38264   0.00000  Uiso   1.00
O699   O     0.50000   0.43989   0.53958   0.00000  Uiso   1.00
O700   O     0.50000   0.56011   0.46042   0.00000  Uiso   1.00
O701   O     0.50000   0.43988   0.46039   0.00000  Uiso   1.00
O702   O     0.50000   0.56012   0.53961   0.00000  Uiso   1.00
O703   O     0.42495   0.50000   0.53046   0.00000  Uiso   1.00
O704   O     0.57505   0.50000   0.46954   0.00000  Uiso   1.00
O705   O     0.42494   0.49999   0.45127   0.00000  Uiso   1.00
O706   O     0.57506   0.50001   0.54873   0.00000  Uiso   1.00
O707   O     0.65574   0.47693   0.44164   0.00000  Uiso   1.00
C708   C     0.33907   0.43599   0.43705   0.00000  Uiso   1.00
H709   H     0.34128   0.41798   0.47058   0.00000  Uiso   1.00
H710   H     0.37661   0.43556   0.42352   0.00000  Uiso   1.00
H711   H     0.64457   0.42010   0.41110   0.00000  Uiso   1.00
O712   O     0.34426   0.52307   0.55837   0.00000  Uiso   1.00
C713   C     0.66093   0.56401   0.56295   0.00000  Uiso   1.00
H714   H     0.62339   0.56444   0.57648   0.00000  Uiso   1.00
H715   H     0.65873   0.58202   0.52942   0.00000  Uiso   1.00
H716   H     0.35543   0.57989   0.58890   0.00000  Uiso   1.00
O717   O     0.58273   0.37543   0.46865   0.00000  Uiso   1.00
H718   H     0.58579   0.40352   0.48175   0.00000  Uiso   1.00
O719   O     0.41726   0.62457   0.53135   0.00000  Uiso   1.00
H720   H     0.41421   0.59648   0.51825   0.00000  Uiso   1.00
O721   O     0.57785   0.62238   0.46589   0.00000  Uiso   1.00
H722   H     0.60394   0.64102   0.45486   0.00000  Uiso   1.00
O723   O     0.42215   0.37762   0.53410   0.00000  Uiso   1.00
H724   H     0.39608   0.35898   0.54517   0.00000  Uiso   1.00
O725   O     0.42324   0.45799   0.61416   0.00000  Uiso   1.00
H726   H     0.43621   0.44654   0.58664   0.00000  Uiso   1.00
O727   O     0.57676   0.54201   0.38584   0.00000  Uiso   1.00
H728   H     0.56379   0.55346   0.41336   0.00000  Uiso   1.00
C729   C     0.83352   0.42089   0.50036   0.00000  Uiso   1.00
C730   C     0.83314   0.57911   0.49964   0.00000  Uiso   1.00
C731   C     0.73494   0.49893   0.48835   0.00000  Uiso   1.00
C732   C     0.93173   0.50107   0.51165   0.00000  Uiso   1.00
C733   C     0.68007   0.49367   0.48286   0.00000  Uiso   1.00
C734   C     0.98660   0.50633   0.51714   0.00000  Uiso   1.00
C735   C     0.87458   0.35505   0.48360   0.00000  Uiso   1.00
C736   C     0.79209   0.64495   0.51640   0.00000  Uiso   1.00
C737   C     0.87280   0.64510   0.48192   0.00000  Uiso   1.00
C738   C     0.79387   0.35490   0.51808   0.00000  Uiso   1.00
C739   C     0.83210   0.62381   0.49874   0.00000  Uiso   1.00
C740   C     0.83457   0.37619   0.50126   0.00000  Uiso   1.00
C741   C     0.79577   0.48032   0.35465   0.00000  Uiso   1.00
C742   C     0.87089   0.51968   0.64535   0.00000  Uiso   1.00
C743   C     0.79568   0.47973   0.63886   0.00000  Uiso   1.00
C744   C     0.87099   0.52027   0.36114   0.00000  Uiso   1.00
Cu745  Cu    0.83333   0.50001   0.54689   0.00000  Uiso   1.00
Cu746  Cu    0.83333   0.49999   0.45311   0.00000  Uiso   1.00
H747   H     0.76596   0.46416   0.37029   0.00000  Uiso   1.00
H748   H     0.90071   0.53584   0.62971   0.00000  Uiso   1.00
N749   N     0.83335   0.50001   0.61736   0.00000  Uiso   1.00
N750   N     0.83332   0.49999   0.38264   0.00000  Uiso   1.00
O751   O     0.83333   0.43989   0.53958   0.00000  Uiso   1.00
O752   O     0.83334   0.56011   0.46042   0.00000  Uiso   1.00
O753   O     0.83333   0.43988   0.46039   0.00000  Uiso   1.00
O754   O     0.83334   0.56012   0.53961   0.00000  Uiso   1.00
O755   O     0.75828   0.50000   0.53046   0.00000  Uiso   1.00
O756   O     0.90839   0.50000   0.46954   0.00000  Uiso   1.00
O757   O     0.75828   0.49999   0.45127   0.00000  Uiso   1.00
O758   O     0.90839   0.50001   0.54873   0.00000  Uiso   1.00
O759   O     0.98907   0.47693   0.44164   0.00000  Uiso   1.00
C760   C     0.67241   0.43599   0.43705   0.00000  Uiso   1.00
H761   H     0.67461   0.41798   0.47058   0.00000  Uiso   1.00
H762   H     0.70994   0.43556   0.42352   0.00000  Uiso   1.00
H763   H     0.97790   0.42010   0.41110   0.00000  Uiso   1.00
O764   O     0.67760   0.52307   0.55837   0.00000  Uiso   1.00
C765   C     0.99426   0.56401   0.56295   0.00000  Uiso   1.00
H766   H     0.95673   0.56444   0.57648   0.00000  Uiso   1.00
H767   H     0.99207   0.58202   0.52942   0.00000  Uiso   1.00
H768   H     0.68877   0.57989   0.58890   0.00000  Uiso   1.00
O769   O     0.91607   0.37543   0.46865   0.00000  Uiso   1.00
H770   H     0.91912   0.40352   0.48175   0.00000  Uiso   1.00
O771   O     0.75060   0.62457   0.53135   0.00000  Uiso   1.00
H772   H     0.74755   0.59648   0.51825   0.00000  Uiso   1.00
O773   O     0.91118   0.62238   0.46589   0.00000  Uiso   1.00
H774   H     0.93728   0.64102   0.45486   0.00000  Uiso   1.00
O775   O     0.75548   0.37762   0.53410   0.00000  Uiso   1.00
H776   H     0.72941   0.35898   0.54517   0.00000  Uiso   1.00
O777   O     0.75657   0.45799   0.61416   0.00000  Uiso   1.00
H778   H     0.76954   0.44654   0.58664   0.00000  Uiso   1.00
O779   O     0.91010   0.54201   0.38584   0.00000  Uiso   1.00
H780   H     0.89713   0.55346   0.41336   0.00000  Uiso   1.00
C781   C     0.16686   0.75422   0.50036   0.00000  Uiso   1.00
C782   C     0.16648   0.91245   0.49964   0.00000  Uiso   1.00
C783   C     0.06827   0.83226   0.48835   0.00000  Uiso   1.00
C784   C     0.26507   0.83440   0.51165   0.00000  Uiso   1.00
C785   C     0.01340   0.82700   0.48286   0.00000  Uiso   1.00
C786   C     0.31993   0.83967   0.51714   0.00000  Uiso   1.00
C787   C     0.20791   0.68838   0.48360   0.00000  Uiso   1.00
C788   C     0.12542   0.97829   0.51640   0.00000  Uiso   1.00
C789   C     0.20613   0.97843   0.48192   0.00000  Uiso   1.00
C790   C     0.12720   0.68824   0.51808   0.00000  Uiso   1.00
C791   C     0.16543   0.95714   0.49874   0.00000  Uiso   1.00
C792   C     0.16790   0.70953   0.50126   0.00000  Uiso   1.00
C793   C     0.12911   0.81365   0.35465   0.00000  Uiso   1.00
C794   C     0.20423   0.85301   0.64535   0.00000  Uiso   1.00
C795   C     0.12901   0.81306   0.63886   0.00000  Uiso   1.00
C796   C     0.20432   0.85361   0.36114   0.00000  Uiso   1.00
Cu797  Cu    0.16667   0.83334   0.54689   0.00000  Uiso   1.00
Cu798  Cu    0.16667   0.83333   0.45311   0.00000  Uiso   1.00
H799   H     0.09929   0.79749   0.37029   0.00000  Uiso   1.00
H800   H     0.23404   0.86918   0.62971   0.00000  Uiso   1.00
N801   N     0.16668   0.83334   0.61736   0.00000  Uiso   1.00
N802   N     0.16665   0.83332   0.38264   0.00000  Uiso   1.00
O803   O     0.16666   0.77322   0.53958   0.00000  Uiso   1.00
O804   O     0.16667   0.89345   0.46042   0.00000  Uiso   1.00
O805   O     0.16666   0.77321   0.46039   0.00000  Uiso   1.00
O806   O     0.16667   0.89346   0.53961   0.00000  Uiso   1.00
O807   O     0.09161   0.83334   0.53046   0.00000  Uiso   1.00
O808   O     0.24172   0.83333   0.46954   0.00000  Uiso   1.00
O809   O     0.09161   0.83333   0.45127   0.00000  Uiso   1.00
O810   O     0.24172   0.83334   0.54873   0.00000  Uiso   1.00
O811   O     0.32240   0.81026   0.44164   0.00000  Uiso   1.00
C812   C     0.00574   0.76932   0.43705   0.00000  Uiso   1.00
H813   H     0.00794   0.75131   0.47058   0.00000  Uiso   1.00
H814   H     0.04328   0.76889   0.42352   0.00000  Uiso   1.00
H815   H     0.31124   0.75344   0.41110   0.00000  Uiso   1.00
O816   O     0.01093   0.85640   0.55837   0.00000  Uiso   1.00
C817   C     0.32760   0.89734   0.56295   0.00000  Uiso   1.00
H818   H     0.29006   0.89777   0.57648   0.00000  Uiso   1.00
H819   H     0.32540   0.91535   0.52942   0.00000  Uiso   1.00
H820   H     0.02210   0.91323   0.58890   0.00000  Uiso   1.00
O821   O     0.24940   0.70876   0.46865   0.00000  Uiso   1.00
H822   H     0.25246   0.73685   0.48175   0.00000  Uiso   1.00
O823   O     0.08393   0.95791   0.53135   0.00000  Uiso   1.00
H824   H     0.08088   0.92981   0.51825   0.00000  Uiso   1.00
O825   O     0.24452   0.95572   0.46589   0.00000  Uiso   1.00
H826   H     0.27061   0.97435   0.45486   0.00000  Uiso   1.00
O827   O     0.08882   0.71095   0.53410   0.00000  Uiso   1.00
H828   H     0.06274   0.69231   0.54517   0.00000  Uiso   1.00
O829   O     0.08990   0.79132   0.61416   0.00000  Uiso   1.00
H830   H     0.10287   0.77987   0.58664   0.00000  Uiso   1.00
O831   O     0.24343   0.87534   0.38584   0.00000  Uiso   1.00
H832   H     0.23046   0.88679   0.41336   0.00000  Uiso   1.00
C833   C     0.50019   0.75422   0.50036   0.00000  Uiso   1.00
C834   C     0.49981   0.91245   0.49964   0.00000  Uiso   1.00
C835   C     0.40160   0.83226   0.48835   0.00000  Uiso   1.00
C836   C     0.59840   0.83440   0.51165   0.00000  Uiso   1.00
C837   C     0.34674   0.82700   0.48286   0.00000  Uiso   1.00
C838   C     0.65326   0.83967   0.51714   0.00000  Uiso   1.00
C839   C     0.54125   0.68838   0.48360   0.00000  Uiso   1.00
C840   C     0.45875   0.97829   0.51640   0.00000  Uiso   1.00
C841   C     0.53947   0.97843   0.48192   0.00000  Uiso   1.00
C842   C     0.46053   0.68824   0.51808   0.00000  Uiso   1.00
C843   C     0.49876   0.95714   0.49874   0.00000  Uiso   1.00
C844   C     0.50124   0.70953   0.50126   0.00000  Uiso   1.00
C845   C     0.46244   0.81365   0.35465   0.00000  Uiso   1.00
C846   C     0.53756   0.85301   0.64535   0.00000  Uiso   1.00
C847   C     0.46234   0.81306   0.63886   0.00000  Uiso   1.00
C848   C     0.53766   0.85361   0.36114   0.00000  Uiso   1.00
Cu849  Cu    0.50000   0.83334   0.54689   0.00000  Uiso   1.00
Cu850  Cu    0.50000   0.83333   0.45311   0.00000  Uiso   1.00
H851   H     0.43263   0.79749   0.37029   0.00000  Uiso   1.00
H852   H     0.56737   0.86918   0.62971   0.00000  Uiso   1.00
N853   N     0.50001   0.83334   0.61736   0.00000  Uiso   1.00
N854   N     0.49999   0.83332   0.38264   0.00000  Uiso   1.00
O855   O     0.50000   0.77322   0.53958   0.00000  Uiso   1.00
O856   O     0.50000   0.89345   0.46042   0.00000  Uiso   1.00
O857   O     0.50000   0.77321   0.46039   0.00000  Uiso   1.00
O858   O     0.50000   0.89346   0.53961   0.00000  Uiso   1.00
O859   O     0.42495   0.83334   0.53046   0.00000  Uiso   1.00
O860   O     0.57505   0.83333   0.46954   0.00000  Uiso   1.00
O861   O     0.42494   0.83333   0.45127   0.00000  Uiso   1.00
O862   O     0.57506   0.83334   0.54873   0.00000  Uiso   1.00
O863   O     0.65574   0.81026   0.44164   0.00000  Uiso   1.00
C864   C     0.33907   0.76932   0.43705   0.00000  Uiso   1.00
H865   H     0.34128   0.75131   0.47058   0.00000  Uiso   1.00
H866   H     0.37661   0.76889   0.42352   0.00000  Uiso   1.00
H867   H     0.64457   0.75344   0.41110   0.00000  Uiso   1.00
O868   O     0.34426   0.85640   0.55837   0.00000  Uiso   1.00
C869   C     0.66093   0.89734   0.56295   0.00000  Uiso   1.00
H870   H     0.62339   0.89777   0.57648   0.00000  Uiso   1.00
H871   H     0.65873   0.91535   0.52942   0.00000  Uiso   1.00
H872   H     0.35543   0.91323   0.58890   0.00000  Uiso   1.00
O873   O     0.58273   0.70876   0.46865   0.00000  Uiso   1.00
H874   H     0.58579   0.73685   0.48175   0.00000  Uiso   1.00
O875   O     0.41726   0.95791   0.53135   0.00000  Uiso   1.00
H876   H     0.41421   0.92981   0.51825   0.00000  Uiso   1.00
O877   O     0.57785   0.95572   0.46589   0.00000  Uiso   1.00
H878   H     0.60394   0.97435   0.45486   0.00000  Uiso   1.00
O879   O     0.42215   0.71095   0.53410   0.00000  Uiso   1.00
H880   H     0.39608   0.69231   0.54517   0.00000  Uiso   1.00
O881   O     0.42324   0.79132   0.61416   0.00000  Uiso   1.00
H882   H     0.43621   0.77987   0.58664   0.00000  Uiso   1.00
O883   O     0.57676   0.87534   0.38584   0.00000  Uiso   1.00
H884   H     0.56379   0.88679   0.41336   0.00000  Uiso   1.00
C885   C     0.83352   0.75422   0.50036   0.00000  Uiso   1.00
C886   C     0.83314   0.91245   0.49964   0.00000  Uiso   1.00
C887   C     0.73494   0.83226   0.48835   0.00000  Uiso   1.00
C888   C     0.93173   0.83440   0.51165   0.00000  Uiso   1.00
C889   C     0.68007   0.82700   0.48286   0.00000  Uiso   1.00
C890   C     0.98660   0.83967   0.51714   0.00000  Uiso   1.00
C891   C     0.87458   0.68838   0.48360   0.00000  Uiso   1.00
C892   C     0.79209   0.97829   0.51640   0.00000  Uiso   1.00
C893   C     0.87280   0.97843   0.48192   0.00000  Uiso   1.00
C894   C     0.79387   0.68824   0.51808   0.00000  Uiso   1.00
C895   C     0.83210   0.95714   0.49874   0.00000  Uiso   1.00
C896   C     0.83457   0.70953   0.50126   0.00000  Uiso   1.00
C897   C     0.79577   0.81365   0.35465   0.00000  Uiso   1.00
C898   C     0.87089   0.85301   0.64535   0.00000  Uiso   1.00
C899   C     0.79568   0.81306   0.63886   0.00000  Uiso   1.00
C900   C     0.87099   0.85361   0.36114   0.00000  Uiso   1.00
Cu901  Cu    0.83333   0.83334   0.54689   0.00000  Uiso   1.00
Cu902  Cu    0.83333   0.83333   0.45311   0.00000  Uiso   1.00
H903   H     0.76596   0.79749   0.37029   0.00000  Uiso   1.00
H904   H     0.90071   0.86918   0.62971   0.00000  Uiso   1.00
N905   N     0.83335   0.83334   0.61736   0.00000  Uiso   1.00
N906   N     0.83332   0.83332   0.38264   0.00000  Uiso   1.00
O907   O     0.83333   0.77322   0.53958   0.00000  Uiso   1.00
O908   O     0.83334   0.89345   0.46042   0.00000  Uiso   1.00
O909   O     0.83333   0.77321   0.46039   0.00000  Uiso   1.00
O910   O     0.83334   0.89346   0.53961   0.00000  Uiso   1.00
O911   O     0.75828   0.83334   0.53046   0.00000  Uiso   1.00
O912   O     0.90839   0.83333   0.46954   0.00000  Uiso   1.00
O913   O     0.75828   0.83333   0.45127   0.00000  Uiso   1.00
O914   O     0.90839   0.83334   0.54873   0.00000  Uiso   1.00
O915   O     0.98907   0.81026   0.44164   0.00000  Uiso   1.00
C916   C     0.67241   0.76932   0.43705   0.00000  Uiso   1.00
H917   H     0.67461   0.75131   0.47058   0.00000  Uiso   1.00
H918   H     0.70994   0.76889   0.42352   0.00000  Uiso   1.00
H919   H     0.97790   0.75344   0.41110   0.00000  Uiso   1.00
O920   O     0.67760   0.85640   0.55837   0.00000  Uiso   1.00
C921   C     0.99426   0.89734   0.56295   0.00000  Uiso   1.00
H922   H     0.95673   0.89777   0.57648   0.00000  Uiso   1.00
H923   H     0.99207   0.91535   0.52942   0.00000  Uiso   1.00
H924   H     0.68877   0.91323   0.58890   0.00000  Uiso   1.00
O925   O     0.91607   0.70876   0.46865   0.00000  Uiso   1.00
H926   H     0.91912   0.73685   0.48175   0.00000  Uiso   1.00
O927   O     0.75060   0.95791   0.53135   0.00000  Uiso   1.00
H928   H     0.74755   0.92981   0.51825   0.00000  Uiso   1.00
O929   O     0.91118   0.95572   0.46589   0.00000  Uiso   1.00
H930   H     0.93728   0.97435   0.45486   0.00000  Uiso   1.00
O931   O     0.75548   0.71095   0.53410   0.00000  Uiso   1.00
H932   H     0.72941   0.69231   0.54517   0.00000  Uiso   1.00
O933   O     0.75657   0.79132   0.61416   0.00000  Uiso   1.00
H934   H     0.76954   0.77987   0.58664   0.00000  Uiso   1.00
O935   O     0.91010   0.87534   0.38584   0.00000  Uiso   1.00
H936   H     0.89713   0.88679   0.41336   0.00000  Uiso   1.00
C937   C     0.16686   0.08755   0.83369   0.00000  Uiso   1.00
C938   C     0.16648   0.24578   0.83298   0.00000  Uiso   1.00
C939   C     0.06827   0.16559   0.82168   0.00000  Uiso   1.00
C940   C     0.26507   0.16774   0.84498   0.00000  Uiso   1.00
C941   C     0.01340   0.16033   0.81619   0.00000  Uiso   1.00
C942   C     0.31993   0.17300   0.85048   0.00000  Uiso   1.00
C943   C     0.20791   0.02171   0.81693   0.00000  Uiso   1.00
C944   C     0.12542   0.31162   0.84973   0.00000  Uiso   1.00
C945   C     0.20613   0.31176   0.81525   0.00000  Uiso   1.00
C946   C     0.12720   0.02157   0.85142   0.00000  Uiso   1.00
C947   C     0.16543   0.29047   0.83208   0.00000  Uiso   1.00
C948   C     0.16790   0.04286   0.83459   0.00000  Uiso   1.00
C949   C     0.12911   0.14699   0.68798   0.00000  Uiso   1.00
C950   C     0.20423   0.18635   0.97869   0.00000  Uiso   1.00
C951   C     0.12901   0.14639   0.97219   0.00000  Uiso   1.00
C952   C     0.20432   0.18694   0.69447   0.00000  Uiso   1.00
Cu953  Cu    0.16667   0.16667   0.88022   0.00000  Uiso   1.00
Cu954  Cu    0.16667   0.16666   0.78645   0.00000  Uiso   1.00
H955   H     0.09929   0.13082   0.70362   0.00000  Uiso   1.00
H956   H     0.23404   0.20251   0.96304   0.00000  Uiso   1.00
N957   N     0.16668   0.16668   0.95069   0.00000  Uiso   1.00
N958   N     0.16665   0.16666   0.71597   0.00000  Uiso   1.00
O959   O     0.16666   0.10655   0.87291   0.00000  Uiso   1.00
O960   O     0.16667   0.22678   0.79375   0.00000  Uiso   1.00
O961   O     0.16666   0.10654   0.79372   0.00000  Uiso   1.00
O962   O     0.16667   0.22679   0.87294   0.00000  Uiso   1.00
O963   O     0.09161   0.16667   0.86379   0.00000  Uiso   1.00
O964   O     0.24172   0.16666   0.80288   0.00000  Uiso   1.00
O965   O     0.09161   0.16666   0.78460   0.00000  Uiso   1.00
O966   O     0.24172   0.16667   0.88207   0.00000  Uiso   1.00
O967   O     0.32240   0.14359   0.77497   0.00000  Uiso   1.00
C968   C     0.00574   0.10265   0.77038   0.00000  Uiso   1.00
H969   H     0.00794   0.08465   0.80391   0.00000  Uiso   1.00
H970   H     0.04328   0.10223   0.75685   0.00000  Uiso   1.00
H971   H     0.31124   0.08677   0.74443   0.00000  Uiso   1.00
O972   O     0.01093   0.18974   0.89170   0.00000  Uiso   1.00
C973   C     0.32760   0.23068   0.89628   0.00000  Uiso   1.00
H974   H     0.29006   0.23111   0.90981   0.00000  Uiso   1.00
H975   H     0.32540   0.24869   0.86275   0.00000  Uiso   1.00
H976   H     0.02210   0.24656   0.92224   0.00000  Uiso   1.00
O977   O     0.24940   0.04209   0.80198   0.00000  Uiso   1.00
H978   H     0.25246   0.07019   0.81509   0.00000  Uiso   1.00
O979   O     0.08393   0.29124   0.86468   0.00000  Uiso   1.00
H980   H     0.08088   0.26314   0.85158   0.00000  Uiso   1.00
O981   O     0.24452   0.28905   0.79923   0.00000  Uiso   1.00
H982   H     0.27061   0.30769   0.78819   0.00000  Uiso   1.00
O983   O     0.08882   0.04428   0.86744   0.00000  Uiso   1.00
H984   H     0.06274   0.02565   0.87851   0.00000  Uiso   1.00
O985   O     0.08990   0.12466   0.94749   0.00000  Uiso   1.00
H986   H     0.10287   0.11321   0.91997   0.00000  Uiso   1.00
O987   O     0.24343   0.20868   0.71917   0.00000  Uiso   1.00
H988   H     0.23046   0.22013   0.74669   0.00000  Uiso   1.00
C989   C     0.50019   0.08755   0.83369   0.00000  Uiso   1.00
C990   C     0.49981   0.24578   0.83298   0.00000  Uiso   1.00
C991   C     0.40160   0.16559   0.82168   0.00000  Uiso   1.00
C992   C     0.59840   0.16774   0.84498   0.00000  Uiso   1.00
C993   C     0.34674   0.16033   0.81619   0.00000  Uiso   1.00
C994   C     0.65326   0.17300   0.85048   0.00000  Uiso   1.00
C995   C     0.54125   0.02171   0.81693   0.00000  Uiso   1.00
C996   C     0.45875   0.31162   0.84973   0.00000  Uiso   1.00
C997   C     0.53947   0.31176   0.81525   0.00000  Uiso   1.00
C998   C     0.46053   0.02157   0.85142   0.00000  Uiso   1.00
C999   C     0.49876   0.29047   0.83208   0.00000  Uiso   1.00
C1000  C     0.50124   0.04286   0.83459   0.00000  Uiso   1.00
C1001  C     0.46244   0.14699   0.68798   0.00000  Uiso   1.00
C1002  C     0.53756   0.18635   0.97869   0.00000  Uiso   1.00
C1003  C     0.46234   0.14639   0.97219   0.00000  Uiso   1.00
C1004  C     0.53766   0.18694   0.69447   0.00000  Uiso   1.00
Cu1005 Cu    0.50000   0.16667   0.88022   0.00000  Uiso   1.00
Cu1006 Cu    0.50000   0.16666   0.78645   0.00000  Uiso   1.00
H1007  H     0.43263   0.13082   0.70362   0.00000  Uiso   1.00
H1008  H     0.56737   0.20251   0.96304   0.00000  Uiso   1.00
N1009  N     0.50001   0.16668   0.95069   0.00000  Uiso   1.00
N1010  N     0.49999   0.16666   0.71597   0.00000  Uiso   1.00
O1011  O     0.50000   0.10655   0.87291   0.00000  Uiso   1.00
O1012  O     0.50000   0.22678   0.79375   0.00000  Uiso   1.00
O1013  O     0.50000   0.10654   0.79372   0.00000  Uiso   1.00
O1014  O     0.50000   0.22679   0.87294   0.00000  Uiso   1.00
O1015  O     0.42495   0.16667   0.86379   0.00000  Uiso   1.00
O1016  O     0.57505   0.16666   0.80288   0.00000  Uiso   1.00
O1017  O     0.42494   0.16666   0.78460   0.00000  Uiso   1.00
O1018  O     0.57506   0.16667   0.88207   0.00000  Uiso   1.00
O1019  O     0.65574   0.14359   0.77497   0.00000  Uiso   1.00
C1020  C     0.33907   0.10265   0.77038   0.00000  Uiso   1.00
H1021  H     0.34128   0.08465   0.80391   0.00000  Uiso   1.00
H1022  H     0.37661   0.10223   0.75685   0.00000  Uiso   1.00
H1023  H     0.64457   0.08677   0.74443   0.00000  Uiso   1.00
O1024  O     0.34426   0.18974   0.89170   0.00000  Uiso   1.00
C1025  C     0.66093   0.23068   0.89628   0.00000  Uiso   1.00
H1026  H     0.62339   0.23111   0.90981   0.00000  Uiso   1.00
H1027  H     0.65873   0.24869   0.86275   0.00000  Uiso   1.00
H1028  H     0.35543   0.24656   0.92224   0.00000  Uiso   1.00
O1029  O     0.58273   0.04209   0.80198   0.00000  Uiso   1.00
H1030  H     0.58579   0.07019   0.81509   0.00000  Uiso   1.00
O1031  O     0.41726   0.29124   0.86468   0.00000  Uiso   1.00
H1032  H     0.41421   0.26314   0.85158   0.00000  Uiso   1.00
O1033  O     0.57785   0.28905   0.79923   0.00000  Uiso   1.00
H1034  H     0.60394   0.30769   0.78819   0.00000  Uiso   1.00
O1035  O     0.42215   0.04428   0.86744   0.00000  Uiso   1.00
H1036  H     0.39608   0.02565   0.87851   0.00000  Uiso   1.00
O1037  O     0.42324   0.12466   0.94749   0.00000  Uiso   1.00
H1038  H     0.43621   0.11321   0.91997   0.00000  Uiso   1.00
O1039  O     0.57676   0.20868   0.71917   0.00000  Uiso   1.00
H1040  H     0.56379   0.22013   0.74669   0.00000  Uiso   1.00
C1041  C     0.83352   0.08755   0.83369   0.00000  Uiso   1.00
C1042  C     0.83314   0.24578   0.83298   0.00000  Uiso   1.00
C1043  C     0.73494   0.16559   0.82168   0.00000  Uiso   1.00
C1044  C     0.93173   0.16774   0.84498   0.00000  Uiso   1.00
C1045  C     0.68007   0.16033   0.81619   0.00000  Uiso   1.00
C1046  C     0.98660   0.17300   0.85048   0.00000  Uiso   1.00
C1047  C     0.87458   0.02171   0.81693   0.00000  Uiso   1.00
C1048  C     0.79209   0.31162   0.84973   0.00000  Uiso   1.00
C1049  C     0.87280   0.31176   0.81525   0.00000  Uiso   1.00
C1050  C     0.79387   0.02157   0.85142   0.00000  Uiso   1.00
C1051  C     0.83210   0.29047   0.83208   0.00000  Uiso   1.00
C1052  C     0.83457   0.04286   0.83459   0.00000  Uiso   1.00
C1053  C     0.79577   0.14699   0.68798   0.00000  Uiso   1.00
C1054  C     0.87089   0.18635   0.97869   0.00000  Uiso   1.00
C1055  C     0.79568   0.14639   0.97219   0.00000  Uiso   1.00
C1056  C     0.87099   0.18694   0.69447   0.00000  Uiso   1.00
Cu1057 Cu    0.83333   0.16667   0.88022   0.00000  Uiso   1.00
Cu1058 Cu    0.83333   0.16666   0.78645   0.00000  Uiso   1.00
H1059  H     0.76596   0.13082   0.70362   0.00000  Uiso   1.00
H1060  H     0.90071   0.20251   0.96304   0.00000  Uiso   1.00
N1061  N     0.83335   0.16668   0.95069   0.00000  Uiso   1.00
N1062  N     0.83332   0.16666   0.71597   0.00000  Uiso   1.00
O1063  O     0.83333   0.10655   0.87291   0.00000  Uiso   1.00
O1064  O     0.83334   0.22678   0.79375   0.00000  Uiso   1.00
O1065  O     0.83333   0.10654   0.79372   0.00000  Uiso   1.00
O1066  O     0.83334   0.22679   0.87294   0.00000  Uiso   1.00
O1067  O     0.75828   0.16667   0.86379   0.00000  Uiso   1.00
O1068  O     0.90839   0.16666   0.80288   0.00000  Uiso   1.00
O1069  O     0.75828   0.16666   0.78460   0.00000  Uiso   1.00
O1070  O     0.90839   0.16667   0.88207   0.00000  Uiso   1.00
O1071  O     0.98907   0.14359   0.77497   0.00000  Uiso   1.00
C1072  C     0.67241   0.10265   0.77038   0.00000  Uiso   1.00
H1073  H     0.67461   0.08465   0.80391   0.00000  Uiso   1.00
H1074  H     0.70994   0.10223   0.75685   0.00000  Uiso   1.00
H1075  H     0.97790   0.08677   0.74443   0.00000  Uiso   1.00
O1076  O     0.67760   0.18974   0.89170   0.00000  Uiso   1.00
C1077  C     0.99426   0.23068   0.89628   0.00000  Uiso   1.00
H1078  H     0.95673   0.23111   0.90981   0.00000  Uiso   1.00
H1079  H     0.99207   0.24869   0.86275   0.00000  Uiso   1.00
H1080  H     0.68877   0.24656   0.92224   0.00000  Uiso   1.00
O1081  O     0.91607   0.04209   0.80198   0.00000  Uiso   1.00
H1082  H     0.91912   0.07019   0.81509   0.00000  Uiso   1.00
O1083  O     0.75060   0.29124   0.86468   0.00000  Uiso   1.00
H1084  H     0.74755   0.26314   0.85158   0.00000  Uiso   1.00
O1085  O     0.91118   0.28905   0.79923   0.00000  Uiso   1.00
H1086  H     0.93728   0.30769   0.78819   0.00000  Uiso   1.00
O1087  O     0.75548   0.04428   0.86744   0.00000  Uiso   1.00
H1088  H     0.72941   0.02565   0.87851   0.00000  Uiso   1.00
O1089  O     0.75657   0.12466   0.94749   0.00000  Uiso   1.00
H1090  H     0.76954   0.11321   0.91997   0.00000  Uiso   1.00
O1091  O     0.91010   0.20868   0.71917   0.00000  Uiso   1.00
H1092  H     0.89713   0.22013   0.74669   0.00000  Uiso   1.00
C1093  C     0.16686   0.42089   0.83369   0.00000  Uiso   1.00
C1094  C     0.16648   0.57911   0.83298   0.00000  Uiso   1.00
C1095  C     0.06827   0.49893   0.82168   0.00000  Uiso   1.00
C1096  C     0.26507   0.50107   0.84498   0.00000  Uiso   1.00
C1097  C     0.01340   0.49367   0.81619   0.00000  Uiso   1.00
C1098  C     0.31993   0.50633   0.85048   0.00000  Uiso   1.00
C1099  C     0.20791   0.35505   0.81693   0.00000  Uiso   1.00
C1100  C     0.12542   0.64495   0.84973   0.00000  Uiso   1.00
C1101  C     0.20613   0.64510   0.81525   0.00000  Uiso   1.00
C1102  C     0.12720   0.35490   0.85142   0.00000  Uiso   1.00
C1103  C     0.16543   0.62381   0.83208   0.00000  Uiso   1.00
C1104  C     0.16790   0.37619   0.83459   0.00000  Uiso   1.00
C1105  C     0.12911   0.48032   0.68798   0.00000  Uiso   1.00
C1106  C     0.20423   0.51968   0.97869   0.00000  Uiso   1.00
C1107  C     0.12901   0.47973   0.97219   0.00000  Uiso   1.00
C1108  C     0.20432   0.52027   0.69447   0.00000  Uiso   1.00
Cu1109 Cu    0.16667   0.50001   0.88022   0.00000  Uiso   1.00
Cu1110 Cu    0.16667   0.49999   0.78645   0.00000  Uiso   1.00
H1111  H     0.09929   0.46416   0.70362   0.00000  Uiso   1.00
H1112  H     0.23404   0.53584   0.96304   0.00000  Uiso   1.00
N1113  N     0.16668   0.50001   0.95069   0.00000  Uiso   1.00
N1114  N     0.16665   0.49999   0.71597   0.00000  Uiso   1.00
O1115  O     0.16666   0.43989   0.87291   0.00000  Uiso   1.00
O1116  O     0.16667   0.56011   0.79375   0.00000  Uiso   1.00
O1117  O     0.16666   0.43988   0.79372   0.00000  Uiso   1.00
O1118  O     0.16667   0.56012   0.87294   0.00000  Uiso   1.00
O1119  O     0.09161   0.50000   0.86379   0.00000  Uiso   1.00
O1120  O     0.24172   0.50000   0.80288   0.00000  Uiso   1.00
O1121  O     0.09161   0.49999   0.78460   0.00000  Uiso   1.00
O1122  O     0.24172   0.50001   0.88207   0.00000  Uiso   1.00
O1123  O     0.32240   0.47693   0.77497   0.00000  Uiso   1.00
C1124  C     0.00574   0.43599   0.77038   0.00000  Uiso   1.00
H1125  H     0.00794   0.41798   0.80391   0.00000  Uiso   1.00
H1126  H     0.04328   0.43556   0.75685   0.00000  Uiso   1.00
H1127  H     0.31124   0.42010   0.74443   0.00000  Uiso   1.00
O1128  O     0.01093   0.52307   0.89170   0.00000  Uiso   1.00
C1129  C     0.32760   0.56401   0.89628   0.00000  Uiso   1.00
H1130  H     0.29006   0.56444   0.90981   0.00000  Uiso   1.00
H1131  H     0.32540   0.58202   0.86275   0.00000  Uiso   1.00
H1132  H     0.02210   0.57989   0.92224   0.00000  Uiso   1.00
O1133  O     0.24940   0.37543   0.80198   0.00000  Uiso   1.00
H1134  H     0.25246   0.40352   0.81509   0.00000  Uiso   1.00
O1135  O     0.08393   0.62457   0.86468   0.00000  Uiso   1.00
H1136  H     0.08088   0.59648   0.85158   0.00000  Uiso   1.00
O1137  O     0.24452   0.62238   0.79923   0.00000  Uiso   1.00
H1138  H     0.27061   0.64102   0.78819   0.00000  Uiso   1.00
O1139  O     0.08882   0.37762   0.86744   0.00000  Uiso   1.00
H1140  H     0.06274   0.35898   0.87851   0.00000  Uiso   1.00
O1141  O     0.08990   0.45799   0.94749   0.00000  Uiso   1.00
H1142  H     0.10287   0.44654   0.91997   0.00000  Uiso   1.00
O1143  O     0.24343   0.54201   0.71917   0.00000  Uiso   1.00
H1144  H     0.23046   0.55346   0.74669   0.00000  Uiso   1.00
C1145  C     0.50019   0.42089   0.83369   0.00000  Uiso   1.00
C1146  C     0.49981   0.57911   0.83298   0.00000  Uiso   1.00
C1147  C     0.40160   0.49893   0.82168   0.00000  Uiso   1.00
C1148  C     0.59840   0.50107   0.84498   0.00000  Uiso   1.00
C1149  C     0.34674   0.49367   0.81619   0.00000  Uiso   1.00
C1150  C     0.65326   0.50633   0.85048   0.00000  Uiso   1.00
C1151  C     0.54125   0.35505   0.81693   0.00000  Uiso   1.00
C1152  C     0.45875   0.64495   0.84973   0.00000  Uiso   1.00
C1153  C     0.53947   0.64510   0.81525   0.00000  Uiso   1.00
C1154  C     0.46053   0.35490   0.85142   0.00000  Uiso   1.00
C1155  C     0.49876   0.62381   0.83208   0.00000  Uiso   1.00
C1156  C     0.50124   0.37619   0.83459   0.00000  Uiso   1.00
C1157  C     0.46244   0.48032   0.68798   0.00000  Uiso   1.00
C1158  C     0.53756   0.51968   0.97869   0.00000  Uiso   1.00
C1159  C     0.46234   0.47973   0.97219   0.00000  Uiso   1.00
C1160  C     0.53766   0.52027   0.69447   0.00000  Uiso   1.00
Cu1161 Cu    0.50000   0.50001   0.88022   0.00000  Uiso   1.00
Cu1162 Cu    0.50000   0.49999   0.78645   0.00000  Uiso   1.00
H1163  H     0.43263   0.46416   0.70362   0.00000  Uiso   1.00
H1164  H     0.56737   0.53584   0.96304   0.00000  Uiso   1.00
N1165  N     0.50001   0.50001   0.95069   0.00000  Uiso   1.00
N1166  N     0.49999   0.49999   0.71597   0.00000  Uiso   1.00
O1167  O     0.50000   0.43989   0.87291   0.00000  Uiso   1.00
O1168  O     0.50000   0.56011   0.79375   0.00000  Uiso   1.00
O1169  O     0.50000   0.43988   0.79372   0.00000  Uiso   1.00
O1170  O     0.50000   0.56012   0.87294   0.00000  Uiso   1.00
O1171  O     0.42495   0.50000   0.86379   0.00000  Uiso   1.00
O1172  O     0.57505   0.50000   0.80288   0.00000  Uiso   1.00
O1173  O     0.42494   0.49999   0.78460   0.00000  Uiso   1.00
O1174  O     0.57506   0.50001   0.88207   0.00000  Uiso   1.00
O1175  O     0.65574   0.47693   0.77497   0.00000  Uiso   1.00
C1176  C     0.33907   0.43599   0.77038   0.00000  Uiso   1.00
H1177  H     0.34128   0.41798   0.80391   0.00000  Uiso   1.00
H1178  H     0.37661   0.43556   0.75685   0.00000  Uiso   1.00
H1179  H     0.64457   0.42010   0.74443   0.00000  Uiso   1.00
O1180  O     0.34426   0.52307   0.89170   0.00000  Uiso   1.00
C1181  C     0.66093   0.56401   0.89628   0.00000  Uiso   1.00
H1182  H     0.62339   0.56444   0.90981   0.00000  Uiso   1.00
H1183  H     0.65873   0.58202   0.86275   0.00000  Uiso   1.00
H1184  H     0.35543   0.57989   0.92224   0.00000  Uiso   1.00
O1185  O     0.58273   0.37543   0.80198   0.00000  Uiso   1.00
H1186  H     0.58579   0.40352   0.81509   0.00000  Uiso   1.00
O1187  O     0.41726   0.62457   0.86468   0.00000  Uiso   1.00
H1188  H     0.41421   0.59648   0.85158   0.00000  Uiso   1.00
O1189  O     0.57785   0.62238   0.79923   0.00000  Uiso   1.00
H1190  H     0.60394   0.64102   0.78819   0.00000  Uiso   1.00
O1191  O     0.42215   0.37762   0.86744   0.00000  Uiso   1.00
H1192  H     0.39608   0.35898   0.87851   0.00000  Uiso   1.00
O1193  O     0.42324   0.45799   0.94749   0.00000  Uiso   1.00
H1194  H     0.43621   0.44654   0.91997   0.00000  Uiso   1.00
O1195  O     0.57676   0.54201   0.71917   0.00000  Uiso   1.00
H1196  H     0.56379   0.55346   0.74669   0.00000  Uiso   1.00
C1197  C     0.83352   0.42089   0.83369   0.00000  Uiso   1.00
C1198  C     0.83314   0.57911   0.83298   0.00000  Uiso   1.00
C1199  C     0.73494   0.49893   0.82168   0.00000  Uiso   1.00
C1200  C     0.93173   0.50107   0.84498   0.00000  Uiso   1.00
C1201  C     0.68007   0.49367   0.81619   0.00000  Uiso   1.00
C1202  C     0.98660   0.50633   0.85048   0.00000  Uiso   1.00
C1203  C     0.87458   0.35505   0.81693   0.00000  Uiso   1.00
C1204  C     0.79209   0.64495   0.84973   0.00000  Uiso   1.00
C1205  C     0.87280   0.64510   0.81525   0.00000  Uiso   1.00
C1206  C     0.79387   0.35490   0.85142   0.00000  Uiso   1.00
C1207  C     0.83210   0.62381   0.83208   0.00000  Uiso   1.00
C1208  C     0.83457   0.37619   0.83459   0.00000  Uiso   1.00
C1209  C     0.79577   0.48032   0.68798   0.00000  Uiso   1.00
C1210  C     0.87089   0.51968   0.97869   0.00000  Uiso   1.00
C1211  C     0.79568   0.47973   0.97219   0.00000  Uiso   1.00
C1212  C     0.87099   0.52027   0.69447   0.00000  Uiso   1.00
Cu1213 Cu    0.83333   0.50001   0.88022   0.00000  Uiso   1.00
Cu1214 Cu    0.83333   0.49999   0.78645   0.00000  Uiso   1.00
H1215  H     0.76596   0.46416   0.70362   0.00000  Uiso   1.00
H1216  H     0.90071   0.53584   0.96304   0.00000  Uiso   1.00
N1217  N     0.83335   0.50001   0.95069   0.00000  Uiso   1.00
N1218  N     0.83332   0.49999   0.71597   0.00000  Uiso   1.00
O1219  O     0.83333   0.43989   0.87291   0.00000  Uiso   1.00
O1220  O     0.83334   0.56011   0.79375   0.00000  Uiso   1.00
O1221  O     0.83333   0.43988   0.79372   0.00000  Uiso   1.00
O1222  O     0.83334   0.56012   0.87294   0.00000  Uiso   1.00
O1223  O     0.75828   0.50000   0.86379   0.00000  Uiso   1.00
O1224  O     0.90839   0.50000   0.80288   0.00000  Uiso   1.00
O1225  O     0.75828   0.49999   0.78460   0.00000  Uiso   1.00
O1226  O     0.90839   0.50001   0.88207   0.00000  Uiso   1.00
O1227  O     0.98907   0.47693   0.77497   0.00000  Uiso   1.00
C1228  C     0.67241   0.43599   0.77038   0.00000  Uiso   1.00
H1229  H     0.67461   0.41798   0.80391   0.00000  Uiso   1.00
H1230  H     0.70994   0.43556   0.75685   0.00000  Uiso   1.00
H1231  H     0.97790   0.42010   0.74443   0.00000  Uiso   1.00
O1232  O     0.67760   0.52307   0.89170   0.00000  Uiso   1.00
C1233  C     0.99426   0.56401   0.89628   0.00000  Uiso   1.00
H1234  H     0.95673   0.56444   0.90981   0.00000  Uiso   1.00
H1235  H     0.99207   0.58202   0.86275   0.00000  Uiso   1.00
H1236  H     0.68877   0.57989   0.92224   0.00000  Uiso   1.00
O1237  O     0.91607   0.37543   0.80198   0.00000  Uiso   1.00
H1238  H     0.91912   0.40352   0.81509   0.00000  Uiso   1.00
O1239  O     0.75060   0.62457   0.86468   0.00000  Uiso   1.00
H1240  H     0.74755   0.59648   0.85158   0.00000  Uiso   1.00
O1241  O     0.91118   0.62238   0.79923   0.00000  Uiso   1.00
H1242  H     0.93728   0.64102   0.78819   0.00000  Uiso   1.00
O1243  O     0.75548   0.37762   0.86744   0.00000  Uiso   1.00
H1244  H     0.72941   0.35898   0.87851   0.00000  Uiso   1.00
O1245  O     0.75657   0.45799   0.94749   0.00000  Uiso   1.00
H1246  H     0.76954   0.44654   0.91997   0.00000  Uiso   1.00
O1247  O     0.91010   0.54201   0.71917   0.00000  Uiso   1.00
H1248  H     0.89713   0.55346   0.74669   0.00000  Uiso   1.00
C1249  C     0.16686   0.75422   0.83369   0.00000  Uiso   1.00
C1250  C     0.16648   0.91245   0.83298   0.00000  Uiso   1.00
C1251  C     0.06827   0.83226   0.82168   0.00000  Uiso   1.00
C1252  C     0.26507   0.83440   0.84498   0.00000  Uiso   1.00
C1253  C     0.01340   0.82700   0.81619   0.00000  Uiso   1.00
C1254  C     0.31993   0.83967   0.85048   0.00000  Uiso   1.00
C1255  C     0.20791   0.68838   0.81693   0.00000  Uiso   1.00
C1256  C     0.12542   0.97829   0.84973   0.00000  Uiso   1.00
C1257  C     0.20613   0.97843   0.81525   0.00000  Uiso   1.00
C1258  C     0.12720   0.68824   0.85142   0.00000  Uiso   1.00
C1259  C     0.16543   0.95714   0.83208   0.00000  Uiso   1.00
C1260  C     0.16790   0.70953   0.83459   0.00000  Uiso   1.00
C1261  C     0.12911   0.81365   0.68798   0.00000  Uiso   1.00
C1262  C     0.20423   0.85301   0.97869   0.00000  Uiso   1.00
C1263  C     0.12901   0.81306   0.97219   0.00000  Uiso   1.00
C1264  C     0.20432   0.85361   0.69447   0.00000  Uiso   1.00
Cu1265 Cu    0.16667   0.83334   0.88022   0.00000  Uiso   1.00
Cu1266 Cu    0.16667   0.83333   0.78645   0.00000  Uiso   1.00
H1267  H     0.09929   0.79749   0.70362   0.00000  Uiso   1.00
H1268  H     0.23404   0.86918   0.96304   0.00000  Uiso   1.00
N1269  N     0.16668   0.83334   0.95069   0.00000  Uiso   1.00
N1270  N     0.16665   0.83332   0.71597   0.00000  Uiso   1.00
O1271  O     0.16666   0.77322   0.87291   0.00000  Uiso   1.00
O1272  O     0.16667   0.89345   0.79375   0.00000  Uiso   1.00
O1273  O     0.16666   0.77321   0.79372   0.00000  Uiso   1.00
O1274  O     0.16667   0.89346   0.87294   0.00000  Uiso   1.00
O1275  O     0.09161   0.83334   0.86379   0.00000  Uiso   1.00
O1276  O     0.24172   0.83333   0.80288   0.00000  Uiso   1.00
O1277  O     0.09161   0.83333   0.78460   0.00000  Uiso   1.00
O1278  O     0.24172   0.83334   0.88207   0.00000  Uiso   1.00
O1279  O     0.32240   0.81026   0.77497   0.00000  Uiso   1.00
C1280  C     0.00574   0.76932   0.77038   0.00000  Uiso   1.00
H1281  H     0.00794   0.75131   0.80391   0.00000  Uiso   1.00
H1282  H     0.04328   0.76889   0.75685   0.00000  Uiso   1.00
H1283  H     0.31124   0.75344   0.74443   0.00000  Uiso   1.00
O1284  O     0.01093   0.85640   0.89170   0.00000  Uiso   1.00
C1285  C     0.32760   0.89734   0.89628   0.00000  Uiso   1.00
H1286  H     0.29006   0.89777   0.90981   0.00000  Uiso   1.00
H1287  H     0.32540   0.91535   0.86275   0.00000  Uiso   1.00
H1288  H     0.02210   0.91323   0.92224   0.00000  Uiso   1.00
O1289  O     0.24940   0.70876   0.80198   0.00000  Uiso   1.00
H1290  H     0.25246   0.73685   0.81509   0.00000  Uiso   1.00
O1291  O     0.08393   0.95791   0.86468   0.00000  Uiso   1.00
H1292  H     0.08088   0.92981   0.85158   0.00000  Uiso   1.00
O1293  O     0.24452   0.95572   0.79923   0.00000  Uiso   1.00
H1294  H     0.27061   0.97435   0.78819   0.00000  Uiso   1.00
O1295  O     0.08882   0.71095   0.86744   0.00000  Uiso   1.00
H1296  H     0.06274   0.69231   0.87851   0.00000  Uiso   1.00
O1297  O     0.08990   0.79132   0.94749   0.00000  Uiso   1.00
H1298  H     0.10287   0.77987   0.91997   0.00000  Uiso   1.00
O1299  O     0.24343   0.87534   0.71917   0.00000  Uiso   1.00
H1300  H     0.23046   0.88679   0.74669   0.00000  Uiso   1.00
C1301  C     0.50019   0.75422   0.83369   0.00000  Uiso   1.00
C1302  C     0.49981   0.91245   0.83298   0.00000  Uiso   1.00
C1303  C     0.40160   0.83226   0.82168   0.00000  Uiso   1.00
C1304  C     0.59840   0.83440   0.84498   0.00000  Uiso   1.00
C1305  C     0.34674   0.82700   0.81619   0.00000  Uiso   1.00
C1306  C     0.65326   0.83967   0.85048   0.00000  Uiso   1.00
C1307  C     0.54125   0.68838   0.81693   0.00000  Uiso   1.00
C1308  C     0.45875   0.97829   0.84973   0.00000  Uiso   1.00
C1309  C     0.53947   0.97843   0.81525   0.00000  Uiso   1.00
C1310  C     0.46053   0.68824   0.85142   0.00000  Uiso   1.00
C1311  C     0.49876   0.95714   0.83208   0.00000  Uiso   1.00
C1312  C     0.50124   0.70953   0.83459   0.00000  Uiso   1.00
C1313  C     0.46244   0.81365   0.68798   0.00000  Uiso   1.00
C1314  C     0.53756   0.85301   0.97869   0.00000  Uiso   1.00
C1315  C     0.46234   0.81306   0.97219   0.00000  Uiso   1.00
C1316  C     0.53766   0.85361   0.69447   0.00000  Uiso   1.00
Cu1317 Cu    0.50000   0.83334   0.88022   0.00000  Uiso   1.00
Cu1318 Cu    0.50000   0.83333   0.78645   0.00000  Uiso   1.00
H1319  H     0.43263   0.79749   0.70362   0.00000  Uiso   1.00
H1320  H     0.56737   0.86918   0.96304   0.00000  Uiso   1.00
N1321  N     0.50001   0.83334   0.95069   0.00000  Uiso   1.00
N1322  N     0.49999   0.83332   0.71597   0.00000  Uiso   1.00
O1323  O     0.50000   0.77322   0.87291   0.00000  Uiso   1.00
O1324  O     0.50000   0.89345   0.79375   0.00000  Uiso   1.00
O1325  O     0.50000   0.77321   0.79372   0.00000  Uiso   1.00
O1326  O     0.50000   0.89346   0.87294   0.00000  Uiso   1.00
O1327  O     0.42495   0.83334   0.86379   0.00000  Uiso   1.00
O1328  O     0.57505   0.83333   0.80288   0.00000  Uiso   1.00
O1329  O     0.42494   0.83333   0.78460   0.00000  Uiso   1.00
O1330  O     0.57506   0.83334   0.88207   0.00000  Uiso   1.00
O1331  O     0.65574   0.81026   0.77497   0.00000  Uiso   1.00
C1332  C     0.33907   0.76932   0.77038   0.00000  Uiso   1.00
H1333  H     0.34128   0.75131   0.80391   0.00000  Uiso   1.00
H1334  H     0.37661   0.76889   0.75685   0.00000  Uiso   1.00
H1335  H     0.64457   0.75344   0.74443   0.00000  Uiso   1.00
O1336  O     0.34426   0.85640   0.89170   0.00000  Uiso   1.00
C1337  C     0.66093   0.89734   0.89628   0.00000  Uiso   1.00
H1338  H     0.62339   0.89777   0.90981   0.00000  Uiso   1.00
H1339  H     0.65873   0.91535   0.86275   0.00000  Uiso   1.00
H1340  H     0.35543   0.91323   0.92224   0.00000  Uiso   1.00
O1341  O     0.58273   0.70876   0.80198   0.00000  Uiso   1.00
H1342  H     0.58579   0.73685   0.81509   0.00000  Uiso   1.00
O1343  O     0.41726   0.95791   0.86468   0.00000  Uiso   1.00
H1344  H     0.41421   0.92981   0.85158   0.00000  Uiso   1.00
O1345  O     0.57785   0.95572   0.79923   0.00000  Uiso   1.00
H1346  H     0.60394   0.97435   0.78819   0.00000  Uiso   1.00
O1347  O     0.42215   0.71095   0.86744   0.00000  Uiso   1.00
H1348  H     0.39608   0.69231   0.87851   0.00000  Uiso   1.00
O1349  O     0.42324   0.79132   0.94749   0.00000  Uiso   1.00
H1350  H     0.43621   0.77987   0.91997   0.00000  Uiso   1.00
O1351  O     0.57676   0.87534   0.71917   0.00000  Uiso   1.00
H1352  H     0.56379   0.88679   0.74669   0.00000  Uiso   1.00
C1353  C     0.83352   0.75422   0.83369   0.00000  Uiso   1.00
C1354  C     0.83314   0.91245   0.83298   0.00000  Uiso   1.00
C1355  C     0.73494   0.83226   0.82168   0.00000  Uiso   1.00
C1356  C     0.93173   0.83440   0.84498   0.00000  Uiso   1.00
C1357  C     0.68007   0.82700   0.81619   0.00000  Uiso   1.00
C1358  C     0.98660   0.83967   0.85048   0.00000  Uiso   1.00
C1359  C     0.87458   0.68838   0.81693   0.00000  Uiso   1.00
C1360  C     0.79209   0.97829   0.84973   0.00000  Uiso   1.00
C1361  C     0.87280   0.97843   0.81525   0.00000  Uiso   1.00
C1362  C     0.79387   0.68824   0.85142   0.00000  Uiso   1.00
C1363  C     0.83210   0.95714   0.83208   0.00000  Uiso   1.00
C1364  C     0.83457   0.70953   0.83459   0.00000  Uiso   1.00
C1365  C     0.79577   0.81365   0.68798   0.00000  Uiso   1.00
C1366  C     0.87089   0.85301   0.97869   0.00000  Uiso   1.00
C1367  C     0.79568   0.81306   0.97219   0.00000  Uiso   1.00
C1368  C     0.87099   0.85361   0.69447   0.00000  Uiso   1.00
Cu1369 Cu    0.83333   0.83334   0.88022   0.00000  Uiso   1.00
Cu1370 Cu    0.83333   0.83333   0.78645   0.00000  Uiso   1.00
H1371  H     0.76596   0.79749   0.70362   0.00000  Uiso   1.00
H1372  H     0.90071   0.86918   0.96304   0.00000  Uiso   1.00
N1373  N     0.83335   0.83334   0.95069   0.00000  Uiso   1.00
N1374  N     0.83332   0.83332   0.71597   0.00000  Uiso   1.00
O1375  O     0.83333   0.77322   0.87291   0.00000  Uiso   1.00
O1376  O     0.83334   0.89345   0.79375   0.00000  Uiso   1.00
O1377  O     0.83333   0.77321   0.79372   0.00000  Uiso   1.00
O1378  O     0.83334   0.89346   0.87294   0.00000  Uiso   1.00
O1379  O     0.75828   0.83334   0.86379   0.00000  Uiso   1.00
O1380  O     0.90839   0.83333   0.80288   0.00000  Uiso   1.00
O1381  O     0.75828   0.83333   0.78460   0.00000  Uiso   1.00
O1382  O     0.90839   0.83334   0.88207   0.00000  Uiso   1.00
O1383  O     0.98907   0.81026   0.77497   0.00000  Uiso   1.00
C1384  C     0.67241   0.76932   0.77038   0.00000  Uiso   1.00
H1385  H     0.67461   0.75131   0.80391   0.00000  Uiso   1.00
H1386  H     0.70994   0.76889   0.75685   0.00000  Uiso   1.00
H1387  H     0.97790   0.75344   0.74443   0.00000  Uiso   1.00
O1388  O     0.67760   0.85640   0.89170   0.00000  Uiso   1.00
C1389  C     0.99426   0.89734   0.89628   0.00000  Uiso   1.00
H1390  H     0.95673   0.89777   0.90981   0.00000  Uiso   1.00
H1391  H     0.99207   0.91535   0.86275   0.00000  Uiso   1.00
H1392  H     0.68877   0.91323   0.92224   0.00000  Uiso   1.00
O1393  O     0.91607   0.70876   0.80198   0.00000  Uiso   1.00
H1394  H     0.91912   0.73685   0.81509   0.00000  Uiso   1.00
O1395  O     0.75060   0.95791   0.86468   0.00000  Uiso   1.00
H1396  H     0.74755   0.92981   0.85158   0.00000  Uiso   1.00
O1397  O     0.91118   0.95572   0.79923   0.00000  Uiso   1.00
H1398  H     0.93728   0.97435   0.78819   0.00000  Uiso   1.00
O1399  O     0.75548   0.71095   0.86744   0.00000  Uiso   1.00
H1400  H     0.72941   0.69231   0.87851   0.00000  Uiso   1.00
O1401  O     0.75657   0.79132   0.94749   0.00000  Uiso   1.00
H1402  H     0.76954   0.77987   0.91997   0.00000  Uiso   1.00
O1403  O     0.91010   0.87534   0.71917   0.00000  Uiso   1.00
H1404  H     0.89713   0.88679   0.74669   0.00000  Uiso   1.00
loop_
_geom_bond_atom_site_label_1
_geom_bond_atom_site_label_2
_geom_bond_distance
_geom_bond_site_symmetry_2
_ccdc_geom_bond_type
C1     O25     1.294   .     A
C1     C12     1.446   .     S
C1     O23     1.295   .     A
C2     O26     1.294   .     A
C2     C11     1.446   .     S
C2     O24     1.295   .     A
C3     O27     1.290   .     A
C3     O29     1.297   .     A
C3     C5      1.445   .     S
C4     C6      1.445   .     S
C4     O28     1.290   .     A
C4     O30     1.297   .     A
C5     C110    1.355   1_455 S
C5     O135    1.392   1_455 S
C6     C57     1.355   .     S
C6     O88     1.392   .     S
C7     C12     1.414   .     A
C7     O41     1.383   .     S
C7     C321    1.402   1_545 S
C8     O43     1.383   .     S
C8     C11     1.414   .     A
C8     C166    1.402   .     S
C9     O45     1.386   .     S
C9     C11     1.403   .     A
C9     C163    1.402   .     S
C10    C12     1.403   .     A
C10    O47     1.386   .     S
C10    C320    1.402   1_545 S
C13    N22     1.357   .     A
C13    H19     1.081   .     S
C13    C951    1.414   1_554 S
C14    N21     1.357   .     A
C14    H20     1.081   .     S
C14    C484    1.414   .     S
C15    O49     1.373   .     S
C15    N21     1.389   .     A
C15    C481    1.414   .     S
C16    O51     1.373   .     S
C16    N22     1.389   .     A
C16    C950    1.414   1_554 S
Cu17   Cu18    2.699   .     S
Cu17   O30     1.974   .     S
Cu17   O23     1.960   .     S
Cu17   O26     1.953   .     S
Cu17   O27     1.977   .     S
Cu17   N21     2.028   .     S
Cu18   O29     1.974   .     S
Cu18   O25     1.953   .     S
Cu18   O24     1.960   .     S
Cu18   O28     1.977   .     S
Cu18   N22     2.028   .     S
O31    C57     1.392   .     S
O31    C84     1.413   .     S
C32    H33     1.114   .     S
C32    H34     1.109   .     S
C32    O135    1.413   1_455 S
C32    H139    1.109   1_455 S
H35    C84     1.109   .     S
O36    C110    1.392   1_455 S
O36    C141    1.413   1_455 S
C37    H38     1.109   .     S
C37    H39     1.114   .     S
C37    O88     1.413   .     S
C37    H92     1.109   .     S
H40    C141    1.109   1_455 S
O41    H42     0.989   .     S
O43    H44     0.989   .     S
O45    H46     0.989   .     S
O47    H48     0.989   .     S
O49    H50     0.981   .     S
O51    H52     0.981   .     S
C53    O77     1.294   .     A
C53    C64     1.446   .     S
C53    O75     1.295   .     A
C54    O78     1.294   .     A
C54    C63     1.446   .     S
C54    O76     1.295   .     A
C55    O79     1.290   .     A
C55    O81     1.297   .     A
C55    C57     1.445   .     S
C56    C58     1.445   .     S
C56    O80     1.290   .     A
C56    O82     1.297   .     A
C58    C109    1.355   .     S
C58    O140    1.392   .     S
C59    C64     1.414   .     A
C59    O93     1.383   .     S
C59    C373    1.402   1_545 S
C60    O95     1.383   .     S
C60    C63     1.414   .     A
C60    C218    1.402   .     S
C61    O97     1.386   .     S
C61    C63     1.403   .     A
C61    C215    1.402   .     S
C62    C64     1.403   .     A
C62    O99     1.386   .     S
C62    C372    1.402   1_545 S
C65    N74     1.357   .     A
C65    H71     1.081   .     S
C65    C1003   1.414   1_554 S
C66    N73     1.357   .     A
C66    H72     1.081   .     S
C66    C536    1.414   .     S
C67    O101    1.373   .     S
C67    N73     1.389   .     A
C67    C533    1.414   .     S
C68    O103    1.373   .     S
C68    N74     1.389   .     A
C68    C1002   1.414   1_554 S
Cu69   Cu70    2.699   .     S
Cu69   O82     1.974   .     S
Cu69   O75     1.960   .     S
Cu69   O78     1.953   .     S
Cu69   O79     1.977   .     S
Cu69   N73     2.028   .     S
Cu70   O81     1.974   .     S
Cu70   O77     1.953   .     S
Cu70   O76     1.960   .     S
Cu70   O80     1.977   .     S
Cu70   N74     2.028   .     S
O83    C109    1.392   .     S
O83    C136    1.413   .     S
C84    H85     1.114   .     S
C84    H86     1.109   .     S
H87    C136    1.109   .     S
C89    H90     1.109   .     S
C89    H91     1.114   .     S
C89    O140    1.413   .     S
C89    H144    1.109   .     S
O93    H94     0.989   .     S
O95    H96     0.989   .     S
O97    H98     0.989   .     S
O99    H100    0.989   .     S
O101   H102    0.981   .     S
O103   H104    0.981   .     S
C105   O129    1.294   .     A
C105   C116    1.446   .     S
C105   O127    1.295   .     A
C106   O130    1.294   .     A
C106   C115    1.446   .     S
C106   O128    1.295   .     A
C107   O131    1.290   .     A
C107   O133    1.297   .     A
C107   C109    1.445   .     S
C108   C110    1.445   .     S
C108   O132    1.290   .     A
C108   O134    1.297   .     A
C110   C5      1.355   1_655 S
C110   O36     1.392   1_655 S
C111   C116    1.414   .     A
C111   O145    1.383   .     S
C111   C425    1.402   1_545 S
C112   O147    1.383   .     S
C112   C115    1.414   .     A
C112   C270    1.402   .     S
C113   O149    1.386   .     S
C113   C115    1.403   .     A
C113   C267    1.402   .     S
C114   C116    1.403   .     A
C114   O151    1.386   .     S
C114   C424    1.402   1_545 S
C117   N126    1.357   .     A
C117   H123    1.081   .     S
C117   C1055   1.414   1_554 S
C118   N125    1.357   .     A
C118   H124    1.081   .     S
C118   C588    1.414   .     S
C119   O153    1.373   .     S
C119   N125    1.389   .     A
C119   C585    1.414   .     S
C120   O155    1.373   .     S
C120   N126    1.389   .     A
C120   C1054   1.414   1_554 S
Cu121  Cu122   2.699   .     S
Cu121  O134    1.974   .     S
Cu121  O127    1.960   .     S
Cu121  O130    1.953   .     S
Cu121  O131    1.977   .     S
Cu121  N125    2.028   .     S
Cu122  O133    1.974   .     S
Cu122  O129    1.953   .     S
Cu122  O128    1.960   .     S
Cu122  O132    1.977   .     S
Cu122  N126    2.028   .     S
O135   C5      1.392   1_655 S
O135   C32     1.413   1_655 S
C136   H137    1.114   .     S
C136   H138    1.109   .     S
H139   C32     1.109   1_655 S
C141   H142    1.109   .     S
C141   H143    1.114   .     S
C141   O36     1.413   1_655 S
C141   H40     1.109   1_655 S
O145   H146    0.989   .     S
O147   H148    0.989   .     S
O149   H150    0.989   .     S
O151   H152    0.989   .     S
O153   H154    0.981   .     S
O155   H156    0.981   .     S
C157   O181    1.294   .     A
C157   C168    1.446   .     S
C157   O179    1.295   .     A
C158   O182    1.294   .     A
C158   C167    1.446   .     S
C158   O180    1.295   .     A
C159   O183    1.290   .     A
C159   O185    1.297   .     A
C159   C161    1.445   .     S
C160   C162    1.445   .     S
C160   O184    1.290   .     A
C160   O186    1.297   .     A
C161   C266    1.355   1_455 S
C161   O291    1.392   1_455 S
C162   C213    1.355   .     S
C162   O244    1.392   .     S
C163   C168    1.414   .     A
C163   O197    1.383   .     S
C164   O199    1.383   .     S
C164   C167    1.414   .     A
C164   C322    1.402   .     S
C165   O201    1.386   .     S
C165   C167    1.403   .     A
C165   C319    1.402   .     S
C166   C168    1.403   .     A
C166   O203    1.386   .     S
C169   N178    1.357   .     A
C169   H175    1.081   .     S
C169   C1107   1.414   1_554 S
C170   N177    1.357   .     A
C170   H176    1.081   .     S
C170   C640    1.414   .     S
C171   O205    1.373   .     S
C171   N177    1.389   .     A
C171   C637    1.414   .     S
C172   O207    1.373   .     S
C172   N178    1.389   .     A
C172   C1106   1.414   1_554 S
Cu173  Cu174   2.699   .     S
Cu173  O186    1.974   .     S
Cu173  O179    1.960   .     S
Cu173  O182    1.953   .     S
Cu173  O183    1.977   .     S
Cu173  N177    2.028   .     S
Cu174  O185    1.974   .     S
Cu174  O181    1.953   .     S
Cu174  O180    1.960   .     S
Cu174  O184    1.977   .     S
Cu174  N178    2.028   .     S
O187   C213    1.392   .     S
O187   C240    1.413   .     S
C188   H189    1.114   .     S
C188   H190    1.109   .     S
C188   O291    1.413   1_455 S
C188   H295    1.109   1_455 S
H191   C240    1.109   .     S
O192   C266    1.392   1_455 S
O192   C297    1.413   1_455 S
C193   H194    1.109   .     S
C193   H195    1.114   .     S
C193   O244    1.413   .     S
C193   H248    1.109   .     S
H196   C297    1.109   1_455 S
O197   H198    0.989   .     S
O199   H200    0.989   .     S
O201   H202    0.989   .     S
O203   H204    0.989   .     S
O205   H206    0.981   .     S
O207   H208    0.981   .     S
C209   O233    1.294   .     A
C209   C220    1.446   .     S
C209   O231    1.295   .     A
C210   O234    1.294   .     A
C210   C219    1.446   .     S
C210   O232    1.295   .     A
C211   O235    1.290   .     A
C211   O237    1.297   .     A
C211   C213    1.445   .     S
C212   C214    1.445   .     S
C212   O236    1.290   .     A
C212   O238    1.297   .     A
C214   C265    1.355   .     S
C214   O296    1.392   .     S
C215   C220    1.414   .     A
C215   O249    1.383   .     S
C216   O251    1.383   .     S
C216   C219    1.414   .     A
C216   C374    1.402   .     S
C217   O253    1.386   .     S
C217   C219    1.403   .     A
C217   C371    1.402   .     S
C218   C220    1.403   .     A
C218   O255    1.386   .     S
C221   N230    1.357   .     A
C221   H227    1.081   .     S
C221   C1159   1.414   1_554 S
C222   N229    1.357   .     A
C222   H228    1.081   .     S
C222   C692    1.414   .     S
C223   O257    1.373   .     S
C223   N229    1.389   .     A
C223   C689    1.414   .     S
C224   O259    1.373   .     S
C224   N230    1.389   .     A
C224   C1158   1.414   1_554 S
Cu225  Cu226   2.699   .     S
Cu225  O238    1.974   .     S
Cu225  O231    1.960   .     S
Cu225  O234    1.953   .     S
Cu225  O235    1.977   .     S
Cu225  N229    2.028   .     S
Cu226  O237    1.974   .     S
Cu226  O233    1.953   .     S
Cu226  O232    1.960   .     S
Cu226  O236    1.977   .     S
Cu226  N230    2.028   .     S
O239   C265    1.392   .     S
O239   C292    1.413   .     S
C240   H241    1.114   .     S
C240   H242    1.109   .     S
H243   C292    1.109   .     S
C245   H246    1.109   .     S
C245   H247    1.114   .     S
C245   O296    1.413   .     S
C245   H300    1.109   .     S
O249   H250    0.989   .     S
O251   H252    0.989   .     S
O253   H254    0.989   .     S
O255   H256    0.989   .     S
O257   H258    0.981   .     S
O259   H260    0.981   .     S
C261   O285    1.294   .     A
C261   C272    1.446   .     S
C261   O283    1.295   .     A
C262   O286    1.294   .     A
C262   C271    1.446   .     S
C262   O284    1.295   .     A
C263   O287    1.290   .     A
C263   O289    1.297   .     A
C263   C265    1.445   .     S
C264   C266    1.445   .     S
C264   O288    1.290   .     A
C264   O290    1.297   .     A
C266   C161    1.355   1_655 S
C266   O192    1.392   1_655 S
C267   C272    1.414   .     A
C267   O301    1.383   .     S
C268   O303    1.383   .     S
C268   C271    1.414   .     A
C268   C426    1.402   .     S
C269   O305    1.386   .     S
C269   C271    1.403   .     A
C269   C423    1.402   .     S
C270   C272    1.403   .     A
C270   O307    1.386   .     S
C273   N282    1.357   .     A
C273   H279    1.081   .     S
C273   C1211   1.414   1_554 S
C274   N281    1.357   .     A
C274   H280    1.081   .     S
C274   C744    1.414   .     S
C275   O309    1.373   .     S
C275   N281    1.389   .     A
C275   C741    1.414   .     S
C276   O311    1.373   .     S
C276   N282    1.389   .     A
C276   C1210   1.414   1_554 S
Cu277  Cu278   2.699   .     S
Cu277  O290    1.974   .     S
Cu277  O283    1.960   .     S
Cu277  O286    1.953   .     S
Cu277  O287    1.977   .     S
Cu277  N281    2.028   .     S
Cu278  O289    1.974   .     S
Cu278  O285    1.953   .     S
Cu278  O284    1.960   .     S
Cu278  O288    1.977   .     S
Cu278  N282    2.028   .     S
O291   C161    1.392   1_655 S
O291   C188    1.413   1_655 S
C292   H293    1.114   .     S
C292   H294    1.109   .     S
H295   C188    1.109   1_655 S
C297   H298    1.109   .     S
C297   H299    1.114   .     S
C297   O192    1.413   1_655 S
C297   H196    1.109   1_655 S
O301   H302    0.989   .     S
O303   H304    0.989   .     S
O305   H306    0.989   .     S
O307   H308    0.989   .     S
O309   H310    0.981   .     S
O311   H312    0.981   .     S
C313   O337    1.294   .     A
C313   C324    1.446   .     S
C313   O335    1.295   .     A
C314   O338    1.294   .     A
C314   C323    1.446   .     S
C314   O336    1.295   .     A
C315   O339    1.290   .     A
C315   O341    1.297   .     A
C315   C317    1.445   .     S
C316   C318    1.445   .     S
C316   O340    1.290   .     A
C316   O342    1.297   .     A
C317   C422    1.355   1_455 S
C317   O447    1.392   1_455 S
C318   C369    1.355   .     S
C318   O400    1.392   .     S
C319   C324    1.414   .     A
C319   O353    1.383   .     S
C320   O355    1.383   .     S
C320   C323    1.414   .     A
C320   C10     1.402   1_565 S
C321   O357    1.386   .     S
C321   C323    1.403   .     A
C321   C7      1.402   1_565 S
C322   C324    1.403   .     A
C322   O359    1.386   .     S
C325   N334    1.357   .     A
C325   H331    1.081   .     S
C325   C1263   1.414   1_554 S
C326   N333    1.357   .     A
C326   H332    1.081   .     S
C326   C796    1.414   .     S
C327   O361    1.373   .     S
C327   N333    1.389   .     A
C327   C793    1.414   .     S
C328   O363    1.373   .     S
C328   N334    1.389   .     A
C328   C1262   1.414   1_554 S
Cu329  Cu330   2.699   .     S
Cu329  O342    1.974   .     S
Cu329  O335    1.960   .     S
Cu329  O338    1.953   .     S
Cu329  O339    1.977   .     S
Cu329  N333    2.028   .     S
Cu330  O341    1.974   .     S
Cu330  O337    1.953   .     S
Cu330  O336    1.960   .     S
Cu330  O340    1.977   .     S
Cu330  N334    2.028   .     S
O343   C369    1.392   .     S
O343   C396    1.413   .     S
C344   H345    1.114   .     S
C344   H346    1.109   .     S
C344   O447    1.413   1_455 S
C344   H451    1.109   1_455 S
H347   C396    1.109   .     S
O348   C422    1.392   1_455 S
O348   C453    1.413   1_455 S
C349   H350    1.109   .     S
C349   H351    1.114   .     S
C349   O400    1.413   .     S
C349   H404    1.109   .     S
H352   C453    1.109   1_455 S
O353   H354    0.989   .     S
O355   H356    0.989   .     S
O357   H358    0.989   .     S
O359   H360    0.989   .     S
O361   H362    0.981   .     S
O363   H364    0.981   .     S
C365   O389    1.294   .     A
C365   C376    1.446   .     S
C365   O387    1.295   .     A
C366   O390    1.294   .     A
C366   C375    1.446   .     S
C366   O388    1.295   .     A
C367   O391    1.290   .     A
C367   O393    1.297   .     A
C367   C369    1.445   .     S
C368   C370    1.445   .     S
C368   O392    1.290   .     A
C368   O394    1.297   .     A
C370   C421    1.355   .     S
C370   O452    1.392   .     S
C371   C376    1.414   .     A
C371   O405    1.383   .     S
C372   O407    1.383   .     S
C372   C375    1.414   .     A
C372   C62     1.402   1_565 S
C373   O409    1.386   .     S
C373   C375    1.403   .     A
C373   C59     1.402   1_565 S
C374   C376    1.403   .     A
C374   O411    1.386   .     S
C377   N386    1.357   .     A
C377   H383    1.081   .     S
C377   C1315   1.414   1_554 S
C378   N385    1.357   .     A
C378   H384    1.081   .     S
C378   C848    1.414   .     S
C379   O413    1.373   .     S
C379   N385    1.389   .     A
C379   C845    1.414   .     S
C380   O415    1.373   .     S
C380   N386    1.389   .     A
C380   C1314   1.414   1_554 S
Cu381  Cu382   2.699   .     S
Cu381  O394    1.974   .     S
Cu381  O387    1.960   .     S
Cu381  O390    1.953   .     S
Cu381  O391    1.977   .     S
Cu381  N385    2.028   .     S
Cu382  O393    1.974   .     S
Cu382  O389    1.953   .     S
Cu382  O388    1.960   .     S
Cu382  O392    1.977   .     S
Cu382  N386    2.028   .     S
O395   C421    1.392   .     S
O395   C448    1.413   .     S
C396   H397    1.114   .     S
C396   H398    1.109   .     S
H399   C448    1.109   .     S
C401   H402    1.109   .     S
C401   H403    1.114   .     S
C401   O452    1.413   .     S
C401   H456    1.109   .     S
O405   H406    0.989   .     S
O407   H408    0.989   .     S
O409   H410    0.989   .     S
O411   H412    0.989   .     S
O413   H414    0.981   .     S
O415   H416    0.981   .     S
C417   O441    1.294   .     A
C417   C428    1.446   .     S
C417   O439    1.295   .     A
C418   O442    1.294   .     A
C418   C427    1.446   .     S
C418   O440    1.295   .     A
C419   O443    1.290   .     A
C419   O445    1.297   .     A
C419   C421    1.445   .     S
C420   C422    1.445   .     S
C420   O444    1.290   .     A
C420   O446    1.297   .     A
C422   C317    1.355   1_655 S
C422   O348    1.392   1_655 S
C423   C428    1.414   .     A
C423   O457    1.383   .     S
C424   O459    1.383   .     S
C424   C427    1.414   .     A
C424   C114    1.402   1_565 S
C425   O461    1.386   .     S
C425   C427    1.403   .     A
C425   C111    1.402   1_565 S
C426   C428    1.403   .     A
C426   O463    1.386   .     S
C429   N438    1.357   .     A
C429   H435    1.081   .     S
C429   C1367   1.414   1_554 S
C430   N437    1.357   .     A
C430   H436    1.081   .     S
C430   C900    1.414   .     S
C431   O465    1.373   .     S
C431   N437    1.389   .     A
C431   C897    1.414   .     S
C432   O467    1.373   .     S
C432   N438    1.389   .     A
C432   C1366   1.414   1_554 S
Cu433  Cu434   2.699   .     S
Cu433  O446    1.974   .     S
Cu433  O439    1.960   .     S
Cu433  O442    1.953   .     S
Cu433  O443    1.977   .     S
Cu433  N437    2.028   .     S
Cu434  O445    1.974   .     S
Cu434  O441    1.953   .     S
Cu434  O440    1.960   .     S
Cu434  O444    1.977   .     S
Cu434  N438    2.028   .     S
O447   C317    1.392   1_655 S
O447   C344    1.413   1_655 S
C448   H449    1.114   .     S
C448   H450    1.109   .     S
H451   C344    1.109   1_655 S
C453   H454    1.109   .     S
C453   H455    1.114   .     S
C453   O348    1.413   1_655 S
C453   H352    1.109   1_655 S
O457   H458    0.989   .     S
O459   H460    0.989   .     S
O461   H462    0.989   .     S
O463   H464    0.989   .     S
O465   H466    0.981   .     S
O467   H468    0.981   .     S
C469   O493    1.294   .     A
C469   C480    1.446   .     S
C469   O491    1.295   .     A
C470   O494    1.294   .     A
C470   C479    1.446   .     S
C470   O492    1.295   .     A
C471   O495    1.290   .     A
C471   O497    1.297   .     A
C471   C473    1.445   .     S
C472   C474    1.445   .     S
C472   O496    1.290   .     A
C472   O498    1.297   .     A
C473   C578    1.355   1_455 S
C473   O603    1.392   1_455 S
C474   C525    1.355   .     S
C474   O556    1.392   .     S
C475   C480    1.414   .     A
C475   O509    1.383   .     S
C475   C789    1.402   1_545 S
C476   O511    1.383   .     S
C476   C479    1.414   .     A
C476   C634    1.402   .     S
C477   O513    1.386   .     S
C477   C479    1.403   .     A
C477   C631    1.402   .     S
C478   C480    1.403   .     A
C478   O515    1.386   .     S
C478   C788    1.402   1_545 S
C481   N490    1.357   .     A
C481   H487    1.081   .     S
C482   N489    1.357   .     A
C482   H488    1.081   .     S
C482   C952    1.414   .     S
C483   O517    1.373   .     S
C483   N489    1.389   .     A
C483   C949    1.414   .     S
C484   O519    1.373   .     S
C484   N490    1.389   .     A
Cu485  Cu486   2.699   .     S
Cu485  O498    1.974   .     S
Cu485  O491    1.960   .     S
Cu485  O494    1.953   .     S
Cu485  O495    1.977   .     S
Cu485  N489    2.028   .     S
Cu486  O497    1.974   .     S
Cu486  O493    1.953   .     S
Cu486  O492    1.960   .     S
Cu486  O496    1.977   .     S
Cu486  N490    2.028   .     S
O499   C525    1.392   .     S
O499   C552    1.413   .     S
C500   H501    1.114   .     S
C500   H502    1.109   .     S
C500   O603    1.413   1_455 S
C500   H607    1.109   1_455 S
H503   C552    1.109   .     S
O504   C578    1.392   1_455 S
O504   C609    1.413   1_455 S
C505   H506    1.109   .     S
C505   H507    1.114   .     S
C505   O556    1.413   .     S
C505   H560    1.109   .     S
H508   C609    1.109   1_455 S
O509   H510    0.989   .     S
O511   H512    0.989   .     S
O513   H514    0.989   .     S
O515   H516    0.989   .     S
O517   H518    0.981   .     S
O519   H520    0.981   .     S
C521   O545    1.294   .     A
C521   C532    1.446   .     S
C521   O543    1.295   .     A
C522   O546    1.294   .     A
C522   C531    1.446   .     S
C522   O544    1.295   .     A
C523   O547    1.290   .     A
C523   O549    1.297   .     A
C523   C525    1.445   .     S
C524   C526    1.445   .     S
C524   O548    1.290   .     A
C524   O550    1.297   .     A
C526   C577    1.355   .     S
C526   O608    1.392   .     S
C527   C532    1.414   .     A
C527   O561    1.383   .     S
C527   C841    1.402   1_545 S
C528   O563    1.383   .     S
C528   C531    1.414   .     A
C528   C686    1.402   .     S
C529   O565    1.386   .     S
C529   C531    1.403   .     A
C529   C683    1.402   .     S
C530   C532    1.403   .     A
C530   O567    1.386   .     S
C530   C840    1.402   1_545 S
C533   N542    1.357   .     A
C533   H539    1.081   .     S
C534   N541    1.357   .     A
C534   H540    1.081   .     S
C534   C1004   1.414   .     S
C535   O569    1.373   .     S
C535   N541    1.389   .     A
C535   C1001   1.414   .     S
C536   O571    1.373   .     S
C536   N542    1.389   .     A
Cu537  Cu538   2.699   .     S
Cu537  O550    1.974   .     S
Cu537  O543    1.960   .     S
Cu537  O546    1.953   .     S
Cu537  O547    1.977   .     S
Cu537  N541    2.028   .     S
Cu538  O549    1.974   .     S
Cu538  O545    1.953   .     S
Cu538  O544    1.960   .     S
Cu538  O548    1.977   .     S
Cu538  N542    2.028   .     S
O551   C577    1.392   .     S
O551   C604    1.413   .     S
C552   H553    1.114   .     S
C552   H554    1.109   .     S
H555   C604    1.109   .     S
C557   H558    1.109   .     S
C557   H559    1.114   .     S
C557   O608    1.413   .     S
C557   H612    1.109   .     S
O561   H562    0.989   .     S
O563   H564    0.989   .     S
O565   H566    0.989   .     S
O567   H568    0.989   .     S
O569   H570    0.981   .     S
O571   H572    0.981   .     S
C573   O597    1.294   .     A
C573   C584    1.446   .     S
C573   O595    1.295   .     A
C574   O598    1.294   .     A
C574   C583    1.446   .     S
C574   O596    1.295   .     A
C575   O599    1.290   .     A
C575   O601    1.297   .     A
C575   C577    1.445   .     S
C576   C578    1.445   .     S
C576   O600    1.290   .     A
C576   O602    1.297   .     A
C578   C473    1.355   1_655 S
C578   O504    1.392   1_655 S
C579   C584    1.414   .     A
C579   O613    1.383   .     S
C579   C893    1.402   1_545 S
C580   O615    1.383   .     S
C580   C583    1.414   .     A
C580   C738    1.402   .     S
C581   O617    1.386   .     S
C581   C583    1.403   .     A
C581   C735    1.402   .     S
C582   C584    1.403   .     A
C582   O619    1.386   .     S
C582   C892    1.402   1_545 S
C585   N594    1.357   .     A
C585   H591    1.081   .     S
C586   N593    1.357   .     A
C586   H592    1.081   .     S
C586   C1056   1.414   .     S
C587   O621    1.373   .     S
C587   N593    1.389   .     A
C587   C1053   1.414   .     S
C588   O623    1.373   .     S
C588   N594    1.389   .     A
Cu589  Cu590   2.699   .     S
Cu589  O602    1.974   .     S
Cu589  O595    1.960   .     S
Cu589  O598    1.953   .     S
Cu589  O599    1.977   .     S
Cu589  N593    2.028   .     S
Cu590  O601    1.974   .     S
Cu590  O597    1.953   .     S
Cu590  O596    1.960   .     S
Cu590  O600    1.977   .     S
Cu590  N594    2.028   .     S
O603   C473    1.392   1_655 S
O603   C500    1.413   1_655 S
C604   H605    1.114   .     S
C604   H606    1.109   .     S
H607   C500    1.109   1_655 S
C609   H610    1.109   .     S
C609   H611    1.114   .     S
C609   O504    1.413   1_655 S
C609   H508    1.109   1_655 S
O613   H614    0.989   .     S
O615   H616    0.989   .     S
O617   H618    0.989   .     S
O619   H620    0.989   .     S
O621   H622    0.981   .     S
O623   H624    0.981   .     S
C625   O649    1.294   .     A
C625   C636    1.446   .     S
C625   O647    1.295   .     A
C626   O650    1.294   .     A
C626   C635    1.446   .     S
C626   O648    1.295   .     A
C627   O651    1.290   .     A
C627   O653    1.297   .     A
C627   C629    1.445   .     S
C628   C630    1.445   .     S
C628   O652    1.290   .     A
C628   O654    1.297   .     A
C629   C734    1.355   1_455 S
C629   O759    1.392   1_455 S
C630   C681    1.355   .     S
C630   O712    1.392   .     S
C631   C636    1.414   .     A
C631   O665    1.383   .     S
C632   O667    1.383   .     S
C632   C635    1.414   .     A
C632   C790    1.402   .     S
C633   O669    1.386   .     S
C633   C635    1.403   .     A
C633   C787    1.402   .     S
C634   C636    1.403   .     A
C634   O671    1.386   .     S
C637   N646    1.357   .     A
C637   H643    1.081   .     S
C638   N645    1.357   .     A
C638   H644    1.081   .     S
C638   C1108   1.414   .     S
C639   O673    1.373   .     S
C639   N645    1.389   .     A
C639   C1105   1.414   .     S
C640   O675    1.373   .     S
C640   N646    1.389   .     A
Cu641  Cu642   2.699   .     S
Cu641  O654    1.974   .     S
Cu641  O647    1.960   .     S
Cu641  O650    1.953   .     S
Cu641  O651    1.977   .     S
Cu641  N645    2.028   .     S
Cu642  O653    1.974   .     S
Cu642  O649    1.953   .     S
Cu642  O648    1.960   .     S
Cu642  O652    1.977   .     S
Cu642  N646    2.028   .     S
O655   C681    1.392   .     S
O655   C708    1.413   .     S
C656   H657    1.114   .     S
C656   H658    1.109   .     S
C656   O759    1.413   1_455 S
C656   H763    1.109   1_455 S
H659   C708    1.109   .     S
O660   C734    1.392   1_455 S
O660   C765    1.413   1_455 S
C661   H662    1.109   .     S
C661   H663    1.114   .     S
C661   O712    1.413   .     S
C661   H716    1.109   .     S
H664   C765    1.109   1_455 S
O665   H666    0.989   .     S
O667   H668    0.989   .     S
O669   H670    0.989   .     S
O671   H672    0.989   .     S
O673   H674    0.981   .     S
O675   H676    0.981   .     S
C677   O701    1.294   .     A
C677   C688    1.446   .     S
C677   O699    1.295   .     A
C678   O702    1.294   .     A
C678   C687    1.446   .     S
C678   O700    1.295   .     A
C679   O703    1.290   .     A
C679   O705    1.297   .     A
C679   C681    1.445   .     S
C680   C682    1.445   .     S
C680   O704    1.290   .     A
C680   O706    1.297   .     A
C682   C733    1.355   .     S
C682   O764    1.392   .     S
C683   C688    1.414   .     A
C683   O717    1.383   .     S
C684   O719    1.383   .     S
C684   C687    1.414   .     A
C684   C842    1.402   .     S
C685   O721    1.386   .     S
C685   C687    1.403   .     A
C685   C839    1.402   .     S
C686   C688    1.403   .     A
C686   O723    1.386   .     S
C689   N698    1.357   .     A
C689   H695    1.081   .     S
C690   N697    1.357   .     A
C690   H696    1.081   .     S
C690   C1160   1.414   .     S
C691   O725    1.373   .     S
C691   N697    1.389   .     A
C691   C1157   1.414   .     S
C692   O727    1.373   .     S
C692   N698    1.389   .     A
Cu693  Cu694   2.699   .     S
Cu693  O706    1.974   .     S
Cu693  O699    1.960   .     S
Cu693  O702    1.953   .     S
Cu693  O703    1.977   .     S
Cu693  N697    2.028   .     S
Cu694  O705    1.974   .     S
Cu694  O701    1.953   .     S
Cu694  O700    1.960   .     S
Cu694  O704    1.977   .     S
Cu694  N698    2.028   .     S
O707   C733    1.392   .     S
O707   C760    1.413   .     S
C708   H709    1.114   .     S
C708   H710    1.109   .     S
H711   C760    1.109   .     S
C713   H714    1.109   .     S
C713   H715    1.114   .     S
C713   O764    1.413   .     S
C713   H768    1.109   .     S
O717   H718    0.989   .     S
O719   H720    0.989   .     S
O721   H722    0.989   .     S
O723   H724    0.989   .     S
O725   H726    0.981   .     S
O727   H728    0.981   .     S
C729   O753    1.294   .     A
C729   C740    1.446   .     S
C729   O751    1.295   .     A
C730   O754    1.294   .     A
C730   C739    1.446   .     S
C730   O752    1.295   .     A
C731   O755    1.290   .     A
C731   O757    1.297   .     A
C731   C733    1.445   .     S
C732   C734    1.445   .     S
C732   O756    1.290   .     A
C732   O758    1.297   .     A
C734   C629    1.355   1_655 S
C734   O660    1.392   1_655 S
C735   C740    1.414   .     A
C735   O769    1.383   .     S
C736   O771    1.383   .     S
C736   C739    1.414   .     A
C736   C894    1.402   .     S
C737   O773    1.386   .     S
C737   C739    1.403   .     A
C737   C891    1.402   .     S
C738   C740    1.403   .     A
C738   O775    1.386   .     S
C741   N750    1.357   .     A
C741   H747    1.081   .     S
C742   N749    1.357   .     A
C742   H748    1.081   .     S
C742   C1212   1.414   .     S
C743   O777    1.373   .     S
C743   N749    1.389   .     A
C743   C1209   1.414   .     S
C744   O779    1.373   .     S
C744   N750    1.389   .     A
Cu745  Cu746   2.699   .     S
Cu745  O758    1.974   .     S
Cu745  O751    1.960   .     S
Cu745  O754    1.953   .     S
Cu745  O755    1.977   .     S
Cu745  N749    2.028   .     S
Cu746  O757    1.974   .     S
Cu746  O753    1.953   .     S
Cu746  O752    1.960   .     S
Cu746  O756    1.977   .     S
Cu746  N750    2.028   .     S
O759   C629    1.392   1_655 S
O759   C656    1.413   1_655 S
C760   H761    1.114   .     S
C760   H762    1.109   .     S
H763   C656    1.109   1_655 S
C765   H766    1.109   .     S
C765   H767    1.114   .     S
C765   O660    1.413   1_655 S
C765   H664    1.109   1_655 S
O769   H770    0.989   .     S
O771   H772    0.989   .     S
O773   H774    0.989   .     S
O775   H776    0.989   .     S
O777   H778    0.981   .     S
O779   H780    0.981   .     S
C781   O805    1.294   .     A
C781   C792    1.446   .     S
C781   O803    1.295   .     A
C782   O806    1.294   .     A
C782   C791    1.446   .     S
C782   O804    1.295   .     A
C783   O807    1.290   .     A
C783   O809    1.297   .     A
C783   C785    1.445   .     S
C784   C786    1.445   .     S
C784   O808    1.290   .     A
C784   O810    1.297   .     A
C785   C890    1.355   1_455 S
C785   O915    1.392   1_455 S
C786   C837    1.355   .     S
C786   O868    1.392   .     S
C787   C792    1.414   .     A
C787   O821    1.383   .     S
C788   O823    1.383   .     S
C788   C791    1.414   .     A
C788   C478    1.402   1_565 S
C789   O825    1.386   .     S
C789   C791    1.403   .     A
C789   C475    1.402   1_565 S
C790   C792    1.403   .     A
C790   O827    1.386   .     S
C793   N802    1.357   .     A
C793   H799    1.081   .     S
C794   N801    1.357   .     A
C794   H800    1.081   .     S
C794   C1264   1.414   .     S
C795   O829    1.373   .     S
C795   N801    1.389   .     A
C795   C1261   1.414   .     S
C796   O831    1.373   .     S
C796   N802    1.389   .     A
Cu797  Cu798   2.699   .     S
Cu797  O810    1.974   .     S
Cu797  O803    1.960   .     S
Cu797  O806    1.953   .     S
Cu797  O807    1.977   .     S
Cu797  N801    2.028   .     S
Cu798  O809    1.974   .     S
Cu798  O805    1.953   .     S
Cu798  O804    1.960   .     S
Cu798  O808    1.977   .     S
Cu798  N802    2.028   .     S
O811   C837    1.392   .     S
O811   C864    1.413   .     S
C812   H813    1.114   .     S
C812   H814    1.109   .     S
C812   O915    1.413   1_455 S
C812   H919    1.109   1_455 S
H815   C864    1.109   .     S
O816   C890    1.392   1_455 S
O816   C921    1.413   1_455 S
C817   H818    1.109   .     S
C817   H819    1.114   .     S
C817   O868    1.413   .     S
C817   H872    1.109   .     S
H820   C921    1.109   1_455 S
O821   H822    0.989   .     S
O823   H824    0.989   .     S
O825   H826    0.989   .     S
O827   H828    0.989   .     S
O829   H830    0.981   .     S
O831   H832    0.981   .     S
C833   O857    1.294   .     A
C833   C844    1.446   .     S
C833   O855    1.295   .     A
C834   O858    1.294   .     A
C834   C843    1.446   .     S
C834   O856    1.295   .     A
C835   O859    1.290   .     A
C835   O861    1.297   .     A
C835   C837    1.445   .     S
C836   C838    1.445   .     S
C836   O860    1.290   .     A
C836   O862    1.297   .     A
C838   C889    1.355   .     S
C838   O920    1.392   .     S
C839   C844    1.414   .     A
C839   O873    1.383   .     S
C840   O875    1.383   .     S
C840   C843    1.414   .     A
C840   C530    1.402   1_565 S
C841   O877    1.386   .     S
C841   C843    1.403   .     A
C841   C527    1.402   1_565 S
C842   C844    1.403   .     A
C842   O879    1.386   .     S
C845   N854    1.357   .     A
C845   H851    1.081   .     S
C846   N853    1.357   .     A
C846   H852    1.081   .     S
C846   C1316   1.414   .     S
C847   O881    1.373   .     S
C847   N853    1.389   .     A
C847   C1313   1.414   .     S
C848   O883    1.373   .     S
C848   N854    1.389   .     A
Cu849  Cu850   2.699   .     S
Cu849  O862    1.974   .     S
Cu849  O855    1.960   .     S
Cu849  O858    1.953   .     S
Cu849  O859    1.977   .     S
Cu849  N853    2.028   .     S
Cu850  O861    1.974   .     S
Cu850  O857    1.953   .     S
Cu850  O856    1.960   .     S
Cu850  O860    1.977   .     S
Cu850  N854    2.028   .     S
O863   C889    1.392   .     S
O863   C916    1.413   .     S
C864   H865    1.114   .     S
C864   H866    1.109   .     S
H867   C916    1.109   .     S
C869   H870    1.109   .     S
C869   H871    1.114   .     S
C869   O920    1.413   .     S
C869   H924    1.109   .     S
O873   H874    0.989   .     S
O875   H876    0.989   .     S
O877   H878    0.989   .     S
O879   H880    0.989   .     S
O881   H882    0.981   .     S
O883   H884    0.981   .     S
C885   O909    1.294   .     A
C885   C896    1.446   .     S
C885   O907    1.295   .     A
C886   O910    1.294   .     A
C886   C895    1.446   .     S
C886   O908    1.295   .     A
C887   O911    1.290   .     A
C887   O913    1.297   .     A
C887   C889    1.445   .     S
C888   C890    1.445   .     S
C888   O912    1.290   .     A
C888   O914    1.297   .     A
C890   C785    1.355   1_655 S
C890   O816    1.392   1_655 S
C891   C896    1.414   .     A
C891   O925    1.383   .     S
C892   O927    1.383   .     S
C892   C895    1.414   .     A
C892   C582    1.402   1_565 S
C893   O929    1.386   .     S
C893   C895    1.403   .     A
C893   C579    1.402   1_565 S
C894   C896    1.403   .     A
C894   O931    1.386   .     S
C897   N906    1.357   .     A
C897   H903    1.081   .     S
C898   N905    1.357   .     A
C898   H904    1.081   .     S
C898   C1368   1.414   .     S
C899   O933    1.373   .     S
C899   N905    1.389   .     A
C899   C1365   1.414   .     S
C900   O935    1.373   .     S
C900   N906    1.389   .     A
Cu901  Cu902   2.699   .     S
Cu901  O914    1.974   .     S
Cu901  O907    1.960   .     S
Cu901  O910    1.953   .     S
Cu901  O911    1.977   .     S
Cu901  N905    2.028   .     S
Cu902  O913    1.974   .     S
Cu902  O909    1.953   .     S
Cu902  O908    1.960   .     S
Cu902  O912    1.977   .     S
Cu902  N906    2.028   .     S
O915   C785    1.392   1_655 S
O915   C812    1.413   1_655 S
C916   H917    1.114   .     S
C916   H918    1.109   .     S
H919   C812    1.109   1_655 S
C921   H922    1.109   .     S
C921   H923    1.114   .     S
C921   O816    1.413   1_655 S
C921   H820    1.109   1_655 S
O925   H926    0.989   .     S
O927   H928    0.989   .     S
O929   H930    0.989   .     S
O931   H932    0.989   .     S
O933   H934    0.981   .     S
O935   H936    0.981   .     S
C937   O961    1.294   .     A
C937   C948    1.446   .     S
C937   O959    1.295   .     A
C938   O962    1.294   .     A
C938   C947    1.446   .     S
C938   O960    1.295   .     A
C939   O963    1.290   .     A
C939   O965    1.297   .     A
C939   C941    1.445   .     S
C940   C942    1.445   .     S
C940   O964    1.290   .     A
C940   O966    1.297   .     A
C941   C1046   1.355   1_455 S
C941   O1071   1.392   1_455 S
C942   C993    1.355   .     S
C942   O1024   1.392   .     S
C943   C948    1.414   .     A
C943   O977    1.383   .     S
C943   C1257   1.402   1_545 S
C944   O979    1.383   .     S
C944   C947    1.414   .     A
C944   C1102   1.402   .     S
C945   O981    1.386   .     S
C945   C947    1.403   .     A
C945   C1099   1.402   .     S
C946   C948    1.403   .     A
C946   O983    1.386   .     S
C946   C1256   1.402   1_545 S
C949   N958    1.357   .     A
C949   H955    1.081   .     S
C950   N957    1.357   .     A
C950   H956    1.081   .     S
C950   C16     1.414   1_556 S
C951   O985    1.373   .     S
C951   N957    1.389   .     A
C951   C13     1.414   1_556 S
C952   O987    1.373   .     S
C952   N958    1.389   .     A
Cu953  Cu954   2.699   .     S
Cu953  O966    1.974   .     S
Cu953  O959    1.960   .     S
Cu953  O962    1.953   .     S
Cu953  O963    1.977   .     S
Cu953  N957    2.028   .     S
Cu954  O965    1.974   .     S
Cu954  O961    1.953   .     S
Cu954  O960    1.960   .     S
Cu954  O964    1.977   .     S
Cu954  N958    2.028   .     S
O967   C993    1.392   .     S
O967   C1020   1.413   .     S
C968   H969    1.114   .     S
C968   H970    1.109   .     S
C968   O1071   1.413   1_455 S
C968   H1075   1.109   1_455 S
H971   C1020   1.109   .     S
O972   C1046   1.392   1_455 S
O972   C1077   1.413   1_455 S
C973   H974    1.109   .     S
C973   H975    1.114   .     S
C973   O1024   1.413   .     S
C973   H1028   1.109   .     S
H976   C1077   1.109   1_455 S
O977   H978    0.989   .     S
O979   H980    0.989   .     S
O981   H982    0.989   .     S
O983   H984    0.989   .     S
O985   H986    0.981   .     S
O987   H988    0.981   .     S
C989   O1013   1.294   .     A
C989   C1000   1.446   .     S
C989   O1011   1.295   .     A
C990   O1014   1.294   .     A
C990   C999    1.446   .     S
C990   O1012   1.295   .     A
C991   O1015   1.290   .     A
C991   O1017   1.297   .     A
C991   C993    1.445   .     S
C992   C994    1.445   .     S
C992   O1016   1.290   .     A
C992   O1018   1.297   .     A
C994   C1045   1.355   .     S
C994   O1076   1.392   .     S
C995   C1000   1.414   .     A
C995   O1029   1.383   .     S
C995   C1309   1.402   1_545 S
C996   O1031   1.383   .     S
C996   C999    1.414   .     A
C996   C1154   1.402   .     S
C997   O1033   1.386   .     S
C997   C999    1.403   .     A
C997   C1151   1.402   .     S
C998   C1000   1.403   .     A
C998   O1035   1.386   .     S
C998   C1308   1.402   1_545 S
C1001  N1010   1.357   .     A
C1001  H1007   1.081   .     S
C1002  N1009   1.357   .     A
C1002  H1008   1.081   .     S
C1002  C68     1.414   1_556 S
C1003  O1037   1.373   .     S
C1003  N1009   1.389   .     A
C1003  C65     1.414   1_556 S
C1004  O1039   1.373   .     S
C1004  N1010   1.389   .     A
Cu1005 Cu1006  2.699   .     S
Cu1005 O1018   1.974   .     S
Cu1005 O1011   1.960   .     S
Cu1005 O1014   1.953   .     S
Cu1005 O1015   1.977   .     S
Cu1005 N1009   2.028   .     S
Cu1006 O1017   1.974   .     S
Cu1006 O1013   1.953   .     S
Cu1006 O1012   1.960   .     S
Cu1006 O1016   1.977   .     S
Cu1006 N1010   2.028   .     S
O1019  C1045   1.392   .     S
O1019  C1072   1.413   .     S
C1020  H1021   1.114   .     S
C1020  H1022   1.109   .     S
H1023  C1072   1.109   .     S
C1025  H1026   1.109   .     S
C1025  H1027   1.114   .     S
C1025  O1076   1.413   .     S
C1025  H1080   1.109   .     S
O1029  H1030   0.989   .     S
O1031  H1032   0.989   .     S
O1033  H1034   0.989   .     S
O1035  H1036   0.989   .     S
O1037  H1038   0.981   .     S
O1039  H1040   0.981   .     S
C1041  O1065   1.294   .     A
C1041  C1052   1.446   .     S
C1041  O1063   1.295   .     A
C1042  O1066   1.294   .     A
C1042  C1051   1.446   .     S
C1042  O1064   1.295   .     A
C1043  O1067   1.290   .     A
C1043  O1069   1.297   .     A
C1043  C1045   1.445   .     S
C1044  C1046   1.445   .     S
C1044  O1068   1.290   .     A
C1044  O1070   1.297   .     A
C1046  C941    1.355   1_655 S
C1046  O972    1.392   1_655 S
C1047  C1052   1.414   .     A
C1047  O1081   1.383   .     S
C1047  C1361   1.402   1_545 S
C1048  O1083   1.383   .     S
C1048  C1051   1.414   .     A
C1048  C1206   1.402   .     S
C1049  O1085   1.386   .     S
C1049  C1051   1.403   .     A
C1049  C1203   1.402   .     S
C1050  C1052   1.403   .     A
C1050  O1087   1.386   .     S
C1050  C1360   1.402   1_545 S
C1053  N1062   1.357   .     A
C1053  H1059   1.081   .     S
C1054  N1061   1.357   .     A
C1054  H1060   1.081   .     S
C1054  C120    1.414   1_556 S
C1055  O1089   1.373   .     S
C1055  N1061   1.389   .     A
C1055  C117    1.414   1_556 S
C1056  O1091   1.373   .     S
C1056  N1062   1.389   .     A
Cu1057 Cu1058  2.699   .     S
Cu1057 O1070   1.974   .     S
Cu1057 O1063   1.960   .     S
Cu1057 O1066   1.953   .     S
Cu1057 O1067   1.977   .     S
Cu1057 N1061   2.028   .     S
Cu1058 O1069   1.974   .     S
Cu1058 O1065   1.953   .     S
Cu1058 O1064   1.960   .     S
Cu1058 O1068   1.977   .     S
Cu1058 N1062   2.028   .     S
O1071  C941    1.392   1_655 S
O1071  C968    1.413   1_655 S
C1072  H1073   1.114   .     S
C1072  H1074   1.109   .     S
H1075  C968    1.109   1_655 S
C1077  H1078   1.109   .     S
C1077  H1079   1.114   .     S
C1077  O972    1.413   1_655 S
C1077  H976    1.109   1_655 S
O1081  H1082   0.989   .     S
O1083  H1084   0.989   .     S
O1085  H1086   0.989   .     S
O1087  H1088   0.989   .     S
O1089  H1090   0.981   .     S
O1091  H1092   0.981   .     S
C1093  O1117   1.294   .     A
C1093  C1104   1.446   .     S
C1093  O1115   1.295   .     A
C1094  O1118   1.294   .     A
C1094  C1103   1.446   .     S
C1094  O1116   1.295   .     A
C1095  O1119   1.290   .     A
C1095  O1121   1.297   .     A
C1095  C1097   1.445   .     S
C1096  C1098   1.445   .     S
C1096  O1120   1.290   .     A
C1096  O1122   1.297   .     A
C1097  C1202   1.355   1_455 S
C1097  O1227   1.392   1_455 S
C1098  C1149   1.355   .     S
C1098  O1180   1.392   .     S
C1099  C1104   1.414   .     A
C1099  O1133   1.383   .     S
C1100  O1135   1.383   .     S
C1100  C1103   1.414   .     A
C1100  C1258   1.402   .     S
C1101  O1137   1.386   .     S
C1101  C1103   1.403   .     A
C1101  C1255   1.402   .     S
C1102  C1104   1.403   .     A
C1102  O1139   1.386   .     S
C1105  N1114   1.357   .     A
C1105  H1111   1.081   .     S
C1106  N1113   1.357   .     A
C1106  H1112   1.081   .     S
C1106  C172    1.414   1_556 S
C1107  O1141   1.373   .     S
C1107  N1113   1.389   .     A
C1107  C169    1.414   1_556 S
C1108  O1143   1.373   .     S
C1108  N1114   1.389   .     A
Cu1109 Cu1110  2.699   .     S
Cu1109 O1122   1.974   .     S
Cu1109 O1115   1.960   .     S
Cu1109 O1118   1.953   .     S
Cu1109 O1119   1.977   .     S
Cu1109 N1113   2.028   .     S
Cu1110 O1121   1.974   .     S
Cu1110 O1117   1.953   .     S
Cu1110 O1116   1.960   .     S
Cu1110 O1120   1.977   .     S
Cu1110 N1114   2.028   .     S
O1123  C1149   1.392   .     S
O1123  C1176   1.413   .     S
C1124  H1125   1.114   .     S
C1124  H1126   1.109   .     S
C1124  O1227   1.413   1_455 S
C1124  H1231   1.109   1_455 S
H1127  C1176   1.109   .     S
O1128  C1202   1.392   1_455 S
O1128  C1233   1.413   1_455 S
C1129  H1130   1.109   .     S
C1129  H1131   1.114   .     S
C1129  O1180   1.413   .     S
C1129  H1184   1.109   .     S
H1132  C1233   1.109   1_455 S
O1133  H1134   0.989   .     S
O1135  H1136   0.989   .     S
O1137  H1138   0.989   .     S
O1139  H1140   0.989   .     S
O1141  H1142   0.981   .     S
O1143  H1144   0.981   .     S
C1145  O1169   1.294   .     A
C1145  C1156   1.446   .     S
C1145  O1167   1.295   .     A
C1146  O1170   1.294   .     A
C1146  C1155   1.446   .     S
C1146  O1168   1.295   .     A
C1147  O1171   1.290   .     A
C1147  O1173   1.297   .     A
C1147  C1149   1.445   .     S
C1148  C1150   1.445   .     S
C1148  O1172   1.290   .     A
C1148  O1174   1.297   .     A
C1150  C1201   1.355   .     S
C1150  O1232   1.392   .     S
C1151  C1156   1.414   .     A
C1151  O1185   1.383   .     S
C1152  O1187   1.383   .     S
C1152  C1155   1.414   .     A
C1152  C1310   1.402   .     S
C1153  O1189   1.386   .     S
C1153  C1155   1.403   .     A
C1153  C1307   1.402   .     S
C1154  C1156   1.403   .     A
C1154  O1191   1.386   .     S
C1157  N1166   1.357   .     A
C1157  H1163   1.081   .     S
C1158  N1165   1.357   .     A
C1158  H1164   1.081   .     S
C1158  C224    1.414   1_556 S
C1159  O1193   1.373   .     S
C1159  N1165   1.389   .     A
C1159  C221    1.414   1_556 S
C1160  O1195   1.373   .     S
C1160  N1166   1.389   .     A
Cu1161 Cu1162  2.699   .     S
Cu1161 O1174   1.974   .     S
Cu1161 O1167   1.960   .     S
Cu1161 O1170   1.953   .     S
Cu1161 O1171   1.977   .     S
Cu1161 N1165   2.028   .     S
Cu1162 O1173   1.974   .     S
Cu1162 O1169   1.953   .     S
Cu1162 O1168   1.960   .     S
Cu1162 O1172   1.977   .     S
Cu1162 N1166   2.028   .     S
O1175  C1201   1.392   .     S
O1175  C1228   1.413   .     S
C1176  H1177   1.114   .     S
C1176  H1178   1.109   .     S
H1179  C1228   1.109   .     S
C1181  H1182   1.109   .     S
C1181  H1183   1.114   .     S
C1181  O1232   1.413   .     S
C1181  H1236   1.109   .     S
O1185  H1186   0.989   .     S
O1187  H1188   0.989   .     S
O1189  H1190   0.989   .     S
O1191  H1192   0.989   .     S
O1193  H1194   0.981   .     S
O1195  H1196   0.981   .     S
C1197  O1221   1.294   .     A
C1197  C1208   1.446   .     S
C1197  O1219   1.295   .     A
C1198  O1222   1.294   .     A
C1198  C1207   1.446   .     S
C1198  O1220   1.295   .     A
C1199  O1223   1.290   .     A
C1199  O1225   1.297   .     A
C1199  C1201   1.445   .     S
C1200  C1202   1.445   .     S
C1200  O1224   1.290   .     A
C1200  O1226   1.297   .     A
C1202  C1097   1.355   1_655 S
C1202  O1128   1.392   1_655 S
C1203  C1208   1.414   .     A
C1203  O1237   1.383   .     S
C1204  O1239   1.383   .     S
C1204  C1207   1.414   .     A
C1204  C1362   1.402   .     S
C1205  O1241   1.386   .     S
C1205  C1207   1.403   .     A
C1205  C1359   1.402   .     S
C1206  C1208   1.403   .     A
C1206  O1243   1.386   .     S
C1209  N1218   1.357   .     A
C1209  H1215   1.081   .     S
C1210  N1217   1.357   .     A
C1210  H1216   1.081   .     S
C1210  C276    1.414   1_556 S
C1211  O1245   1.373   .     S
C1211  N1217   1.389   .     A
C1211  C273    1.414   1_556 S
C1212  O1247   1.373   .     S
C1212  N1218   1.389   .     A
Cu1213 Cu1214  2.699   .     S
Cu1213 O1226   1.974   .     S
Cu1213 O1219   1.960   .     S
Cu1213 O1222   1.953   .     S
Cu1213 O1223   1.977   .     S
Cu1213 N1217   2.028   .     S
Cu1214 O1225   1.974   .     S
Cu1214 O1221   1.953   .     S
Cu1214 O1220   1.960   .     S
Cu1214 O1224   1.977   .     S
Cu1214 N1218   2.028   .     S
O1227  C1097   1.392   1_655 S
O1227  C1124   1.413   1_655 S
C1228  H1229   1.114   .     S
C1228  H1230   1.109   .     S
H1231  C1124   1.109   1_655 S
C1233  H1234   1.109   .     S
C1233  H1235   1.114   .     S
C1233  O1128   1.413   1_655 S
C1233  H1132   1.109   1_655 S
O1237  H1238   0.989   .     S
O1239  H1240   0.989   .     S
O1241  H1242   0.989   .     S
O1243  H1244   0.989   .     S
O1245  H1246   0.981   .     S
O1247  H1248   0.981   .     S
C1249  O1273   1.294   .     A
C1249  C1260   1.446   .     S
C1249  O1271   1.295   .     A
C1250  O1274   1.294   .     A
C1250  C1259   1.446   .     S
C1250  O1272   1.295   .     A
C1251  O1275   1.290   .     A
C1251  O1277   1.297   .     A
C1251  C1253   1.445   .     S
C1252  C1254   1.445   .     S
C1252  O1276   1.290   .     A
C1252  O1278   1.297   .     A
C1253  C1358   1.355   1_455 S
C1253  O1383   1.392   1_455 S
C1254  C1305   1.355   .     S
C1254  O1336   1.392   .     S
C1255  C1260   1.414   .     A
C1255  O1289   1.383   .     S
C1256  O1291   1.383   .     S
C1256  C1259   1.414   .     A
C1256  C946    1.402   1_565 S
C1257  O1293   1.386   .     S
C1257  C1259   1.403   .     A
C1257  C943    1.402   1_565 S
C1258  C1260   1.403   .     A
C1258  O1295   1.386   .     S
C1261  N1270   1.357   .     A
C1261  H1267   1.081   .     S
C1262  N1269   1.357   .     A
C1262  H1268   1.081   .     S
C1262  C328    1.414   1_556 S
C1263  O1297   1.373   .     S
C1263  N1269   1.389   .     A
C1263  C325    1.414   1_556 S
C1264  O1299   1.373   .     S
C1264  N1270   1.389   .     A
Cu1265 Cu1266  2.699   .     S
Cu1265 O1278   1.974   .     S
Cu1265 O1271   1.960   .     S
Cu1265 O1274   1.953   .     S
Cu1265 O1275   1.977   .     S
Cu1265 N1269   2.028   .     S
Cu1266 O1277   1.974   .     S
Cu1266 O1273   1.953   .     S
Cu1266 O1272   1.960   .     S
Cu1266 O1276   1.977   .     S
Cu1266 N1270   2.028   .     S
O1279  C1305   1.392   .     S
O1279  C1332   1.413   .     S
C1280  H1281   1.114   .     S
C1280  H1282   1.109   .     S
C1280  O1383   1.413   1_455 S
C1280  H1387   1.109   1_455 S
H1283  C1332   1.109   .     S
O1284  C1358   1.392   1_455 S
O1284  C1389   1.413   1_455 S
C1285  H1286   1.109   .     S
C1285  H1287   1.114   .     S
C1285  O1336   1.413   .     S
C1285  H1340   1.109   .     S
H1288  C1389   1.109   1_455 S
O1289  H1290   0.989   .     S
O1291  H1292   0.989   .     S
O1293  H1294   0.989   .     S
O1295  H1296   0.989   .     S
O1297  H1298   0.981   .     S
O1299  H1300   0.981   .     S
C1301  O1325   1.294   .     A
C1301  C1312   1.446   .     S
C1301  O1323   1.295   .     A
C1302  O1326   1.294   .     A
C1302  C1311   1.446   .     S
C1302  O1324   1.295   .     A
C1303  O1327   1.290   .     A
C1303  O1329   1.297   .     A
C1303  C1305   1.445   .     S
C1304  C1306   1.445   .     S
C1304  O1328   1.290   .     A
C1304  O1330   1.297   .     A
C1306  C1357   1.355   .     S
C1306  O1388   1.392   .     S
C1307  C1312   1.414   .     A
C1307  O1341   1.383   .     S
C1308  O1343   1.383   .     S
C1308  C1311   1.414   .     A
C1308  C998    1.402   1_565 S
C1309  O1345   1.386   .     S
C1309  C1311   1.403   .     A
C1309  C995    1.402   1_565 S
C1310  C1312   1.403   .     A
C1310  O1347   1.386   .     S
C1313  N1322   1.357   .     A
C1313  H1319   1.081   .     S
C1314  N1321   1.357   .     A
C1314  H1320   1.081   .     S
C1314  C380    1.414   1_556 S
C1315  O1349   1.373   .     S
C1315  N1321   1.389   .     A
C1315  C377    1.414   1_556 S
C1316  O1351   1.373   .     S
C1316  N1322   1.389   .     A
Cu1317 Cu1318  2.699   .     S
Cu1317 O1330   1.974   .     S
Cu1317 O1323   1.960   .     S
Cu1317 O1326   1.953   .     S
Cu1317 O1327   1.977   .     S
Cu1317 N1321   2.028   .     S
Cu1318 O1329   1.974   .     S
Cu1318 O1325   1.953   .     S
Cu1318 O1324   1.960   .     S
Cu1318 O1328   1.977   .     S
Cu1318 N1322   2.028   .     S
O1331  C1357   1.392   .     S
O1331  C1384   1.413   .     S
C1332  H1333   1.114   .     S
C1332  H1334   1.109   .     S
H1335  C1384   1.109   .     S
C1337  H1338   1.109   .     S
C1337  H1339   1.114   .     S
C1337  O1388   1.413   .     S
C1337  H1392   1.109   .     S
O1341  H1342   0.989   .     S
O1343  H1344   0.989   .     S
O1345  H1346   0.989   .     S
O1347  H1348   0.989   .     S
O1349  H1350   0.981   .     S
O1351  H1352   0.981   .     S
C1353  O1377   1.294   .     A
C1353  C1364   1.446   .     S
C1353  O1375   1.295   .     A
C1354  O1378   1.294   .     A
C1354  C1363   1.446   .     S
C1354  O1376   1.295   .     A
C1355  O1379   1.290   .     A
C1355  O1381   1.297   .     A
C1355  C1357   1.445   .     S
C1356  C1358   1.445   .     S
C1356  O1380   1.290   .     A
C1356  O1382   1.297   .     A
C1358  C1253   1.355   1_655 S
C1358  O1284   1.392   1_655 S
C1359  C1364   1.414   .     A
C1359  O1393   1.383   .     S
C1360  O1395   1.383   .     S
C1360  C1363   1.414   .     A
C1360  C1050   1.402   1_565 S
C1361  O1397   1.386   .     S
C1361  C1363   1.403   .     A
C1361  C1047   1.402   1_565 S
C1362  C1364   1.403   .     A
C1362  O1399   1.386   .     S
C1365  N1374   1.357   .     A
C1365  H1371   1.081   .     S
C1366  N1373   1.357   .     A
C1366  H1372   1.081   .     S
C1366  C432    1.414   1_556 S
C1367  O1401   1.373   .     S
C1367  N1373   1.389   .     A
C1367  C429    1.414   1_556 S
C1368  O1403   1.373   .     S
C1368  N1374   1.389   .     A
Cu1369 Cu1370  2.699   .     S
Cu1369 O1382   1.974   .     S
Cu1369 O1375   1.960   .     S
Cu1369 O1378   1.953   .     S
Cu1369 O1379   1.977   .     S
Cu1369 N1373   2.028   .     S
Cu1370 O1381   1.974   .     S
Cu1370 O1377   1.953   .     S
Cu1370 O1376   1.960   .     S
Cu1370 O1380   1.977   .     S
Cu1370 N1374   2.028   .     S
O1383  C1253   1.392   1_655 S
O1383  C1280   1.413   1_655 S
C1384  H1385   1.114   .     S
C1384  H1386   1.109   .     S
H1387  C1280   1.109   1_655 S
C1389  H1390   1.109   .     S
C1389  H1391   1.114   .     S
C1389  O1284   1.413   1_655 S
C1389  H1288   1.109   1_655 S
O1393  H1394   0.989   .     S
O1395  H1396   0.989   .     S
O1397  H1398   0.989   .     S
O1399  H1400   0.989   .     S
O1401  H1402   0.981   .     S
O1403  H1404   0.981   .     S
