data_str_m3_o1_o5_pcu_sym.59
_audit_creation_date              2020-01-03
_audit_creation_method            'Materials Studio'
_symmetry_space_group_name_H-M    'P1'
_symmetry_Int_Tables_number       1
_symmetry_cell_setting            triclinic
loop_
_symmetry_equiv_pos_as_xyz
  x,y,z
_cell_length_a                    32.4023
_cell_length_b                    29.6004
_cell_length_c                    26.7165
_cell_angle_alpha                 90.1085
_cell_angle_beta                  91.2469
_cell_angle_gamma                 91.0381
loop_
_atom_site_label
_atom_site_type_symbol
_atom_site_fract_x
_atom_site_fract_y
_atom_site_fract_z
_atom_site_U_iso_or_equiv
_atom_site_adp_type
_atom_site_occupancy
C1     C     0.08673   0.16620   0.17137   0.00000  Uiso   1.00
C2     C     0.02168   0.20696   0.18026   0.00000  Uiso   1.00
C3     C     0.29129   0.16804   0.15687   0.00000  Uiso   1.00
C4     C     0.04204   0.16529   0.17646   0.00000  Uiso   1.00
C5     C     0.19055   0.02458   0.20056   0.00000  Uiso   1.00
C6     C     0.14278   0.30875   0.13277   0.00000  Uiso   1.00
C7     C     0.14301   0.02352   0.13254   0.00000  Uiso   1.00
C8     C     0.19032   0.30982   0.20080   0.00000  Uiso   1.00
C9     C     0.03910   0.07963   0.17669   0.00000  Uiso   1.00
C10    C     0.29423   0.25370   0.15664   0.00000  Uiso   1.00
C11    C     0.28977   0.08584   0.13142   0.00000  Uiso   1.00
C12    C     0.24660   0.16713   0.16196   0.00000  Uiso   1.00
C13    C     0.04356   0.24749   0.20192   0.00000  Uiso   1.00
C14    C     0.21655   0.04952   0.23584   0.00000  Uiso   1.00
C15    C     0.11678   0.28381   0.09750   0.00000  Uiso   1.00
C16    C     0.11868   0.04731   0.09558   0.00000  Uiso   1.00
C17    C     0.21466   0.28602   0.23775   0.00000  Uiso   1.00
C18    C     0.16657   0.16664   0.07290   0.00000  Uiso   1.00
C19    C     0.16676   0.16670   0.26044   0.00000  Uiso   1.00
C20    C     0.16663   0.16663   0.02180   0.00000  Uiso   1.00
C21    C     0.16670   0.16671   0.31153   0.00000  Uiso   1.00
C22    C     0.01978   0.12432   0.16760   0.00000  Uiso   1.00
C23    C     0.31356   0.20902   0.16574   0.00000  Uiso   1.00
C24    C     0.31165   0.12637   0.15307   0.00000  Uiso   1.00
H25    H     0.05763   0.07457   0.21050   0.00000  Uiso   1.00
H26    H     0.27570   0.25876   0.12284   0.00000  Uiso   1.00
H27    H     0.27268   0.08892   0.09623   0.00000  Uiso   1.00
H28    H     0.06066   0.24441   0.23711   0.00000  Uiso   1.00
N29    N     0.16667   0.28573   0.16667   0.00000  Uiso   1.00
N30    N     0.16667   0.04760   0.16667   0.00000  Uiso   1.00
N31    N     0.23758   0.06923   0.26419   0.00000  Uiso   1.00
N32    N     0.09575   0.26410   0.06915   0.00000  Uiso   1.00
N33    N     0.09910   0.06606   0.06570   0.00000  Uiso   1.00
N34    N     0.23423   0.26727   0.26764   0.00000  Uiso   1.00
O35    O     0.10559   0.20487   0.16666   0.00000  Uiso   1.00
O36    O     0.29735   0.28430   0.18724   0.00000  Uiso   1.00
O37    O     0.28818   0.05012   0.15413   0.00000  Uiso   1.00
O38    O     0.04515   0.28321   0.17921   0.00000  Uiso   1.00
O39    O     0.22774   0.12846   0.16667   0.00000  Uiso   1.00
O40    O     0.22774   0.20487   0.16667   0.00000  Uiso   1.00
O41    O     0.10559   0.12846   0.16666   0.00000  Uiso   1.00
O42    O     0.16667   0.20488   0.09511   0.00000  Uiso   1.00
O43    O     0.16666   0.12845   0.23822   0.00000  Uiso   1.00
O44    O     0.16666   0.20488   0.23822   0.00000  Uiso   1.00
O45    O     0.16667   0.12845   0.09511   0.00000  Uiso   1.00
O46    O     0.03598   0.04903   0.14609   0.00000  Uiso   1.00
Zn47   Zn    0.16667   0.21771   0.16667   0.00000  Uiso   1.00
Zn48   Zn    0.16667   0.11563   0.16667   0.00000  Uiso   1.00
C49    C     0.42006   0.16620   0.17137   0.00000  Uiso   1.00
C50    C     0.35501   0.20696   0.18026   0.00000  Uiso   1.00
C51    C     0.62463   0.16804   0.15687   0.00000  Uiso   1.00
C52    C     0.37538   0.16529   0.17646   0.00000  Uiso   1.00
C53    C     0.52389   0.02458   0.20056   0.00000  Uiso   1.00
C54    C     0.47611   0.30875   0.13277   0.00000  Uiso   1.00
C55    C     0.47635   0.02352   0.13254   0.00000  Uiso   1.00
C56    C     0.52365   0.30982   0.20080   0.00000  Uiso   1.00
C57    C     0.37244   0.07963   0.17669   0.00000  Uiso   1.00
C58    C     0.62756   0.25370   0.15664   0.00000  Uiso   1.00
C59    C     0.62310   0.08584   0.13142   0.00000  Uiso   1.00
C60    C     0.57994   0.16713   0.16196   0.00000  Uiso   1.00
C61    C     0.37690   0.24749   0.20192   0.00000  Uiso   1.00
C62    C     0.54988   0.04952   0.23584   0.00000  Uiso   1.00
C63    C     0.45012   0.28381   0.09750   0.00000  Uiso   1.00
C64    C     0.45201   0.04731   0.09558   0.00000  Uiso   1.00
C65    C     0.54799   0.28602   0.23775   0.00000  Uiso   1.00
C66    C     0.49990   0.16664   0.07290   0.00000  Uiso   1.00
C67    C     0.50010   0.16670   0.26044   0.00000  Uiso   1.00
C68    C     0.49997   0.16663   0.02180   0.00000  Uiso   1.00
C69    C     0.50003   0.16671   0.31153   0.00000  Uiso   1.00
C70    C     0.35311   0.12432   0.16760   0.00000  Uiso   1.00
C71    C     0.64689   0.20902   0.16574   0.00000  Uiso   1.00
C72    C     0.64499   0.12637   0.15307   0.00000  Uiso   1.00
H73    H     0.39096   0.07457   0.21050   0.00000  Uiso   1.00
H74    H     0.60904   0.25876   0.12284   0.00000  Uiso   1.00
H75    H     0.60601   0.08892   0.09623   0.00000  Uiso   1.00
H76    H     0.39399   0.24441   0.23711   0.00000  Uiso   1.00
N77    N     0.50000   0.28573   0.16667   0.00000  Uiso   1.00
N78    N     0.50000   0.04760   0.16667   0.00000  Uiso   1.00
N79    N     0.57091   0.06923   0.26419   0.00000  Uiso   1.00
N80    N     0.42909   0.26410   0.06915   0.00000  Uiso   1.00
N81    N     0.43244   0.06606   0.06570   0.00000  Uiso   1.00
N82    N     0.56756   0.26727   0.26764   0.00000  Uiso   1.00
O83    O     0.43892   0.20487   0.16666   0.00000  Uiso   1.00
O84    O     0.63069   0.28430   0.18724   0.00000  Uiso   1.00
O85    O     0.62151   0.05012   0.15413   0.00000  Uiso   1.00
O86    O     0.37849   0.28321   0.17921   0.00000  Uiso   1.00
O87    O     0.56108   0.12846   0.16667   0.00000  Uiso   1.00
O88    O     0.56108   0.20487   0.16667   0.00000  Uiso   1.00
O89    O     0.43892   0.12846   0.16666   0.00000  Uiso   1.00
O90    O     0.50000   0.20488   0.09511   0.00000  Uiso   1.00
O91    O     0.50000   0.12845   0.23822   0.00000  Uiso   1.00
O92    O     0.50000   0.20488   0.23822   0.00000  Uiso   1.00
O93    O     0.50000   0.12845   0.09511   0.00000  Uiso   1.00
O94    O     0.36931   0.04903   0.14609   0.00000  Uiso   1.00
Zn95   Zn    0.50000   0.21771   0.16667   0.00000  Uiso   1.00
Zn96   Zn    0.50000   0.11563   0.16667   0.00000  Uiso   1.00
C97    C     0.75340   0.16620   0.17137   0.00000  Uiso   1.00
C98    C     0.68835   0.20696   0.18026   0.00000  Uiso   1.00
C99    C     0.95796   0.16804   0.15687   0.00000  Uiso   1.00
C100   C     0.70871   0.16529   0.17646   0.00000  Uiso   1.00
C101   C     0.85722   0.02458   0.20056   0.00000  Uiso   1.00
C102   C     0.80945   0.30875   0.13277   0.00000  Uiso   1.00
C103   C     0.80968   0.02352   0.13254   0.00000  Uiso   1.00
C104   C     0.85699   0.30982   0.20080   0.00000  Uiso   1.00
C105   C     0.70577   0.07963   0.17669   0.00000  Uiso   1.00
C106   C     0.96090   0.25370   0.15664   0.00000  Uiso   1.00
C107   C     0.95644   0.08584   0.13142   0.00000  Uiso   1.00
C108   C     0.91327   0.16713   0.16196   0.00000  Uiso   1.00
C109   C     0.71023   0.24749   0.20192   0.00000  Uiso   1.00
C110   C     0.88322   0.04952   0.23584   0.00000  Uiso   1.00
C111   C     0.78345   0.28381   0.09750   0.00000  Uiso   1.00
C112   C     0.78534   0.04731   0.09558   0.00000  Uiso   1.00
C113   C     0.88132   0.28602   0.23775   0.00000  Uiso   1.00
C114   C     0.83324   0.16664   0.07290   0.00000  Uiso   1.00
C115   C     0.83343   0.16670   0.26044   0.00000  Uiso   1.00
C116   C     0.83330   0.16663   0.02180   0.00000  Uiso   1.00
C117   C     0.83337   0.16671   0.31153   0.00000  Uiso   1.00
C118   C     0.68644   0.12432   0.16760   0.00000  Uiso   1.00
C119   C     0.98022   0.20902   0.16574   0.00000  Uiso   1.00
C120   C     0.97832   0.12637   0.15307   0.00000  Uiso   1.00
H121   H     0.72430   0.07457   0.21050   0.00000  Uiso   1.00
H122   H     0.94237   0.25876   0.12284   0.00000  Uiso   1.00
H123   H     0.93935   0.08892   0.09623   0.00000  Uiso   1.00
H124   H     0.72732   0.24441   0.23711   0.00000  Uiso   1.00
N125   N     0.83333   0.28573   0.16667   0.00000  Uiso   1.00
N126   N     0.83333   0.04760   0.16667   0.00000  Uiso   1.00
N127   N     0.90425   0.06923   0.26419   0.00000  Uiso   1.00
N128   N     0.76242   0.26410   0.06915   0.00000  Uiso   1.00
N129   N     0.76577   0.06606   0.06570   0.00000  Uiso   1.00
N130   N     0.90090   0.26727   0.26764   0.00000  Uiso   1.00
O131   O     0.77226   0.20487   0.16666   0.00000  Uiso   1.00
O132   O     0.96402   0.28430   0.18724   0.00000  Uiso   1.00
O133   O     0.95485   0.05012   0.15413   0.00000  Uiso   1.00
O134   O     0.71182   0.28321   0.17921   0.00000  Uiso   1.00
O135   O     0.89441   0.12846   0.16667   0.00000  Uiso   1.00
O136   O     0.89441   0.20487   0.16667   0.00000  Uiso   1.00
O137   O     0.77226   0.12846   0.16666   0.00000  Uiso   1.00
O138   O     0.83334   0.20488   0.09511   0.00000  Uiso   1.00
O139   O     0.83333   0.12845   0.23822   0.00000  Uiso   1.00
O140   O     0.83333   0.20488   0.23822   0.00000  Uiso   1.00
O141   O     0.83334   0.12845   0.09511   0.00000  Uiso   1.00
O142   O     0.70265   0.04903   0.14609   0.00000  Uiso   1.00
Zn143  Zn    0.83333   0.21771   0.16667   0.00000  Uiso   1.00
Zn144  Zn    0.83333   0.11563   0.16667   0.00000  Uiso   1.00
C145   C     0.08673   0.49954   0.17137   0.00000  Uiso   1.00
C146   C     0.02168   0.54030   0.18026   0.00000  Uiso   1.00
C147   C     0.29129   0.50138   0.15687   0.00000  Uiso   1.00
C148   C     0.04204   0.49862   0.17646   0.00000  Uiso   1.00
C149   C     0.19055   0.35792   0.20056   0.00000  Uiso   1.00
C150   C     0.14278   0.64208   0.13277   0.00000  Uiso   1.00
C151   C     0.14301   0.35685   0.13254   0.00000  Uiso   1.00
C152   C     0.19032   0.64315   0.20080   0.00000  Uiso   1.00
C153   C     0.03910   0.41296   0.17669   0.00000  Uiso   1.00
C154   C     0.29423   0.58704   0.15664   0.00000  Uiso   1.00
C155   C     0.28977   0.41918   0.13142   0.00000  Uiso   1.00
C156   C     0.24660   0.50046   0.16196   0.00000  Uiso   1.00
C157   C     0.04356   0.58082   0.20192   0.00000  Uiso   1.00
C158   C     0.21655   0.38286   0.23584   0.00000  Uiso   1.00
C159   C     0.11678   0.61714   0.09750   0.00000  Uiso   1.00
C160   C     0.11868   0.38064   0.09558   0.00000  Uiso   1.00
C161   C     0.21466   0.61936   0.23775   0.00000  Uiso   1.00
C162   C     0.16657   0.49997   0.07290   0.00000  Uiso   1.00
C163   C     0.16676   0.50003   0.26044   0.00000  Uiso   1.00
C164   C     0.16663   0.49996   0.02180   0.00000  Uiso   1.00
C165   C     0.16670   0.50004   0.31153   0.00000  Uiso   1.00
C166   C     0.01978   0.45765   0.16760   0.00000  Uiso   1.00
C167   C     0.31356   0.54235   0.16574   0.00000  Uiso   1.00
C168   C     0.31165   0.45970   0.15307   0.00000  Uiso   1.00
H169   H     0.05763   0.40790   0.21050   0.00000  Uiso   1.00
H170   H     0.27570   0.59210   0.12284   0.00000  Uiso   1.00
H171   H     0.27268   0.42225   0.09623   0.00000  Uiso   1.00
H172   H     0.06066   0.57775   0.23711   0.00000  Uiso   1.00
N173   N     0.16667   0.61907   0.16667   0.00000  Uiso   1.00
N174   N     0.16667   0.38093   0.16667   0.00000  Uiso   1.00
N175   N     0.23758   0.40257   0.26419   0.00000  Uiso   1.00
N176   N     0.09575   0.59743   0.06915   0.00000  Uiso   1.00
N177   N     0.09910   0.39940   0.06570   0.00000  Uiso   1.00
N178   N     0.23423   0.60060   0.26764   0.00000  Uiso   1.00
O179   O     0.10559   0.53821   0.16666   0.00000  Uiso   1.00
O180   O     0.29735   0.61763   0.18724   0.00000  Uiso   1.00
O181   O     0.28818   0.38346   0.15413   0.00000  Uiso   1.00
O182   O     0.04515   0.61654   0.17921   0.00000  Uiso   1.00
O183   O     0.22774   0.46179   0.16667   0.00000  Uiso   1.00
O184   O     0.22774   0.53821   0.16667   0.00000  Uiso   1.00
O185   O     0.10559   0.46179   0.16666   0.00000  Uiso   1.00
O186   O     0.16667   0.53821   0.09511   0.00000  Uiso   1.00
O187   O     0.16666   0.46179   0.23822   0.00000  Uiso   1.00
O188   O     0.16666   0.53821   0.23822   0.00000  Uiso   1.00
O189   O     0.16667   0.46179   0.09511   0.00000  Uiso   1.00
O190   O     0.03598   0.38237   0.14609   0.00000  Uiso   1.00
Zn191  Zn    0.16667   0.55104   0.16667   0.00000  Uiso   1.00
Zn192  Zn    0.16667   0.44896   0.16667   0.00000  Uiso   1.00
C193   C     0.42006   0.49954   0.17137   0.00000  Uiso   1.00
C194   C     0.35501   0.54030   0.18026   0.00000  Uiso   1.00
C195   C     0.62463   0.50138   0.15687   0.00000  Uiso   1.00
C196   C     0.37538   0.49862   0.17646   0.00000  Uiso   1.00
C197   C     0.52389   0.35792   0.20056   0.00000  Uiso   1.00
C198   C     0.47611   0.64208   0.13277   0.00000  Uiso   1.00
C199   C     0.47635   0.35685   0.13254   0.00000  Uiso   1.00
C200   C     0.52365   0.64315   0.20080   0.00000  Uiso   1.00
C201   C     0.37244   0.41296   0.17669   0.00000  Uiso   1.00
C202   C     0.62756   0.58704   0.15664   0.00000  Uiso   1.00
C203   C     0.62310   0.41918   0.13142   0.00000  Uiso   1.00
C204   C     0.57994   0.50046   0.16196   0.00000  Uiso   1.00
C205   C     0.37690   0.58082   0.20192   0.00000  Uiso   1.00
C206   C     0.54988   0.38286   0.23584   0.00000  Uiso   1.00
C207   C     0.45012   0.61714   0.09750   0.00000  Uiso   1.00
C208   C     0.45201   0.38064   0.09558   0.00000  Uiso   1.00
C209   C     0.54799   0.61936   0.23775   0.00000  Uiso   1.00
C210   C     0.49990   0.49997   0.07290   0.00000  Uiso   1.00
C211   C     0.50010   0.50003   0.26044   0.00000  Uiso   1.00
C212   C     0.49997   0.49996   0.02180   0.00000  Uiso   1.00
C213   C     0.50003   0.50004   0.31153   0.00000  Uiso   1.00
C214   C     0.35311   0.45765   0.16760   0.00000  Uiso   1.00
C215   C     0.64689   0.54235   0.16574   0.00000  Uiso   1.00
C216   C     0.64499   0.45970   0.15307   0.00000  Uiso   1.00
H217   H     0.39096   0.40790   0.21050   0.00000  Uiso   1.00
H218   H     0.60904   0.59210   0.12284   0.00000  Uiso   1.00
H219   H     0.60601   0.42225   0.09623   0.00000  Uiso   1.00
H220   H     0.39399   0.57775   0.23711   0.00000  Uiso   1.00
N221   N     0.50000   0.61907   0.16667   0.00000  Uiso   1.00
N222   N     0.50000   0.38093   0.16667   0.00000  Uiso   1.00
N223   N     0.57091   0.40257   0.26419   0.00000  Uiso   1.00
N224   N     0.42909   0.59743   0.06915   0.00000  Uiso   1.00
N225   N     0.43244   0.39940   0.06570   0.00000  Uiso   1.00
N226   N     0.56756   0.60060   0.26764   0.00000  Uiso   1.00
O227   O     0.43892   0.53821   0.16666   0.00000  Uiso   1.00
O228   O     0.63069   0.61763   0.18724   0.00000  Uiso   1.00
O229   O     0.62151   0.38346   0.15413   0.00000  Uiso   1.00
O230   O     0.37849   0.61654   0.17921   0.00000  Uiso   1.00
O231   O     0.56108   0.46179   0.16667   0.00000  Uiso   1.00
O232   O     0.56108   0.53821   0.16667   0.00000  Uiso   1.00
O233   O     0.43892   0.46179   0.16666   0.00000  Uiso   1.00
O234   O     0.50000   0.53821   0.09511   0.00000  Uiso   1.00
O235   O     0.50000   0.46179   0.23822   0.00000  Uiso   1.00
O236   O     0.50000   0.53821   0.23822   0.00000  Uiso   1.00
O237   O     0.50000   0.46179   0.09511   0.00000  Uiso   1.00
O238   O     0.36931   0.38237   0.14609   0.00000  Uiso   1.00
Zn239  Zn    0.50000   0.55104   0.16667   0.00000  Uiso   1.00
Zn240  Zn    0.50000   0.44896   0.16667   0.00000  Uiso   1.00
C241   C     0.75340   0.49954   0.17137   0.00000  Uiso   1.00
C242   C     0.68835   0.54030   0.18026   0.00000  Uiso   1.00
C243   C     0.95796   0.50138   0.15687   0.00000  Uiso   1.00
C244   C     0.70871   0.49862   0.17646   0.00000  Uiso   1.00
C245   C     0.85722   0.35792   0.20056   0.00000  Uiso   1.00
C246   C     0.80945   0.64208   0.13277   0.00000  Uiso   1.00
C247   C     0.80968   0.35685   0.13254   0.00000  Uiso   1.00
C248   C     0.85699   0.64315   0.20080   0.00000  Uiso   1.00
C249   C     0.70577   0.41296   0.17669   0.00000  Uiso   1.00
C250   C     0.96090   0.58704   0.15664   0.00000  Uiso   1.00
C251   C     0.95644   0.41918   0.13142   0.00000  Uiso   1.00
C252   C     0.91327   0.50046   0.16196   0.00000  Uiso   1.00
C253   C     0.71023   0.58082   0.20192   0.00000  Uiso   1.00
C254   C     0.88322   0.38286   0.23584   0.00000  Uiso   1.00
C255   C     0.78345   0.61714   0.09750   0.00000  Uiso   1.00
C256   C     0.78534   0.38064   0.09558   0.00000  Uiso   1.00
C257   C     0.88132   0.61936   0.23775   0.00000  Uiso   1.00
C258   C     0.83324   0.49997   0.07290   0.00000  Uiso   1.00
C259   C     0.83343   0.50003   0.26044   0.00000  Uiso   1.00
C260   C     0.83330   0.49996   0.02180   0.00000  Uiso   1.00
C261   C     0.83337   0.50004   0.31153   0.00000  Uiso   1.00
C262   C     0.68644   0.45765   0.16760   0.00000  Uiso   1.00
C263   C     0.98022   0.54235   0.16574   0.00000  Uiso   1.00
C264   C     0.97832   0.45970   0.15307   0.00000  Uiso   1.00
H265   H     0.72430   0.40790   0.21050   0.00000  Uiso   1.00
H266   H     0.94237   0.59210   0.12284   0.00000  Uiso   1.00
H267   H     0.93935   0.42225   0.09623   0.00000  Uiso   1.00
H268   H     0.72732   0.57775   0.23711   0.00000  Uiso   1.00
N269   N     0.83333   0.61907   0.16667   0.00000  Uiso   1.00
N270   N     0.83333   0.38093   0.16667   0.00000  Uiso   1.00
N271   N     0.90425   0.40257   0.26419   0.00000  Uiso   1.00
N272   N     0.76242   0.59743   0.06915   0.00000  Uiso   1.00
N273   N     0.76577   0.39940   0.06570   0.00000  Uiso   1.00
N274   N     0.90090   0.60060   0.26764   0.00000  Uiso   1.00
O275   O     0.77226   0.53821   0.16666   0.00000  Uiso   1.00
O276   O     0.96402   0.61763   0.18724   0.00000  Uiso   1.00
O277   O     0.95485   0.38346   0.15413   0.00000  Uiso   1.00
O278   O     0.71182   0.61654   0.17921   0.00000  Uiso   1.00
O279   O     0.89441   0.46179   0.16667   0.00000  Uiso   1.00
O280   O     0.89441   0.53821   0.16667   0.00000  Uiso   1.00
O281   O     0.77226   0.46179   0.16666   0.00000  Uiso   1.00
O282   O     0.83334   0.53821   0.09511   0.00000  Uiso   1.00
O283   O     0.83333   0.46179   0.23822   0.00000  Uiso   1.00
O284   O     0.83333   0.53821   0.23822   0.00000  Uiso   1.00
O285   O     0.83334   0.46179   0.09511   0.00000  Uiso   1.00
O286   O     0.70265   0.38237   0.14609   0.00000  Uiso   1.00
Zn287  Zn    0.83333   0.55104   0.16667   0.00000  Uiso   1.00
Zn288  Zn    0.83333   0.44896   0.16667   0.00000  Uiso   1.00
C289   C     0.08673   0.83287   0.17137   0.00000  Uiso   1.00
C290   C     0.02168   0.87363   0.18026   0.00000  Uiso   1.00
C291   C     0.29129   0.83471   0.15687   0.00000  Uiso   1.00
C292   C     0.04204   0.83196   0.17646   0.00000  Uiso   1.00
C293   C     0.19055   0.69125   0.20056   0.00000  Uiso   1.00
C294   C     0.14278   0.97542   0.13277   0.00000  Uiso   1.00
C295   C     0.14301   0.69019   0.13254   0.00000  Uiso   1.00
C296   C     0.19032   0.97648   0.20080   0.00000  Uiso   1.00
C297   C     0.03910   0.74630   0.17669   0.00000  Uiso   1.00
C298   C     0.29423   0.92037   0.15664   0.00000  Uiso   1.00
C299   C     0.28977   0.75251   0.13142   0.00000  Uiso   1.00
C300   C     0.24660   0.83380   0.16196   0.00000  Uiso   1.00
C301   C     0.04356   0.91416   0.20192   0.00000  Uiso   1.00
C302   C     0.21655   0.71619   0.23584   0.00000  Uiso   1.00
C303   C     0.11678   0.95048   0.09750   0.00000  Uiso   1.00
C304   C     0.11868   0.71398   0.09558   0.00000  Uiso   1.00
C305   C     0.21466   0.95269   0.23775   0.00000  Uiso   1.00
C306   C     0.16657   0.83330   0.07290   0.00000  Uiso   1.00
C307   C     0.16676   0.83336   0.26044   0.00000  Uiso   1.00
C308   C     0.16663   0.83329   0.02180   0.00000  Uiso   1.00
C309   C     0.16670   0.83337   0.31153   0.00000  Uiso   1.00
C310   C     0.01978   0.79098   0.16760   0.00000  Uiso   1.00
C311   C     0.31356   0.87568   0.16574   0.00000  Uiso   1.00
C312   C     0.31165   0.79304   0.15307   0.00000  Uiso   1.00
H313   H     0.05763   0.74124   0.21050   0.00000  Uiso   1.00
H314   H     0.27570   0.92543   0.12284   0.00000  Uiso   1.00
H315   H     0.27268   0.75558   0.09623   0.00000  Uiso   1.00
H316   H     0.06066   0.91108   0.23711   0.00000  Uiso   1.00
N317   N     0.16667   0.95240   0.16667   0.00000  Uiso   1.00
N318   N     0.16667   0.71427   0.16667   0.00000  Uiso   1.00
N319   N     0.23758   0.73590   0.26419   0.00000  Uiso   1.00
N320   N     0.09575   0.93077   0.06915   0.00000  Uiso   1.00
N321   N     0.09910   0.73273   0.06570   0.00000  Uiso   1.00
N322   N     0.23423   0.93394   0.26764   0.00000  Uiso   1.00
O323   O     0.10559   0.87154   0.16666   0.00000  Uiso   1.00
O324   O     0.29735   0.95097   0.18724   0.00000  Uiso   1.00
O325   O     0.28818   0.71679   0.15413   0.00000  Uiso   1.00
O326   O     0.04515   0.94988   0.17921   0.00000  Uiso   1.00
O327   O     0.22774   0.79513   0.16667   0.00000  Uiso   1.00
O328   O     0.22774   0.87154   0.16667   0.00000  Uiso   1.00
O329   O     0.10559   0.79513   0.16666   0.00000  Uiso   1.00
O330   O     0.16667   0.87155   0.09511   0.00000  Uiso   1.00
O331   O     0.16666   0.79512   0.23822   0.00000  Uiso   1.00
O332   O     0.16666   0.87155   0.23822   0.00000  Uiso   1.00
O333   O     0.16667   0.79512   0.09511   0.00000  Uiso   1.00
O334   O     0.03598   0.71570   0.14609   0.00000  Uiso   1.00
Zn335  Zn    0.16667   0.88437   0.16667   0.00000  Uiso   1.00
Zn336  Zn    0.16667   0.78229   0.16667   0.00000  Uiso   1.00
C337   C     0.42006   0.83287   0.17137   0.00000  Uiso   1.00
C338   C     0.35501   0.87363   0.18026   0.00000  Uiso   1.00
C339   C     0.62463   0.83471   0.15687   0.00000  Uiso   1.00
C340   C     0.37538   0.83196   0.17646   0.00000  Uiso   1.00
C341   C     0.52389   0.69125   0.20056   0.00000  Uiso   1.00
C342   C     0.47611   0.97542   0.13277   0.00000  Uiso   1.00
C343   C     0.47635   0.69019   0.13254   0.00000  Uiso   1.00
C344   C     0.52365   0.97648   0.20080   0.00000  Uiso   1.00
C345   C     0.37244   0.74630   0.17669   0.00000  Uiso   1.00
C346   C     0.62756   0.92037   0.15664   0.00000  Uiso   1.00
C347   C     0.62310   0.75251   0.13142   0.00000  Uiso   1.00
C348   C     0.57994   0.83380   0.16196   0.00000  Uiso   1.00
C349   C     0.37690   0.91416   0.20192   0.00000  Uiso   1.00
C350   C     0.54988   0.71619   0.23584   0.00000  Uiso   1.00
C351   C     0.45012   0.95048   0.09750   0.00000  Uiso   1.00
C352   C     0.45201   0.71398   0.09558   0.00000  Uiso   1.00
C353   C     0.54799   0.95269   0.23775   0.00000  Uiso   1.00
C354   C     0.49990   0.83330   0.07290   0.00000  Uiso   1.00
C355   C     0.50010   0.83336   0.26044   0.00000  Uiso   1.00
C356   C     0.49997   0.83329   0.02180   0.00000  Uiso   1.00
C357   C     0.50003   0.83337   0.31153   0.00000  Uiso   1.00
C358   C     0.35311   0.79098   0.16760   0.00000  Uiso   1.00
C359   C     0.64689   0.87568   0.16574   0.00000  Uiso   1.00
C360   C     0.64499   0.79304   0.15307   0.00000  Uiso   1.00
H361   H     0.39096   0.74124   0.21050   0.00000  Uiso   1.00
H362   H     0.60904   0.92543   0.12284   0.00000  Uiso   1.00
H363   H     0.60601   0.75558   0.09623   0.00000  Uiso   1.00
H364   H     0.39399   0.91108   0.23711   0.00000  Uiso   1.00
N365   N     0.50000   0.95240   0.16667   0.00000  Uiso   1.00
N366   N     0.50000   0.71427   0.16667   0.00000  Uiso   1.00
N367   N     0.57091   0.73590   0.26419   0.00000  Uiso   1.00
N368   N     0.42909   0.93077   0.06915   0.00000  Uiso   1.00
N369   N     0.43244   0.73273   0.06570   0.00000  Uiso   1.00
N370   N     0.56756   0.93394   0.26764   0.00000  Uiso   1.00
O371   O     0.43892   0.87154   0.16666   0.00000  Uiso   1.00
O372   O     0.63069   0.95097   0.18724   0.00000  Uiso   1.00
O373   O     0.62151   0.71679   0.15413   0.00000  Uiso   1.00
O374   O     0.37849   0.94988   0.17921   0.00000  Uiso   1.00
O375   O     0.56108   0.79513   0.16667   0.00000  Uiso   1.00
O376   O     0.56108   0.87154   0.16667   0.00000  Uiso   1.00
O377   O     0.43892   0.79513   0.16666   0.00000  Uiso   1.00
O378   O     0.50000   0.87155   0.09511   0.00000  Uiso   1.00
O379   O     0.50000   0.79512   0.23822   0.00000  Uiso   1.00
O380   O     0.50000   0.87155   0.23822   0.00000  Uiso   1.00
O381   O     0.50000   0.79512   0.09511   0.00000  Uiso   1.00
O382   O     0.36931   0.71570   0.14609   0.00000  Uiso   1.00
Zn383  Zn    0.50000   0.88437   0.16667   0.00000  Uiso   1.00
Zn384  Zn    0.50000   0.78229   0.16667   0.00000  Uiso   1.00
C385   C     0.75340   0.83287   0.17137   0.00000  Uiso   1.00
C386   C     0.68835   0.87363   0.18026   0.00000  Uiso   1.00
C387   C     0.95796   0.83471   0.15687   0.00000  Uiso   1.00
C388   C     0.70871   0.83196   0.17646   0.00000  Uiso   1.00
C389   C     0.85722   0.69125   0.20056   0.00000  Uiso   1.00
C390   C     0.80945   0.97542   0.13277   0.00000  Uiso   1.00
C391   C     0.80968   0.69019   0.13254   0.00000  Uiso   1.00
C392   C     0.85699   0.97648   0.20080   0.00000  Uiso   1.00
C393   C     0.70577   0.74630   0.17669   0.00000  Uiso   1.00
C394   C     0.96090   0.92037   0.15664   0.00000  Uiso   1.00
C395   C     0.95644   0.75251   0.13142   0.00000  Uiso   1.00
C396   C     0.91327   0.83380   0.16196   0.00000  Uiso   1.00
C397   C     0.71023   0.91416   0.20192   0.00000  Uiso   1.00
C398   C     0.88322   0.71619   0.23584   0.00000  Uiso   1.00
C399   C     0.78345   0.95048   0.09750   0.00000  Uiso   1.00
C400   C     0.78534   0.71398   0.09558   0.00000  Uiso   1.00
C401   C     0.88132   0.95269   0.23775   0.00000  Uiso   1.00
C402   C     0.83324   0.83330   0.07290   0.00000  Uiso   1.00
C403   C     0.83343   0.83336   0.26044   0.00000  Uiso   1.00
C404   C     0.83330   0.83329   0.02180   0.00000  Uiso   1.00
C405   C     0.83337   0.83337   0.31153   0.00000  Uiso   1.00
C406   C     0.68644   0.79098   0.16760   0.00000  Uiso   1.00
C407   C     0.98022   0.87568   0.16574   0.00000  Uiso   1.00
C408   C     0.97832   0.79304   0.15307   0.00000  Uiso   1.00
H409   H     0.72430   0.74124   0.21050   0.00000  Uiso   1.00
H410   H     0.94237   0.92543   0.12284   0.00000  Uiso   1.00
H411   H     0.93935   0.75558   0.09623   0.00000  Uiso   1.00
H412   H     0.72732   0.91108   0.23711   0.00000  Uiso   1.00
N413   N     0.83333   0.95240   0.16667   0.00000  Uiso   1.00
N414   N     0.83333   0.71427   0.16667   0.00000  Uiso   1.00
N415   N     0.90425   0.73590   0.26419   0.00000  Uiso   1.00
N416   N     0.76242   0.93077   0.06915   0.00000  Uiso   1.00
N417   N     0.76577   0.73273   0.06570   0.00000  Uiso   1.00
N418   N     0.90090   0.93394   0.26764   0.00000  Uiso   1.00
O419   O     0.77226   0.87154   0.16666   0.00000  Uiso   1.00
O420   O     0.96402   0.95097   0.18724   0.00000  Uiso   1.00
O421   O     0.95485   0.71679   0.15413   0.00000  Uiso   1.00
O422   O     0.71182   0.94988   0.17921   0.00000  Uiso   1.00
O423   O     0.89441   0.79513   0.16667   0.00000  Uiso   1.00
O424   O     0.89441   0.87154   0.16667   0.00000  Uiso   1.00
O425   O     0.77226   0.79513   0.16666   0.00000  Uiso   1.00
O426   O     0.83334   0.87155   0.09511   0.00000  Uiso   1.00
O427   O     0.83333   0.79512   0.23822   0.00000  Uiso   1.00
O428   O     0.83333   0.87155   0.23822   0.00000  Uiso   1.00
O429   O     0.83334   0.79512   0.09511   0.00000  Uiso   1.00
O430   O     0.70265   0.71570   0.14609   0.00000  Uiso   1.00
Zn431  Zn    0.83333   0.88437   0.16667   0.00000  Uiso   1.00
Zn432  Zn    0.83333   0.78229   0.16667   0.00000  Uiso   1.00
C433   C     0.08673   0.16620   0.50470   0.00000  Uiso   1.00
C434   C     0.02168   0.20696   0.51359   0.00000  Uiso   1.00
C435   C     0.29129   0.16804   0.49021   0.00000  Uiso   1.00
C436   C     0.04204   0.16529   0.50980   0.00000  Uiso   1.00
C437   C     0.19055   0.02458   0.53390   0.00000  Uiso   1.00
C438   C     0.14278   0.30875   0.46610   0.00000  Uiso   1.00
C439   C     0.14301   0.02352   0.46587   0.00000  Uiso   1.00
C440   C     0.19032   0.30982   0.53413   0.00000  Uiso   1.00
C441   C     0.03910   0.07963   0.51003   0.00000  Uiso   1.00
C442   C     0.29423   0.25370   0.48998   0.00000  Uiso   1.00
C443   C     0.28977   0.08584   0.46475   0.00000  Uiso   1.00
C444   C     0.24660   0.16713   0.49530   0.00000  Uiso   1.00
C445   C     0.04356   0.24749   0.53525   0.00000  Uiso   1.00
C446   C     0.21655   0.04952   0.56917   0.00000  Uiso   1.00
C447   C     0.11678   0.28381   0.43083   0.00000  Uiso   1.00
C448   C     0.11868   0.04731   0.42892   0.00000  Uiso   1.00
C449   C     0.21466   0.28602   0.57108   0.00000  Uiso   1.00
C450   C     0.16657   0.16664   0.40623   0.00000  Uiso   1.00
C451   C     0.16676   0.16670   0.59377   0.00000  Uiso   1.00
C452   C     0.16663   0.16663   0.35513   0.00000  Uiso   1.00
C453   C     0.16670   0.16671   0.64487   0.00000  Uiso   1.00
C454   C     0.01978   0.12432   0.50093   0.00000  Uiso   1.00
C455   C     0.31356   0.20902   0.49907   0.00000  Uiso   1.00
C456   C     0.31165   0.12637   0.48641   0.00000  Uiso   1.00
H457   H     0.05763   0.07457   0.54383   0.00000  Uiso   1.00
H458   H     0.27570   0.25876   0.45617   0.00000  Uiso   1.00
H459   H     0.27268   0.08892   0.42956   0.00000  Uiso   1.00
H460   H     0.06066   0.24441   0.57044   0.00000  Uiso   1.00
N461   N     0.16667   0.28573   0.50000   0.00000  Uiso   1.00
N462   N     0.16667   0.04760   0.50000   0.00000  Uiso   1.00
N463   N     0.23758   0.06923   0.59752   0.00000  Uiso   1.00
N464   N     0.09575   0.26410   0.40248   0.00000  Uiso   1.00
N465   N     0.09910   0.06606   0.39903   0.00000  Uiso   1.00
N466   N     0.23423   0.26727   0.60097   0.00000  Uiso   1.00
O467   O     0.10559   0.20487   0.50000   0.00000  Uiso   1.00
O468   O     0.29735   0.28430   0.52058   0.00000  Uiso   1.00
O469   O     0.28818   0.05012   0.48746   0.00000  Uiso   1.00
O470   O     0.04515   0.28321   0.51255   0.00000  Uiso   1.00
O471   O     0.22774   0.12846   0.50000   0.00000  Uiso   1.00
O472   O     0.22774   0.20487   0.50000   0.00000  Uiso   1.00
O473   O     0.10559   0.12846   0.50000   0.00000  Uiso   1.00
O474   O     0.16667   0.20488   0.42845   0.00000  Uiso   1.00
O475   O     0.16666   0.12845   0.57155   0.00000  Uiso   1.00
O476   O     0.16666   0.20488   0.57155   0.00000  Uiso   1.00
O477   O     0.16667   0.12845   0.42845   0.00000  Uiso   1.00
O478   O     0.03598   0.04903   0.47943   0.00000  Uiso   1.00
Zn479  Zn    0.16667   0.21771   0.50000   0.00000  Uiso   1.00
Zn480  Zn    0.16667   0.11563   0.50000   0.00000  Uiso   1.00
C481   C     0.42006   0.16620   0.50470   0.00000  Uiso   1.00
C482   C     0.35501   0.20696   0.51359   0.00000  Uiso   1.00
C483   C     0.62463   0.16804   0.49021   0.00000  Uiso   1.00
C484   C     0.37538   0.16529   0.50980   0.00000  Uiso   1.00
C485   C     0.52389   0.02458   0.53390   0.00000  Uiso   1.00
C486   C     0.47611   0.30875   0.46610   0.00000  Uiso   1.00
C487   C     0.47635   0.02352   0.46587   0.00000  Uiso   1.00
C488   C     0.52365   0.30982   0.53413   0.00000  Uiso   1.00
C489   C     0.37244   0.07963   0.51003   0.00000  Uiso   1.00
C490   C     0.62756   0.25370   0.48998   0.00000  Uiso   1.00
C491   C     0.62310   0.08584   0.46475   0.00000  Uiso   1.00
C492   C     0.57994   0.16713   0.49530   0.00000  Uiso   1.00
C493   C     0.37690   0.24749   0.53525   0.00000  Uiso   1.00
C494   C     0.54988   0.04952   0.56917   0.00000  Uiso   1.00
C495   C     0.45012   0.28381   0.43083   0.00000  Uiso   1.00
C496   C     0.45201   0.04731   0.42892   0.00000  Uiso   1.00
C497   C     0.54799   0.28602   0.57108   0.00000  Uiso   1.00
C498   C     0.49990   0.16664   0.40623   0.00000  Uiso   1.00
C499   C     0.50010   0.16670   0.59377   0.00000  Uiso   1.00
C500   C     0.49997   0.16663   0.35513   0.00000  Uiso   1.00
C501   C     0.50003   0.16671   0.64487   0.00000  Uiso   1.00
C502   C     0.35311   0.12432   0.50093   0.00000  Uiso   1.00
C503   C     0.64689   0.20902   0.49907   0.00000  Uiso   1.00
C504   C     0.64499   0.12637   0.48641   0.00000  Uiso   1.00
H505   H     0.39096   0.07457   0.54383   0.00000  Uiso   1.00
H506   H     0.60904   0.25876   0.45617   0.00000  Uiso   1.00
H507   H     0.60601   0.08892   0.42956   0.00000  Uiso   1.00
H508   H     0.39399   0.24441   0.57044   0.00000  Uiso   1.00
N509   N     0.50000   0.28573   0.50000   0.00000  Uiso   1.00
N510   N     0.50000   0.04760   0.50000   0.00000  Uiso   1.00
N511   N     0.57091   0.06923   0.59752   0.00000  Uiso   1.00
N512   N     0.42909   0.26410   0.40248   0.00000  Uiso   1.00
N513   N     0.43244   0.06606   0.39903   0.00000  Uiso   1.00
N514   N     0.56756   0.26727   0.60097   0.00000  Uiso   1.00
O515   O     0.43892   0.20487   0.50000   0.00000  Uiso   1.00
O516   O     0.63069   0.28430   0.52058   0.00000  Uiso   1.00
O517   O     0.62151   0.05012   0.48746   0.00000  Uiso   1.00
O518   O     0.37849   0.28321   0.51255   0.00000  Uiso   1.00
O519   O     0.56108   0.12846   0.50000   0.00000  Uiso   1.00
O520   O     0.56108   0.20487   0.50000   0.00000  Uiso   1.00
O521   O     0.43892   0.12846   0.50000   0.00000  Uiso   1.00
O522   O     0.50000   0.20488   0.42845   0.00000  Uiso   1.00
O523   O     0.50000   0.12845   0.57155   0.00000  Uiso   1.00
O524   O     0.50000   0.20488   0.57155   0.00000  Uiso   1.00
O525   O     0.50000   0.12845   0.42845   0.00000  Uiso   1.00
O526   O     0.36931   0.04903   0.47943   0.00000  Uiso   1.00
Zn527  Zn    0.50000   0.21771   0.50000   0.00000  Uiso   1.00
Zn528  Zn    0.50000   0.11563   0.50000   0.00000  Uiso   1.00
C529   C     0.75340   0.16620   0.50470   0.00000  Uiso   1.00
C530   C     0.68835   0.20696   0.51359   0.00000  Uiso   1.00
C531   C     0.95796   0.16804   0.49021   0.00000  Uiso   1.00
C532   C     0.70871   0.16529   0.50980   0.00000  Uiso   1.00
C533   C     0.85722   0.02458   0.53390   0.00000  Uiso   1.00
C534   C     0.80945   0.30875   0.46610   0.00000  Uiso   1.00
C535   C     0.80968   0.02352   0.46587   0.00000  Uiso   1.00
C536   C     0.85699   0.30982   0.53413   0.00000  Uiso   1.00
C537   C     0.70577   0.07963   0.51003   0.00000  Uiso   1.00
C538   C     0.96090   0.25370   0.48998   0.00000  Uiso   1.00
C539   C     0.95644   0.08584   0.46475   0.00000  Uiso   1.00
C540   C     0.91327   0.16713   0.49530   0.00000  Uiso   1.00
C541   C     0.71023   0.24749   0.53525   0.00000  Uiso   1.00
C542   C     0.88322   0.04952   0.56917   0.00000  Uiso   1.00
C543   C     0.78345   0.28381   0.43083   0.00000  Uiso   1.00
C544   C     0.78534   0.04731   0.42892   0.00000  Uiso   1.00
C545   C     0.88132   0.28602   0.57108   0.00000  Uiso   1.00
C546   C     0.83324   0.16664   0.40623   0.00000  Uiso   1.00
C547   C     0.83343   0.16670   0.59377   0.00000  Uiso   1.00
C548   C     0.83330   0.16663   0.35513   0.00000  Uiso   1.00
C549   C     0.83337   0.16671   0.64487   0.00000  Uiso   1.00
C550   C     0.68644   0.12432   0.50093   0.00000  Uiso   1.00
C551   C     0.98022   0.20902   0.49907   0.00000  Uiso   1.00
C552   C     0.97832   0.12637   0.48641   0.00000  Uiso   1.00
H553   H     0.72430   0.07457   0.54383   0.00000  Uiso   1.00
H554   H     0.94237   0.25876   0.45617   0.00000  Uiso   1.00
H555   H     0.93935   0.08892   0.42956   0.00000  Uiso   1.00
H556   H     0.72732   0.24441   0.57044   0.00000  Uiso   1.00
N557   N     0.83333   0.28573   0.50000   0.00000  Uiso   1.00
N558   N     0.83333   0.04760   0.50000   0.00000  Uiso   1.00
N559   N     0.90425   0.06923   0.59752   0.00000  Uiso   1.00
N560   N     0.76242   0.26410   0.40248   0.00000  Uiso   1.00
N561   N     0.76577   0.06606   0.39903   0.00000  Uiso   1.00
N562   N     0.90090   0.26727   0.60097   0.00000  Uiso   1.00
O563   O     0.77226   0.20487   0.50000   0.00000  Uiso   1.00
O564   O     0.96402   0.28430   0.52058   0.00000  Uiso   1.00
O565   O     0.95485   0.05012   0.48746   0.00000  Uiso   1.00
O566   O     0.71182   0.28321   0.51255   0.00000  Uiso   1.00
O567   O     0.89441   0.12846   0.50000   0.00000  Uiso   1.00
O568   O     0.89441   0.20487   0.50000   0.00000  Uiso   1.00
O569   O     0.77226   0.12846   0.50000   0.00000  Uiso   1.00
O570   O     0.83334   0.20488   0.42845   0.00000  Uiso   1.00
O571   O     0.83333   0.12845   0.57155   0.00000  Uiso   1.00
O572   O     0.83333   0.20488   0.57155   0.00000  Uiso   1.00
O573   O     0.83334   0.12845   0.42845   0.00000  Uiso   1.00
O574   O     0.70265   0.04903   0.47943   0.00000  Uiso   1.00
Zn575  Zn    0.83333   0.21771   0.50000   0.00000  Uiso   1.00
Zn576  Zn    0.83333   0.11563   0.50000   0.00000  Uiso   1.00
C577   C     0.08673   0.49954   0.50470   0.00000  Uiso   1.00
C578   C     0.02168   0.54030   0.51359   0.00000  Uiso   1.00
C579   C     0.29129   0.50138   0.49021   0.00000  Uiso   1.00
C580   C     0.04204   0.49862   0.50980   0.00000  Uiso   1.00
C581   C     0.19055   0.35792   0.53390   0.00000  Uiso   1.00
C582   C     0.14278   0.64208   0.46610   0.00000  Uiso   1.00
C583   C     0.14301   0.35685   0.46587   0.00000  Uiso   1.00
C584   C     0.19032   0.64315   0.53413   0.00000  Uiso   1.00
C585   C     0.03910   0.41296   0.51003   0.00000  Uiso   1.00
C586   C     0.29423   0.58704   0.48998   0.00000  Uiso   1.00
C587   C     0.28977   0.41918   0.46475   0.00000  Uiso   1.00
C588   C     0.24660   0.50046   0.49530   0.00000  Uiso   1.00
C589   C     0.04356   0.58082   0.53525   0.00000  Uiso   1.00
C590   C     0.21655   0.38286   0.56917   0.00000  Uiso   1.00
C591   C     0.11678   0.61714   0.43083   0.00000  Uiso   1.00
C592   C     0.11868   0.38064   0.42892   0.00000  Uiso   1.00
C593   C     0.21466   0.61936   0.57108   0.00000  Uiso   1.00
C594   C     0.16657   0.49997   0.40623   0.00000  Uiso   1.00
C595   C     0.16676   0.50003   0.59377   0.00000  Uiso   1.00
C596   C     0.16663   0.49996   0.35513   0.00000  Uiso   1.00
C597   C     0.16670   0.50004   0.64487   0.00000  Uiso   1.00
C598   C     0.01978   0.45765   0.50093   0.00000  Uiso   1.00
C599   C     0.31356   0.54235   0.49907   0.00000  Uiso   1.00
C600   C     0.31165   0.45970   0.48641   0.00000  Uiso   1.00
H601   H     0.05763   0.40790   0.54383   0.00000  Uiso   1.00
H602   H     0.27570   0.59210   0.45617   0.00000  Uiso   1.00
H603   H     0.27268   0.42225   0.42956   0.00000  Uiso   1.00
H604   H     0.06066   0.57775   0.57044   0.00000  Uiso   1.00
N605   N     0.16667   0.61907   0.50000   0.00000  Uiso   1.00
N606   N     0.16667   0.38093   0.50000   0.00000  Uiso   1.00
N607   N     0.23758   0.40257   0.59752   0.00000  Uiso   1.00
N608   N     0.09575   0.59743   0.40248   0.00000  Uiso   1.00
N609   N     0.09910   0.39940   0.39903   0.00000  Uiso   1.00
N610   N     0.23423   0.60060   0.60097   0.00000  Uiso   1.00
O611   O     0.10559   0.53821   0.50000   0.00000  Uiso   1.00
O612   O     0.29735   0.61763   0.52058   0.00000  Uiso   1.00
O613   O     0.28818   0.38346   0.48746   0.00000  Uiso   1.00
O614   O     0.04515   0.61654   0.51255   0.00000  Uiso   1.00
O615   O     0.22774   0.46179   0.50000   0.00000  Uiso   1.00
O616   O     0.22774   0.53821   0.50000   0.00000  Uiso   1.00
O617   O     0.10559   0.46179   0.50000   0.00000  Uiso   1.00
O618   O     0.16667   0.53821   0.42845   0.00000  Uiso   1.00
O619   O     0.16666   0.46179   0.57155   0.00000  Uiso   1.00
O620   O     0.16666   0.53821   0.57155   0.00000  Uiso   1.00
O621   O     0.16667   0.46179   0.42845   0.00000  Uiso   1.00
O622   O     0.03598   0.38237   0.47943   0.00000  Uiso   1.00
Zn623  Zn    0.16667   0.55104   0.50000   0.00000  Uiso   1.00
Zn624  Zn    0.16667   0.44896   0.50000   0.00000  Uiso   1.00
C625   C     0.42006   0.49954   0.50470   0.00000  Uiso   1.00
C626   C     0.35501   0.54030   0.51359   0.00000  Uiso   1.00
C627   C     0.62463   0.50138   0.49021   0.00000  Uiso   1.00
C628   C     0.37538   0.49862   0.50980   0.00000  Uiso   1.00
C629   C     0.52389   0.35792   0.53390   0.00000  Uiso   1.00
C630   C     0.47611   0.64208   0.46610   0.00000  Uiso   1.00
C631   C     0.47635   0.35685   0.46587   0.00000  Uiso   1.00
C632   C     0.52365   0.64315   0.53413   0.00000  Uiso   1.00
C633   C     0.37244   0.41296   0.51003   0.00000  Uiso   1.00
C634   C     0.62756   0.58704   0.48998   0.00000  Uiso   1.00
C635   C     0.62310   0.41918   0.46475   0.00000  Uiso   1.00
C636   C     0.57994   0.50046   0.49530   0.00000  Uiso   1.00
C637   C     0.37690   0.58082   0.53525   0.00000  Uiso   1.00
C638   C     0.54988   0.38286   0.56917   0.00000  Uiso   1.00
C639   C     0.45012   0.61714   0.43083   0.00000  Uiso   1.00
C640   C     0.45201   0.38064   0.42892   0.00000  Uiso   1.00
C641   C     0.54799   0.61936   0.57108   0.00000  Uiso   1.00
C642   C     0.49990   0.49997   0.40623   0.00000  Uiso   1.00
C643   C     0.50010   0.50003   0.59377   0.00000  Uiso   1.00
C644   C     0.49997   0.49996   0.35513   0.00000  Uiso   1.00
C645   C     0.50003   0.50004   0.64487   0.00000  Uiso   1.00
C646   C     0.35311   0.45765   0.50093   0.00000  Uiso   1.00
C647   C     0.64689   0.54235   0.49907   0.00000  Uiso   1.00
C648   C     0.64499   0.45970   0.48641   0.00000  Uiso   1.00
H649   H     0.39096   0.40790   0.54383   0.00000  Uiso   1.00
H650   H     0.60904   0.59210   0.45617   0.00000  Uiso   1.00
H651   H     0.60601   0.42225   0.42956   0.00000  Uiso   1.00
H652   H     0.39399   0.57775   0.57044   0.00000  Uiso   1.00
N653   N     0.50000   0.61907   0.50000   0.00000  Uiso   1.00
N654   N     0.50000   0.38093   0.50000   0.00000  Uiso   1.00
N655   N     0.57091   0.40257   0.59752   0.00000  Uiso   1.00
N656   N     0.42909   0.59743   0.40248   0.00000  Uiso   1.00
N657   N     0.43244   0.39940   0.39903   0.00000  Uiso   1.00
N658   N     0.56756   0.60060   0.60097   0.00000  Uiso   1.00
O659   O     0.43892   0.53821   0.50000   0.00000  Uiso   1.00
O660   O     0.63069   0.61763   0.52058   0.00000  Uiso   1.00
O661   O     0.62151   0.38346   0.48746   0.00000  Uiso   1.00
O662   O     0.37849   0.61654   0.51255   0.00000  Uiso   1.00
O663   O     0.56108   0.46179   0.50000   0.00000  Uiso   1.00
O664   O     0.56108   0.53821   0.50000   0.00000  Uiso   1.00
O665   O     0.43892   0.46179   0.50000   0.00000  Uiso   1.00
O666   O     0.50000   0.53821   0.42845   0.00000  Uiso   1.00
O667   O     0.50000   0.46179   0.57155   0.00000  Uiso   1.00
O668   O     0.50000   0.53821   0.57155   0.00000  Uiso   1.00
O669   O     0.50000   0.46179   0.42845   0.00000  Uiso   1.00
O670   O     0.36931   0.38237   0.47943   0.00000  Uiso   1.00
Zn671  Zn    0.50000   0.55104   0.50000   0.00000  Uiso   1.00
Zn672  Zn    0.50000   0.44896   0.50000   0.00000  Uiso   1.00
C673   C     0.75340   0.49954   0.50470   0.00000  Uiso   1.00
C674   C     0.68835   0.54030   0.51359   0.00000  Uiso   1.00
C675   C     0.95796   0.50138   0.49021   0.00000  Uiso   1.00
C676   C     0.70871   0.49862   0.50980   0.00000  Uiso   1.00
C677   C     0.85722   0.35792   0.53390   0.00000  Uiso   1.00
C678   C     0.80945   0.64208   0.46610   0.00000  Uiso   1.00
C679   C     0.80968   0.35685   0.46587   0.00000  Uiso   1.00
C680   C     0.85699   0.64315   0.53413   0.00000  Uiso   1.00
C681   C     0.70577   0.41296   0.51003   0.00000  Uiso   1.00
C682   C     0.96090   0.58704   0.48998   0.00000  Uiso   1.00
C683   C     0.95644   0.41918   0.46475   0.00000  Uiso   1.00
C684   C     0.91327   0.50046   0.49530   0.00000  Uiso   1.00
C685   C     0.71023   0.58082   0.53525   0.00000  Uiso   1.00
C686   C     0.88322   0.38286   0.56917   0.00000  Uiso   1.00
C687   C     0.78345   0.61714   0.43083   0.00000  Uiso   1.00
C688   C     0.78534   0.38064   0.42892   0.00000  Uiso   1.00
C689   C     0.88132   0.61936   0.57108   0.00000  Uiso   1.00
C690   C     0.83324   0.49997   0.40623   0.00000  Uiso   1.00
C691   C     0.83343   0.50003   0.59377   0.00000  Uiso   1.00
C692   C     0.83330   0.49996   0.35513   0.00000  Uiso   1.00
C693   C     0.83337   0.50004   0.64487   0.00000  Uiso   1.00
C694   C     0.68644   0.45765   0.50093   0.00000  Uiso   1.00
C695   C     0.98022   0.54235   0.49907   0.00000  Uiso   1.00
C696   C     0.97832   0.45970   0.48641   0.00000  Uiso   1.00
H697   H     0.72430   0.40790   0.54383   0.00000  Uiso   1.00
H698   H     0.94237   0.59210   0.45617   0.00000  Uiso   1.00
H699   H     0.93935   0.42225   0.42956   0.00000  Uiso   1.00
H700   H     0.72732   0.57775   0.57044   0.00000  Uiso   1.00
N701   N     0.83333   0.61907   0.50000   0.00000  Uiso   1.00
N702   N     0.83333   0.38093   0.50000   0.00000  Uiso   1.00
N703   N     0.90425   0.40257   0.59752   0.00000  Uiso   1.00
N704   N     0.76242   0.59743   0.40248   0.00000  Uiso   1.00
N705   N     0.76577   0.39940   0.39903   0.00000  Uiso   1.00
N706   N     0.90090   0.60060   0.60097   0.00000  Uiso   1.00
O707   O     0.77226   0.53821   0.50000   0.00000  Uiso   1.00
O708   O     0.96402   0.61763   0.52058   0.00000  Uiso   1.00
O709   O     0.95485   0.38346   0.48746   0.00000  Uiso   1.00
O710   O     0.71182   0.61654   0.51255   0.00000  Uiso   1.00
O711   O     0.89441   0.46179   0.50000   0.00000  Uiso   1.00
O712   O     0.89441   0.53821   0.50000   0.00000  Uiso   1.00
O713   O     0.77226   0.46179   0.50000   0.00000  Uiso   1.00
O714   O     0.83334   0.53821   0.42845   0.00000  Uiso   1.00
O715   O     0.83333   0.46179   0.57155   0.00000  Uiso   1.00
O716   O     0.83333   0.53821   0.57155   0.00000  Uiso   1.00
O717   O     0.83334   0.46179   0.42845   0.00000  Uiso   1.00
O718   O     0.70265   0.38237   0.47943   0.00000  Uiso   1.00
Zn719  Zn    0.83333   0.55104   0.50000   0.00000  Uiso   1.00
Zn720  Zn    0.83333   0.44896   0.50000   0.00000  Uiso   1.00
C721   C     0.08673   0.83287   0.50470   0.00000  Uiso   1.00
C722   C     0.02168   0.87363   0.51359   0.00000  Uiso   1.00
C723   C     0.29129   0.83471   0.49021   0.00000  Uiso   1.00
C724   C     0.04204   0.83196   0.50980   0.00000  Uiso   1.00
C725   C     0.19055   0.69125   0.53390   0.00000  Uiso   1.00
C726   C     0.14278   0.97542   0.46610   0.00000  Uiso   1.00
C727   C     0.14301   0.69019   0.46587   0.00000  Uiso   1.00
C728   C     0.19032   0.97648   0.53413   0.00000  Uiso   1.00
C729   C     0.03910   0.74630   0.51003   0.00000  Uiso   1.00
C730   C     0.29423   0.92037   0.48998   0.00000  Uiso   1.00
C731   C     0.28977   0.75251   0.46475   0.00000  Uiso   1.00
C732   C     0.24660   0.83380   0.49530   0.00000  Uiso   1.00
C733   C     0.04356   0.91416   0.53525   0.00000  Uiso   1.00
C734   C     0.21655   0.71619   0.56917   0.00000  Uiso   1.00
C735   C     0.11678   0.95048   0.43083   0.00000  Uiso   1.00
C736   C     0.11868   0.71398   0.42892   0.00000  Uiso   1.00
C737   C     0.21466   0.95269   0.57108   0.00000  Uiso   1.00
C738   C     0.16657   0.83330   0.40623   0.00000  Uiso   1.00
C739   C     0.16676   0.83336   0.59377   0.00000  Uiso   1.00
C740   C     0.16663   0.83329   0.35513   0.00000  Uiso   1.00
C741   C     0.16670   0.83337   0.64487   0.00000  Uiso   1.00
C742   C     0.01978   0.79098   0.50093   0.00000  Uiso   1.00
C743   C     0.31356   0.87568   0.49907   0.00000  Uiso   1.00
C744   C     0.31165   0.79304   0.48641   0.00000  Uiso   1.00
H745   H     0.05763   0.74124   0.54383   0.00000  Uiso   1.00
H746   H     0.27570   0.92543   0.45617   0.00000  Uiso   1.00
H747   H     0.27268   0.75558   0.42956   0.00000  Uiso   1.00
H748   H     0.06066   0.91108   0.57044   0.00000  Uiso   1.00
N749   N     0.16667   0.95240   0.50000   0.00000  Uiso   1.00
N750   N     0.16667   0.71427   0.50000   0.00000  Uiso   1.00
N751   N     0.23758   0.73590   0.59752   0.00000  Uiso   1.00
N752   N     0.09575   0.93077   0.40248   0.00000  Uiso   1.00
N753   N     0.09910   0.73273   0.39903   0.00000  Uiso   1.00
N754   N     0.23423   0.93394   0.60097   0.00000  Uiso   1.00
O755   O     0.10559   0.87154   0.50000   0.00000  Uiso   1.00
O756   O     0.29735   0.95097   0.52058   0.00000  Uiso   1.00
O757   O     0.28818   0.71679   0.48746   0.00000  Uiso   1.00
O758   O     0.04515   0.94988   0.51255   0.00000  Uiso   1.00
O759   O     0.22774   0.79513   0.50000   0.00000  Uiso   1.00
O760   O     0.22774   0.87154   0.50000   0.00000  Uiso   1.00
O761   O     0.10559   0.79513   0.50000   0.00000  Uiso   1.00
O762   O     0.16667   0.87155   0.42845   0.00000  Uiso   1.00
O763   O     0.16666   0.79512   0.57155   0.00000  Uiso   1.00
O764   O     0.16666   0.87155   0.57155   0.00000  Uiso   1.00
O765   O     0.16667   0.79512   0.42845   0.00000  Uiso   1.00
O766   O     0.03598   0.71570   0.47943   0.00000  Uiso   1.00
Zn767  Zn    0.16667   0.88437   0.50000   0.00000  Uiso   1.00
Zn768  Zn    0.16667   0.78229   0.50000   0.00000  Uiso   1.00
C769   C     0.42006   0.83287   0.50470   0.00000  Uiso   1.00
C770   C     0.35501   0.87363   0.51359   0.00000  Uiso   1.00
C771   C     0.62463   0.83471   0.49021   0.00000  Uiso   1.00
C772   C     0.37538   0.83196   0.50980   0.00000  Uiso   1.00
C773   C     0.52389   0.69125   0.53390   0.00000  Uiso   1.00
C774   C     0.47611   0.97542   0.46610   0.00000  Uiso   1.00
C775   C     0.47635   0.69019   0.46587   0.00000  Uiso   1.00
C776   C     0.52365   0.97648   0.53413   0.00000  Uiso   1.00
C777   C     0.37244   0.74630   0.51003   0.00000  Uiso   1.00
C778   C     0.62756   0.92037   0.48998   0.00000  Uiso   1.00
C779   C     0.62310   0.75251   0.46475   0.00000  Uiso   1.00
C780   C     0.57994   0.83380   0.49530   0.00000  Uiso   1.00
C781   C     0.37690   0.91416   0.53525   0.00000  Uiso   1.00
C782   C     0.54988   0.71619   0.56917   0.00000  Uiso   1.00
C783   C     0.45012   0.95048   0.43083   0.00000  Uiso   1.00
C784   C     0.45201   0.71398   0.42892   0.00000  Uiso   1.00
C785   C     0.54799   0.95269   0.57108   0.00000  Uiso   1.00
C786   C     0.49990   0.83330   0.40623   0.00000  Uiso   1.00
C787   C     0.50010   0.83336   0.59377   0.00000  Uiso   1.00
C788   C     0.49997   0.83329   0.35513   0.00000  Uiso   1.00
C789   C     0.50003   0.83337   0.64487   0.00000  Uiso   1.00
C790   C     0.35311   0.79098   0.50093   0.00000  Uiso   1.00
C791   C     0.64689   0.87568   0.49907   0.00000  Uiso   1.00
C792   C     0.64499   0.79304   0.48641   0.00000  Uiso   1.00
H793   H     0.39096   0.74124   0.54383   0.00000  Uiso   1.00
H794   H     0.60904   0.92543   0.45617   0.00000  Uiso   1.00
H795   H     0.60601   0.75558   0.42956   0.00000  Uiso   1.00
H796   H     0.39399   0.91108   0.57044   0.00000  Uiso   1.00
N797   N     0.50000   0.95240   0.50000   0.00000  Uiso   1.00
N798   N     0.50000   0.71427   0.50000   0.00000  Uiso   1.00
N799   N     0.57091   0.73590   0.59752   0.00000  Uiso   1.00
N800   N     0.42909   0.93077   0.40248   0.00000  Uiso   1.00
N801   N     0.43244   0.73273   0.39903   0.00000  Uiso   1.00
N802   N     0.56756   0.93394   0.60097   0.00000  Uiso   1.00
O803   O     0.43892   0.87154   0.50000   0.00000  Uiso   1.00
O804   O     0.63069   0.95097   0.52058   0.00000  Uiso   1.00
O805   O     0.62151   0.71679   0.48746   0.00000  Uiso   1.00
O806   O     0.37849   0.94988   0.51255   0.00000  Uiso   1.00
O807   O     0.56108   0.79513   0.50000   0.00000  Uiso   1.00
O808   O     0.56108   0.87154   0.50000   0.00000  Uiso   1.00
O809   O     0.43892   0.79513   0.50000   0.00000  Uiso   1.00
O810   O     0.50000   0.87155   0.42845   0.00000  Uiso   1.00
O811   O     0.50000   0.79512   0.57155   0.00000  Uiso   1.00
O812   O     0.50000   0.87155   0.57155   0.00000  Uiso   1.00
O813   O     0.50000   0.79512   0.42845   0.00000  Uiso   1.00
O814   O     0.36931   0.71570   0.47943   0.00000  Uiso   1.00
Zn815  Zn    0.50000   0.88437   0.50000   0.00000  Uiso   1.00
Zn816  Zn    0.50000   0.78229   0.50000   0.00000  Uiso   1.00
C817   C     0.75340   0.83287   0.50470   0.00000  Uiso   1.00
C818   C     0.68835   0.87363   0.51359   0.00000  Uiso   1.00
C819   C     0.95796   0.83471   0.49021   0.00000  Uiso   1.00
C820   C     0.70871   0.83196   0.50980   0.00000  Uiso   1.00
C821   C     0.85722   0.69125   0.53390   0.00000  Uiso   1.00
C822   C     0.80945   0.97542   0.46610   0.00000  Uiso   1.00
C823   C     0.80968   0.69019   0.46587   0.00000  Uiso   1.00
C824   C     0.85699   0.97648   0.53413   0.00000  Uiso   1.00
C825   C     0.70577   0.74630   0.51003   0.00000  Uiso   1.00
C826   C     0.96090   0.92037   0.48998   0.00000  Uiso   1.00
C827   C     0.95644   0.75251   0.46475   0.00000  Uiso   1.00
C828   C     0.91327   0.83380   0.49530   0.00000  Uiso   1.00
C829   C     0.71023   0.91416   0.53525   0.00000  Uiso   1.00
C830   C     0.88322   0.71619   0.56917   0.00000  Uiso   1.00
C831   C     0.78345   0.95048   0.43083   0.00000  Uiso   1.00
C832   C     0.78534   0.71398   0.42892   0.00000  Uiso   1.00
C833   C     0.88132   0.95269   0.57108   0.00000  Uiso   1.00
C834   C     0.83324   0.83330   0.40623   0.00000  Uiso   1.00
C835   C     0.83343   0.83336   0.59377   0.00000  Uiso   1.00
C836   C     0.83330   0.83329   0.35513   0.00000  Uiso   1.00
C837   C     0.83337   0.83337   0.64487   0.00000  Uiso   1.00
C838   C     0.68644   0.79098   0.50093   0.00000  Uiso   1.00
C839   C     0.98022   0.87568   0.49907   0.00000  Uiso   1.00
C840   C     0.97832   0.79304   0.48641   0.00000  Uiso   1.00
H841   H     0.72430   0.74124   0.54383   0.00000  Uiso   1.00
H842   H     0.94237   0.92543   0.45617   0.00000  Uiso   1.00
H843   H     0.93935   0.75558   0.42956   0.00000  Uiso   1.00
H844   H     0.72732   0.91108   0.57044   0.00000  Uiso   1.00
N845   N     0.83333   0.95240   0.50000   0.00000  Uiso   1.00
N846   N     0.83333   0.71427   0.50000   0.00000  Uiso   1.00
N847   N     0.90425   0.73590   0.59752   0.00000  Uiso   1.00
N848   N     0.76242   0.93077   0.40248   0.00000  Uiso   1.00
N849   N     0.76577   0.73273   0.39903   0.00000  Uiso   1.00
N850   N     0.90090   0.93394   0.60097   0.00000  Uiso   1.00
O851   O     0.77226   0.87154   0.50000   0.00000  Uiso   1.00
O852   O     0.96402   0.95097   0.52058   0.00000  Uiso   1.00
O853   O     0.95485   0.71679   0.48746   0.00000  Uiso   1.00
O854   O     0.71182   0.94988   0.51255   0.00000  Uiso   1.00
O855   O     0.89441   0.79513   0.50000   0.00000  Uiso   1.00
O856   O     0.89441   0.87154   0.50000   0.00000  Uiso   1.00
O857   O     0.77226   0.79513   0.50000   0.00000  Uiso   1.00
O858   O     0.83334   0.87155   0.42845   0.00000  Uiso   1.00
O859   O     0.83333   0.79512   0.57155   0.00000  Uiso   1.00
O860   O     0.83333   0.87155   0.57155   0.00000  Uiso   1.00
O861   O     0.83334   0.79512   0.42845   0.00000  Uiso   1.00
O862   O     0.70265   0.71570   0.47943   0.00000  Uiso   1.00
Zn863  Zn    0.83333   0.88437   0.50000   0.00000  Uiso   1.00
Zn864  Zn    0.83333   0.78229   0.50000   0.00000  Uiso   1.00
C865   C     0.08673   0.16620   0.83804   0.00000  Uiso   1.00
C866   C     0.02168   0.20696   0.84693   0.00000  Uiso   1.00
C867   C     0.29129   0.16804   0.82354   0.00000  Uiso   1.00
C868   C     0.04204   0.16529   0.84313   0.00000  Uiso   1.00
C869   C     0.19055   0.02458   0.86723   0.00000  Uiso   1.00
C870   C     0.14278   0.30875   0.79944   0.00000  Uiso   1.00
C871   C     0.14301   0.02352   0.79920   0.00000  Uiso   1.00
C872   C     0.19032   0.30982   0.86746   0.00000  Uiso   1.00
C873   C     0.03910   0.07963   0.84336   0.00000  Uiso   1.00
C874   C     0.29423   0.25370   0.82331   0.00000  Uiso   1.00
C875   C     0.28977   0.08584   0.79809   0.00000  Uiso   1.00
C876   C     0.24660   0.16713   0.82863   0.00000  Uiso   1.00
C877   C     0.04356   0.24749   0.86858   0.00000  Uiso   1.00
C878   C     0.21655   0.04952   0.90250   0.00000  Uiso   1.00
C879   C     0.11678   0.28381   0.76416   0.00000  Uiso   1.00
C880   C     0.11868   0.04731   0.76225   0.00000  Uiso   1.00
C881   C     0.21466   0.28602   0.90442   0.00000  Uiso   1.00
C882   C     0.16657   0.16664   0.73956   0.00000  Uiso   1.00
C883   C     0.16676   0.16670   0.92710   0.00000  Uiso   1.00
C884   C     0.16663   0.16663   0.68847   0.00000  Uiso   1.00
C885   C     0.16670   0.16671   0.97820   0.00000  Uiso   1.00
C886   C     0.01978   0.12432   0.83427   0.00000  Uiso   1.00
C887   C     0.31356   0.20902   0.83240   0.00000  Uiso   1.00
C888   C     0.31165   0.12637   0.81974   0.00000  Uiso   1.00
H889   H     0.05763   0.07457   0.87716   0.00000  Uiso   1.00
H890   H     0.27570   0.25876   0.78951   0.00000  Uiso   1.00
H891   H     0.27268   0.08892   0.76290   0.00000  Uiso   1.00
H892   H     0.06066   0.24441   0.90377   0.00000  Uiso   1.00
N893   N     0.16667   0.28573   0.83333   0.00000  Uiso   1.00
N894   N     0.16667   0.04760   0.83333   0.00000  Uiso   1.00
N895   N     0.23758   0.06923   0.93085   0.00000  Uiso   1.00
N896   N     0.09575   0.26410   0.73581   0.00000  Uiso   1.00
N897   N     0.09910   0.06606   0.73236   0.00000  Uiso   1.00
N898   N     0.23423   0.26727   0.93430   0.00000  Uiso   1.00
O899   O     0.10559   0.20487   0.83333   0.00000  Uiso   1.00
O900   O     0.29735   0.28430   0.85391   0.00000  Uiso   1.00
O901   O     0.28818   0.05012   0.82079   0.00000  Uiso   1.00
O902   O     0.04515   0.28321   0.84588   0.00000  Uiso   1.00
O903   O     0.22774   0.12846   0.83334   0.00000  Uiso   1.00
O904   O     0.22774   0.20487   0.83334   0.00000  Uiso   1.00
O905   O     0.10559   0.12846   0.83333   0.00000  Uiso   1.00
O906   O     0.16667   0.20488   0.76178   0.00000  Uiso   1.00
O907   O     0.16666   0.12845   0.90489   0.00000  Uiso   1.00
O908   O     0.16666   0.20488   0.90489   0.00000  Uiso   1.00
O909   O     0.16667   0.12845   0.76178   0.00000  Uiso   1.00
O910   O     0.03598   0.04903   0.81276   0.00000  Uiso   1.00
Zn911  Zn    0.16667   0.21771   0.83333   0.00000  Uiso   1.00
Zn912  Zn    0.16667   0.11563   0.83333   0.00000  Uiso   1.00
C913   C     0.42006   0.16620   0.83804   0.00000  Uiso   1.00
C914   C     0.35501   0.20696   0.84693   0.00000  Uiso   1.00
C915   C     0.62463   0.16804   0.82354   0.00000  Uiso   1.00
C916   C     0.37538   0.16529   0.84313   0.00000  Uiso   1.00
C917   C     0.52389   0.02458   0.86723   0.00000  Uiso   1.00
C918   C     0.47611   0.30875   0.79944   0.00000  Uiso   1.00
C919   C     0.47635   0.02352   0.79920   0.00000  Uiso   1.00
C920   C     0.52365   0.30982   0.86746   0.00000  Uiso   1.00
C921   C     0.37244   0.07963   0.84336   0.00000  Uiso   1.00
C922   C     0.62756   0.25370   0.82331   0.00000  Uiso   1.00
C923   C     0.62310   0.08584   0.79809   0.00000  Uiso   1.00
C924   C     0.57994   0.16713   0.82863   0.00000  Uiso   1.00
C925   C     0.37690   0.24749   0.86858   0.00000  Uiso   1.00
C926   C     0.54988   0.04952   0.90250   0.00000  Uiso   1.00
C927   C     0.45012   0.28381   0.76416   0.00000  Uiso   1.00
C928   C     0.45201   0.04731   0.76225   0.00000  Uiso   1.00
C929   C     0.54799   0.28602   0.90442   0.00000  Uiso   1.00
C930   C     0.49990   0.16664   0.73956   0.00000  Uiso   1.00
C931   C     0.50010   0.16670   0.92710   0.00000  Uiso   1.00
C932   C     0.49997   0.16663   0.68847   0.00000  Uiso   1.00
C933   C     0.50003   0.16671   0.97820   0.00000  Uiso   1.00
C934   C     0.35311   0.12432   0.83427   0.00000  Uiso   1.00
C935   C     0.64689   0.20902   0.83240   0.00000  Uiso   1.00
C936   C     0.64499   0.12637   0.81974   0.00000  Uiso   1.00
H937   H     0.39096   0.07457   0.87716   0.00000  Uiso   1.00
H938   H     0.60904   0.25876   0.78951   0.00000  Uiso   1.00
H939   H     0.60601   0.08892   0.76290   0.00000  Uiso   1.00
H940   H     0.39399   0.24441   0.90377   0.00000  Uiso   1.00
N941   N     0.50000   0.28573   0.83333   0.00000  Uiso   1.00
N942   N     0.50000   0.04760   0.83333   0.00000  Uiso   1.00
N943   N     0.57091   0.06923   0.93085   0.00000  Uiso   1.00
N944   N     0.42909   0.26410   0.73581   0.00000  Uiso   1.00
N945   N     0.43244   0.06606   0.73236   0.00000  Uiso   1.00
N946   N     0.56756   0.26727   0.93430   0.00000  Uiso   1.00
O947   O     0.43892   0.20487   0.83333   0.00000  Uiso   1.00
O948   O     0.63069   0.28430   0.85391   0.00000  Uiso   1.00
O949   O     0.62151   0.05012   0.82079   0.00000  Uiso   1.00
O950   O     0.37849   0.28321   0.84588   0.00000  Uiso   1.00
O951   O     0.56108   0.12846   0.83334   0.00000  Uiso   1.00
O952   O     0.56108   0.20487   0.83334   0.00000  Uiso   1.00
O953   O     0.43892   0.12846   0.83333   0.00000  Uiso   1.00
O954   O     0.50000   0.20488   0.76178   0.00000  Uiso   1.00
O955   O     0.50000   0.12845   0.90489   0.00000  Uiso   1.00
O956   O     0.50000   0.20488   0.90489   0.00000  Uiso   1.00
O957   O     0.50000   0.12845   0.76178   0.00000  Uiso   1.00
O958   O     0.36931   0.04903   0.81276   0.00000  Uiso   1.00
Zn959  Zn    0.50000   0.21771   0.83333   0.00000  Uiso   1.00
Zn960  Zn    0.50000   0.11563   0.83333   0.00000  Uiso   1.00
C961   C     0.75340   0.16620   0.83804   0.00000  Uiso   1.00
C962   C     0.68835   0.20696   0.84693   0.00000  Uiso   1.00
C963   C     0.95796   0.16804   0.82354   0.00000  Uiso   1.00
C964   C     0.70871   0.16529   0.84313   0.00000  Uiso   1.00
C965   C     0.85722   0.02458   0.86723   0.00000  Uiso   1.00
C966   C     0.80945   0.30875   0.79944   0.00000  Uiso   1.00
C967   C     0.80968   0.02352   0.79920   0.00000  Uiso   1.00
C968   C     0.85699   0.30982   0.86746   0.00000  Uiso   1.00
C969   C     0.70577   0.07963   0.84336   0.00000  Uiso   1.00
C970   C     0.96090   0.25370   0.82331   0.00000  Uiso   1.00
C971   C     0.95644   0.08584   0.79809   0.00000  Uiso   1.00
C972   C     0.91327   0.16713   0.82863   0.00000  Uiso   1.00
C973   C     0.71023   0.24749   0.86858   0.00000  Uiso   1.00
C974   C     0.88322   0.04952   0.90250   0.00000  Uiso   1.00
C975   C     0.78345   0.28381   0.76416   0.00000  Uiso   1.00
C976   C     0.78534   0.04731   0.76225   0.00000  Uiso   1.00
C977   C     0.88132   0.28602   0.90442   0.00000  Uiso   1.00
C978   C     0.83324   0.16664   0.73956   0.00000  Uiso   1.00
C979   C     0.83343   0.16670   0.92710   0.00000  Uiso   1.00
C980   C     0.83330   0.16663   0.68847   0.00000  Uiso   1.00
C981   C     0.83337   0.16671   0.97820   0.00000  Uiso   1.00
C982   C     0.68644   0.12432   0.83427   0.00000  Uiso   1.00
C983   C     0.98022   0.20902   0.83240   0.00000  Uiso   1.00
C984   C     0.97832   0.12637   0.81974   0.00000  Uiso   1.00
H985   H     0.72430   0.07457   0.87716   0.00000  Uiso   1.00
H986   H     0.94237   0.25876   0.78951   0.00000  Uiso   1.00
H987   H     0.93935   0.08892   0.76290   0.00000  Uiso   1.00
H988   H     0.72732   0.24441   0.90377   0.00000  Uiso   1.00
N989   N     0.83333   0.28573   0.83333   0.00000  Uiso   1.00
N990   N     0.83333   0.04760   0.83333   0.00000  Uiso   1.00
N991   N     0.90425   0.06923   0.93085   0.00000  Uiso   1.00
N992   N     0.76242   0.26410   0.73581   0.00000  Uiso   1.00
N993   N     0.76577   0.06606   0.73236   0.00000  Uiso   1.00
N994   N     0.90090   0.26727   0.93430   0.00000  Uiso   1.00
O995   O     0.77226   0.20487   0.83333   0.00000  Uiso   1.00
O996   O     0.96402   0.28430   0.85391   0.00000  Uiso   1.00
O997   O     0.95485   0.05012   0.82079   0.00000  Uiso   1.00
O998   O     0.71182   0.28321   0.84588   0.00000  Uiso   1.00
O999   O     0.89441   0.12846   0.83334   0.00000  Uiso   1.00
O1000  O     0.89441   0.20487   0.83334   0.00000  Uiso   1.00
O1001  O     0.77226   0.12846   0.83333   0.00000  Uiso   1.00
O1002  O     0.83334   0.20488   0.76178   0.00000  Uiso   1.00
O1003  O     0.83333   0.12845   0.90489   0.00000  Uiso   1.00
O1004  O     0.83333   0.20488   0.90489   0.00000  Uiso   1.00
O1005  O     0.83334   0.12845   0.76178   0.00000  Uiso   1.00
O1006  O     0.70265   0.04903   0.81276   0.00000  Uiso   1.00
Zn1007 Zn    0.83333   0.21771   0.83333   0.00000  Uiso   1.00
Zn1008 Zn    0.83333   0.11563   0.83333   0.00000  Uiso   1.00
C1009  C     0.08673   0.49954   0.83804   0.00000  Uiso   1.00
C1010  C     0.02168   0.54030   0.84693   0.00000  Uiso   1.00
C1011  C     0.29129   0.50138   0.82354   0.00000  Uiso   1.00
C1012  C     0.04204   0.49862   0.84313   0.00000  Uiso   1.00
C1013  C     0.19055   0.35792   0.86723   0.00000  Uiso   1.00
C1014  C     0.14278   0.64208   0.79944   0.00000  Uiso   1.00
C1015  C     0.14301   0.35685   0.79920   0.00000  Uiso   1.00
C1016  C     0.19032   0.64315   0.86746   0.00000  Uiso   1.00
C1017  C     0.03910   0.41296   0.84336   0.00000  Uiso   1.00
C1018  C     0.29423   0.58704   0.82331   0.00000  Uiso   1.00
C1019  C     0.28977   0.41918   0.79809   0.00000  Uiso   1.00
C1020  C     0.24660   0.50046   0.82863   0.00000  Uiso   1.00
C1021  C     0.04356   0.58082   0.86858   0.00000  Uiso   1.00
C1022  C     0.21655   0.38286   0.90250   0.00000  Uiso   1.00
C1023  C     0.11678   0.61714   0.76416   0.00000  Uiso   1.00
C1024  C     0.11868   0.38064   0.76225   0.00000  Uiso   1.00
C1025  C     0.21466   0.61936   0.90442   0.00000  Uiso   1.00
C1026  C     0.16657   0.49997   0.73956   0.00000  Uiso   1.00
C1027  C     0.16676   0.50003   0.92710   0.00000  Uiso   1.00
C1028  C     0.16663   0.49996   0.68847   0.00000  Uiso   1.00
C1029  C     0.16670   0.50004   0.97820   0.00000  Uiso   1.00
C1030  C     0.01978   0.45765   0.83427   0.00000  Uiso   1.00
C1031  C     0.31356   0.54235   0.83240   0.00000  Uiso   1.00
C1032  C     0.31165   0.45970   0.81974   0.00000  Uiso   1.00
H1033  H     0.05763   0.40790   0.87716   0.00000  Uiso   1.00
H1034  H     0.27570   0.59210   0.78951   0.00000  Uiso   1.00
H1035  H     0.27268   0.42225   0.76290   0.00000  Uiso   1.00
H1036  H     0.06066   0.57775   0.90377   0.00000  Uiso   1.00
N1037  N     0.16667   0.61907   0.83333   0.00000  Uiso   1.00
N1038  N     0.16667   0.38093   0.83333   0.00000  Uiso   1.00
N1039  N     0.23758   0.40257   0.93085   0.00000  Uiso   1.00
N1040  N     0.09575   0.59743   0.73581   0.00000  Uiso   1.00
N1041  N     0.09910   0.39940   0.73236   0.00000  Uiso   1.00
N1042  N     0.23423   0.60060   0.93430   0.00000  Uiso   1.00
O1043  O     0.10559   0.53821   0.83333   0.00000  Uiso   1.00
O1044  O     0.29735   0.61763   0.85391   0.00000  Uiso   1.00
O1045  O     0.28818   0.38346   0.82079   0.00000  Uiso   1.00
O1046  O     0.04515   0.61654   0.84588   0.00000  Uiso   1.00
O1047  O     0.22774   0.46179   0.83334   0.00000  Uiso   1.00
O1048  O     0.22774   0.53821   0.83334   0.00000  Uiso   1.00
O1049  O     0.10559   0.46179   0.83333   0.00000  Uiso   1.00
O1050  O     0.16667   0.53821   0.76178   0.00000  Uiso   1.00
O1051  O     0.16666   0.46179   0.90489   0.00000  Uiso   1.00
O1052  O     0.16666   0.53821   0.90489   0.00000  Uiso   1.00
O1053  O     0.16667   0.46179   0.76178   0.00000  Uiso   1.00
O1054  O     0.03598   0.38237   0.81276   0.00000  Uiso   1.00
Zn1055 Zn    0.16667   0.55104   0.83333   0.00000  Uiso   1.00
Zn1056 Zn    0.16667   0.44896   0.83333   0.00000  Uiso   1.00
C1057  C     0.42006   0.49954   0.83804   0.00000  Uiso   1.00
C1058  C     0.35501   0.54030   0.84693   0.00000  Uiso   1.00
C1059  C     0.62463   0.50138   0.82354   0.00000  Uiso   1.00
C1060  C     0.37538   0.49862   0.84313   0.00000  Uiso   1.00
C1061  C     0.52389   0.35792   0.86723   0.00000  Uiso   1.00
C1062  C     0.47611   0.64208   0.79944   0.00000  Uiso   1.00
C1063  C     0.47635   0.35685   0.79920   0.00000  Uiso   1.00
C1064  C     0.52365   0.64315   0.86746   0.00000  Uiso   1.00
C1065  C     0.37244   0.41296   0.84336   0.00000  Uiso   1.00
C1066  C     0.62756   0.58704   0.82331   0.00000  Uiso   1.00
C1067  C     0.62310   0.41918   0.79809   0.00000  Uiso   1.00
C1068  C     0.57994   0.50046   0.82863   0.00000  Uiso   1.00
C1069  C     0.37690   0.58082   0.86858   0.00000  Uiso   1.00
C1070  C     0.54988   0.38286   0.90250   0.00000  Uiso   1.00
C1071  C     0.45012   0.61714   0.76416   0.00000  Uiso   1.00
C1072  C     0.45201   0.38064   0.76225   0.00000  Uiso   1.00
C1073  C     0.54799   0.61936   0.90442   0.00000  Uiso   1.00
C1074  C     0.49990   0.49997   0.73956   0.00000  Uiso   1.00
C1075  C     0.50010   0.50003   0.92710   0.00000  Uiso   1.00
C1076  C     0.49997   0.49996   0.68847   0.00000  Uiso   1.00
C1077  C     0.50003   0.50004   0.97820   0.00000  Uiso   1.00
C1078  C     0.35311   0.45765   0.83427   0.00000  Uiso   1.00
C1079  C     0.64689   0.54235   0.83240   0.00000  Uiso   1.00
C1080  C     0.64499   0.45970   0.81974   0.00000  Uiso   1.00
H1081  H     0.39096   0.40790   0.87716   0.00000  Uiso   1.00
H1082  H     0.60904   0.59210   0.78951   0.00000  Uiso   1.00
H1083  H     0.60601   0.42225   0.76290   0.00000  Uiso   1.00
H1084  H     0.39399   0.57775   0.90377   0.00000  Uiso   1.00
N1085  N     0.50000   0.61907   0.83333   0.00000  Uiso   1.00
N1086  N     0.50000   0.38093   0.83333   0.00000  Uiso   1.00
N1087  N     0.57091   0.40257   0.93085   0.00000  Uiso   1.00
N1088  N     0.42909   0.59743   0.73581   0.00000  Uiso   1.00
N1089  N     0.43244   0.39940   0.73236   0.00000  Uiso   1.00
N1090  N     0.56756   0.60060   0.93430   0.00000  Uiso   1.00
O1091  O     0.43892   0.53821   0.83333   0.00000  Uiso   1.00
O1092  O     0.63069   0.61763   0.85391   0.00000  Uiso   1.00
O1093  O     0.62151   0.38346   0.82079   0.00000  Uiso   1.00
O1094  O     0.37849   0.61654   0.84588   0.00000  Uiso   1.00
O1095  O     0.56108   0.46179   0.83334   0.00000  Uiso   1.00
O1096  O     0.56108   0.53821   0.83334   0.00000  Uiso   1.00
O1097  O     0.43892   0.46179   0.83333   0.00000  Uiso   1.00
O1098  O     0.50000   0.53821   0.76178   0.00000  Uiso   1.00
O1099  O     0.50000   0.46179   0.90489   0.00000  Uiso   1.00
O1100  O     0.50000   0.53821   0.90489   0.00000  Uiso   1.00
O1101  O     0.50000   0.46179   0.76178   0.00000  Uiso   1.00
O1102  O     0.36931   0.38237   0.81276   0.00000  Uiso   1.00
Zn1103 Zn    0.50000   0.55104   0.83333   0.00000  Uiso   1.00
Zn1104 Zn    0.50000   0.44896   0.83333   0.00000  Uiso   1.00
C1105  C     0.75340   0.49954   0.83804   0.00000  Uiso   1.00
C1106  C     0.68835   0.54030   0.84693   0.00000  Uiso   1.00
C1107  C     0.95796   0.50138   0.82354   0.00000  Uiso   1.00
C1108  C     0.70871   0.49862   0.84313   0.00000  Uiso   1.00
C1109  C     0.85722   0.35792   0.86723   0.00000  Uiso   1.00
C1110  C     0.80945   0.64208   0.79944   0.00000  Uiso   1.00
C1111  C     0.80968   0.35685   0.79920   0.00000  Uiso   1.00
C1112  C     0.85699   0.64315   0.86746   0.00000  Uiso   1.00
C1113  C     0.70577   0.41296   0.84336   0.00000  Uiso   1.00
C1114  C     0.96090   0.58704   0.82331   0.00000  Uiso   1.00
C1115  C     0.95644   0.41918   0.79809   0.00000  Uiso   1.00
C1116  C     0.91327   0.50046   0.82863   0.00000  Uiso   1.00
C1117  C     0.71023   0.58082   0.86858   0.00000  Uiso   1.00
C1118  C     0.88322   0.38286   0.90250   0.00000  Uiso   1.00
C1119  C     0.78345   0.61714   0.76416   0.00000  Uiso   1.00
C1120  C     0.78534   0.38064   0.76225   0.00000  Uiso   1.00
C1121  C     0.88132   0.61936   0.90442   0.00000  Uiso   1.00
C1122  C     0.83324   0.49997   0.73956   0.00000  Uiso   1.00
C1123  C     0.83343   0.50003   0.92710   0.00000  Uiso   1.00
C1124  C     0.83330   0.49996   0.68847   0.00000  Uiso   1.00
C1125  C     0.83337   0.50004   0.97820   0.00000  Uiso   1.00
C1126  C     0.68644   0.45765   0.83427   0.00000  Uiso   1.00
C1127  C     0.98022   0.54235   0.83240   0.00000  Uiso   1.00
C1128  C     0.97832   0.45970   0.81974   0.00000  Uiso   1.00
H1129  H     0.72430   0.40790   0.87716   0.00000  Uiso   1.00
H1130  H     0.94237   0.59210   0.78951   0.00000  Uiso   1.00
H1131  H     0.93935   0.42225   0.76290   0.00000  Uiso   1.00
H1132  H     0.72732   0.57775   0.90377   0.00000  Uiso   1.00
N1133  N     0.83333   0.61907   0.83333   0.00000  Uiso   1.00
N1134  N     0.83333   0.38093   0.83333   0.00000  Uiso   1.00
N1135  N     0.90425   0.40257   0.93085   0.00000  Uiso   1.00
N1136  N     0.76242   0.59743   0.73581   0.00000  Uiso   1.00
N1137  N     0.76577   0.39940   0.73236   0.00000  Uiso   1.00
N1138  N     0.90090   0.60060   0.93430   0.00000  Uiso   1.00
O1139  O     0.77226   0.53821   0.83333   0.00000  Uiso   1.00
O1140  O     0.96402   0.61763   0.85391   0.00000  Uiso   1.00
O1141  O     0.95485   0.38346   0.82079   0.00000  Uiso   1.00
O1142  O     0.71182   0.61654   0.84588   0.00000  Uiso   1.00
O1143  O     0.89441   0.46179   0.83334   0.00000  Uiso   1.00
O1144  O     0.89441   0.53821   0.83334   0.00000  Uiso   1.00
O1145  O     0.77226   0.46179   0.83333   0.00000  Uiso   1.00
O1146  O     0.83334   0.53821   0.76178   0.00000  Uiso   1.00
O1147  O     0.83333   0.46179   0.90489   0.00000  Uiso   1.00
O1148  O     0.83333   0.53821   0.90489   0.00000  Uiso   1.00
O1149  O     0.83334   0.46179   0.76178   0.00000  Uiso   1.00
O1150  O     0.70265   0.38237   0.81276   0.00000  Uiso   1.00
Zn1151 Zn    0.83333   0.55104   0.83333   0.00000  Uiso   1.00
Zn1152 Zn    0.83333   0.44896   0.83333   0.00000  Uiso   1.00
C1153  C     0.08673   0.83287   0.83804   0.00000  Uiso   1.00
C1154  C     0.02168   0.87363   0.84693   0.00000  Uiso   1.00
C1155  C     0.29129   0.83471   0.82354   0.00000  Uiso   1.00
C1156  C     0.04204   0.83196   0.84313   0.00000  Uiso   1.00
C1157  C     0.19055   0.69125   0.86723   0.00000  Uiso   1.00
C1158  C     0.14278   0.97542   0.79944   0.00000  Uiso   1.00
C1159  C     0.14301   0.69019   0.79920   0.00000  Uiso   1.00
C1160  C     0.19032   0.97648   0.86746   0.00000  Uiso   1.00
C1161  C     0.03910   0.74630   0.84336   0.00000  Uiso   1.00
C1162  C     0.29423   0.92037   0.82331   0.00000  Uiso   1.00
C1163  C     0.28977   0.75251   0.79809   0.00000  Uiso   1.00
C1164  C     0.24660   0.83380   0.82863   0.00000  Uiso   1.00
C1165  C     0.04356   0.91416   0.86858   0.00000  Uiso   1.00
C1166  C     0.21655   0.71619   0.90250   0.00000  Uiso   1.00
C1167  C     0.11678   0.95048   0.76416   0.00000  Uiso   1.00
C1168  C     0.11868   0.71398   0.76225   0.00000  Uiso   1.00
C1169  C     0.21466   0.95269   0.90442   0.00000  Uiso   1.00
C1170  C     0.16657   0.83330   0.73956   0.00000  Uiso   1.00
C1171  C     0.16676   0.83336   0.92710   0.00000  Uiso   1.00
C1172  C     0.16663   0.83329   0.68847   0.00000  Uiso   1.00
C1173  C     0.16670   0.83337   0.97820   0.00000  Uiso   1.00
C1174  C     0.01978   0.79098   0.83427   0.00000  Uiso   1.00
C1175  C     0.31356   0.87568   0.83240   0.00000  Uiso   1.00
C1176  C     0.31165   0.79304   0.81974   0.00000  Uiso   1.00
H1177  H     0.05763   0.74124   0.87716   0.00000  Uiso   1.00
H1178  H     0.27570   0.92543   0.78951   0.00000  Uiso   1.00
H1179  H     0.27268   0.75558   0.76290   0.00000  Uiso   1.00
H1180  H     0.06066   0.91108   0.90377   0.00000  Uiso   1.00
N1181  N     0.16667   0.95240   0.83333   0.00000  Uiso   1.00
N1182  N     0.16667   0.71427   0.83333   0.00000  Uiso   1.00
N1183  N     0.23758   0.73590   0.93085   0.00000  Uiso   1.00
N1184  N     0.09575   0.93077   0.73581   0.00000  Uiso   1.00
N1185  N     0.09910   0.73273   0.73236   0.00000  Uiso   1.00
N1186  N     0.23423   0.93394   0.93430   0.00000  Uiso   1.00
O1187  O     0.10559   0.87154   0.83333   0.00000  Uiso   1.00
O1188  O     0.29735   0.95097   0.85391   0.00000  Uiso   1.00
O1189  O     0.28818   0.71679   0.82079   0.00000  Uiso   1.00
O1190  O     0.04515   0.94988   0.84588   0.00000  Uiso   1.00
O1191  O     0.22774   0.79513   0.83334   0.00000  Uiso   1.00
O1192  O     0.22774   0.87154   0.83334   0.00000  Uiso   1.00
O1193  O     0.10559   0.79513   0.83333   0.00000  Uiso   1.00
O1194  O     0.16667   0.87155   0.76178   0.00000  Uiso   1.00
O1195  O     0.16666   0.79512   0.90489   0.00000  Uiso   1.00
O1196  O     0.16666   0.87155   0.90489   0.00000  Uiso   1.00
O1197  O     0.16667   0.79512   0.76178   0.00000  Uiso   1.00
O1198  O     0.03598   0.71570   0.81276   0.00000  Uiso   1.00
Zn1199 Zn    0.16667   0.88437   0.83333   0.00000  Uiso   1.00
Zn1200 Zn    0.16667   0.78229   0.83333   0.00000  Uiso   1.00
C1201  C     0.42006   0.83287   0.83804   0.00000  Uiso   1.00
C1202  C     0.35501   0.87363   0.84693   0.00000  Uiso   1.00
C1203  C     0.62463   0.83471   0.82354   0.00000  Uiso   1.00
C1204  C     0.37538   0.83196   0.84313   0.00000  Uiso   1.00
C1205  C     0.52389   0.69125   0.86723   0.00000  Uiso   1.00
C1206  C     0.47611   0.97542   0.79944   0.00000  Uiso   1.00
C1207  C     0.47635   0.69019   0.79920   0.00000  Uiso   1.00
C1208  C     0.52365   0.97648   0.86746   0.00000  Uiso   1.00
C1209  C     0.37244   0.74630   0.84336   0.00000  Uiso   1.00
C1210  C     0.62756   0.92037   0.82331   0.00000  Uiso   1.00
C1211  C     0.62310   0.75251   0.79809   0.00000  Uiso   1.00
C1212  C     0.57994   0.83380   0.82863   0.00000  Uiso   1.00
C1213  C     0.37690   0.91416   0.86858   0.00000  Uiso   1.00
C1214  C     0.54988   0.71619   0.90250   0.00000  Uiso   1.00
C1215  C     0.45012   0.95048   0.76416   0.00000  Uiso   1.00
C1216  C     0.45201   0.71398   0.76225   0.00000  Uiso   1.00
C1217  C     0.54799   0.95269   0.90442   0.00000  Uiso   1.00
C1218  C     0.49990   0.83330   0.73956   0.00000  Uiso   1.00
C1219  C     0.50010   0.83336   0.92710   0.00000  Uiso   1.00
C1220  C     0.49997   0.83329   0.68847   0.00000  Uiso   1.00
C1221  C     0.50003   0.83337   0.97820   0.00000  Uiso   1.00
C1222  C     0.35311   0.79098   0.83427   0.00000  Uiso   1.00
C1223  C     0.64689   0.87568   0.83240   0.00000  Uiso   1.00
C1224  C     0.64499   0.79304   0.81974   0.00000  Uiso   1.00
H1225  H     0.39096   0.74124   0.87716   0.00000  Uiso   1.00
H1226  H     0.60904   0.92543   0.78951   0.00000  Uiso   1.00
H1227  H     0.60601   0.75558   0.76290   0.00000  Uiso   1.00
H1228  H     0.39399   0.91108   0.90377   0.00000  Uiso   1.00
N1229  N     0.50000   0.95240   0.83333   0.00000  Uiso   1.00
N1230  N     0.50000   0.71427   0.83333   0.00000  Uiso   1.00
N1231  N     0.57091   0.73590   0.93085   0.00000  Uiso   1.00
N1232  N     0.42909   0.93077   0.73581   0.00000  Uiso   1.00
N1233  N     0.43244   0.73273   0.73236   0.00000  Uiso   1.00
N1234  N     0.56756   0.93394   0.93430   0.00000  Uiso   1.00
O1235  O     0.43892   0.87154   0.83333   0.00000  Uiso   1.00
O1236  O     0.63069   0.95097   0.85391   0.00000  Uiso   1.00
O1237  O     0.62151   0.71679   0.82079   0.00000  Uiso   1.00
O1238  O     0.37849   0.94988   0.84588   0.00000  Uiso   1.00
O1239  O     0.56108   0.79513   0.83334   0.00000  Uiso   1.00
O1240  O     0.56108   0.87154   0.83334   0.00000  Uiso   1.00
O1241  O     0.43892   0.79513   0.83333   0.00000  Uiso   1.00
O1242  O     0.50000   0.87155   0.76178   0.00000  Uiso   1.00
O1243  O     0.50000   0.79512   0.90489   0.00000  Uiso   1.00
O1244  O     0.50000   0.87155   0.90489   0.00000  Uiso   1.00
O1245  O     0.50000   0.79512   0.76178   0.00000  Uiso   1.00
O1246  O     0.36931   0.71570   0.81276   0.00000  Uiso   1.00
Zn1247 Zn    0.50000   0.88437   0.83333   0.00000  Uiso   1.00
Zn1248 Zn    0.50000   0.78229   0.83333   0.00000  Uiso   1.00
C1249  C     0.75340   0.83287   0.83804   0.00000  Uiso   1.00
C1250  C     0.68835   0.87363   0.84693   0.00000  Uiso   1.00
C1251  C     0.95796   0.83471   0.82354   0.00000  Uiso   1.00
C1252  C     0.70871   0.83196   0.84313   0.00000  Uiso   1.00
C1253  C     0.85722   0.69125   0.86723   0.00000  Uiso   1.00
C1254  C     0.80945   0.97542   0.79944   0.00000  Uiso   1.00
C1255  C     0.80968   0.69019   0.79920   0.00000  Uiso   1.00
C1256  C     0.85699   0.97648   0.86746   0.00000  Uiso   1.00
C1257  C     0.70577   0.74630   0.84336   0.00000  Uiso   1.00
C1258  C     0.96090   0.92037   0.82331   0.00000  Uiso   1.00
C1259  C     0.95644   0.75251   0.79809   0.00000  Uiso   1.00
C1260  C     0.91327   0.83380   0.82863   0.00000  Uiso   1.00
C1261  C     0.71023   0.91416   0.86858   0.00000  Uiso   1.00
C1262  C     0.88322   0.71619   0.90250   0.00000  Uiso   1.00
C1263  C     0.78345   0.95048   0.76416   0.00000  Uiso   1.00
C1264  C     0.78534   0.71398   0.76225   0.00000  Uiso   1.00
C1265  C     0.88132   0.95269   0.90442   0.00000  Uiso   1.00
C1266  C     0.83324   0.83330   0.73956   0.00000  Uiso   1.00
C1267  C     0.83343   0.83336   0.92710   0.00000  Uiso   1.00
C1268  C     0.83330   0.83329   0.68847   0.00000  Uiso   1.00
C1269  C     0.83337   0.83337   0.97820   0.00000  Uiso   1.00
C1270  C     0.68644   0.79098   0.83427   0.00000  Uiso   1.00
C1271  C     0.98022   0.87568   0.83240   0.00000  Uiso   1.00
C1272  C     0.97832   0.79304   0.81974   0.00000  Uiso   1.00
H1273  H     0.72430   0.74124   0.87716   0.00000  Uiso   1.00
H1274  H     0.94237   0.92543   0.78951   0.00000  Uiso   1.00
H1275  H     0.93935   0.75558   0.76290   0.00000  Uiso   1.00
H1276  H     0.72732   0.91108   0.90377   0.00000  Uiso   1.00
N1277  N     0.83333   0.95240   0.83333   0.00000  Uiso   1.00
N1278  N     0.83333   0.71427   0.83333   0.00000  Uiso   1.00
N1279  N     0.90425   0.73590   0.93085   0.00000  Uiso   1.00
N1280  N     0.76242   0.93077   0.73581   0.00000  Uiso   1.00
N1281  N     0.76577   0.73273   0.73236   0.00000  Uiso   1.00
N1282  N     0.90090   0.93394   0.93430   0.00000  Uiso   1.00
O1283  O     0.77226   0.87154   0.83333   0.00000  Uiso   1.00
O1284  O     0.96402   0.95097   0.85391   0.00000  Uiso   1.00
O1285  O     0.95485   0.71679   0.82079   0.00000  Uiso   1.00
O1286  O     0.71182   0.94988   0.84588   0.00000  Uiso   1.00
O1287  O     0.89441   0.79513   0.83334   0.00000  Uiso   1.00
O1288  O     0.89441   0.87154   0.83334   0.00000  Uiso   1.00
O1289  O     0.77226   0.79513   0.83333   0.00000  Uiso   1.00
O1290  O     0.83334   0.87155   0.76178   0.00000  Uiso   1.00
O1291  O     0.83333   0.79512   0.90489   0.00000  Uiso   1.00
O1292  O     0.83333   0.87155   0.90489   0.00000  Uiso   1.00
O1293  O     0.83334   0.79512   0.76178   0.00000  Uiso   1.00
O1294  O     0.70265   0.71570   0.81276   0.00000  Uiso   1.00
Zn1295 Zn    0.83333   0.88437   0.83333   0.00000  Uiso   1.00
Zn1296 Zn    0.83333   0.78229   0.83333   0.00000  Uiso   1.00
loop_
_geom_bond_atom_site_label_1
_geom_bond_atom_site_label_2
_geom_bond_distance
_geom_bond_site_symmetry_2
_ccdc_geom_bond_type
C1     C4      1.457   .     S
C1     O41     1.290   .     A
C1     O35     1.295   .     A
C2     C4      1.414   .     A
C2     C13     1.492   .     S
C2     C119    1.393   1_455 S
C3     C23     1.417   .     A
C3     C24     1.414   .     A
C3     C12     1.457   .     S
C4     C22     1.417   .     A
C5     N30     1.369   .     A
C5     C14     1.443   .     S
C5     C296    1.424   1_545 S
C6     N29     1.369   .     A
C6     C15     1.443   .     S
C6     C151    1.424   .     S
C7     N30     1.369   .     A
C7     C16     1.443   .     S
C7     C294    1.424   1_545 S
C8     C17     1.443   .     S
C8     N29     1.369   .     A
C8     C149    1.424   .     S
C9     H25     1.086   .     S
C9     O46     1.220   .     D
C9     C22     1.492   .     S
C10    H26     1.086   .     S
C10    C23     1.492   .     S
C10    O36     1.220   .     D
C11    H27     1.086   .     S
C11    C24     1.492   .     S
C11    O37     1.221   .     D
C12    O40     1.290   .     A
C12    O39     1.295   .     A
C13    H28     1.086   .     S
C13    O38     1.221   .     D
C14    N31     1.158   .     T
C15    N32     1.158   .     T
C16    N33     1.158   .     T
C17    N34     1.158   .     T
C18    C20     1.365   .     S
C18    O42     1.277   .     A
C18    O45     1.278   .     A
C19    C21     1.365   .     S
C19    O43     1.277   .     A
C19    O44     1.278   .     A
C20    C885    1.165   1_554 S
C21    C452    1.165   .     S
C22    C120    1.393   1_455 S
C23    C50     1.393   .     S
C24    C70     1.393   .     S
N29    Zn47    2.014   .     S
N30    Zn48    2.014   .     S
O35    Zn47    2.008   .     S
O39    Zn48    2.008   .     S
O40    Zn47    2.022   .     S
O41    Zn48    2.022   .     S
O42    Zn47    1.948   .     S
O43    Zn48    1.948   .     S
O44    Zn47    1.950   .     S
O45    Zn48    1.950   .     S
C49    C52     1.457   .     S
C49    O89     1.290   .     A
C49    O83     1.295   .     A
C50    C52     1.414   .     A
C50    C61     1.492   .     S
C51    C71     1.417   .     A
C51    C72     1.414   .     A
C51    C60     1.457   .     S
C52    C70     1.417   .     A
C53    N78     1.369   .     A
C53    C62     1.443   .     S
C53    C344    1.424   1_545 S
C54    N77     1.369   .     A
C54    C63     1.443   .     S
C54    C199    1.424   .     S
C55    N78     1.369   .     A
C55    C64     1.443   .     S
C55    C342    1.424   1_545 S
C56    C65     1.443   .     S
C56    N77     1.369   .     A
C56    C197    1.424   .     S
C57    H73     1.086   .     S
C57    O94     1.220   .     D
C57    C70     1.492   .     S
C58    H74     1.086   .     S
C58    C71     1.492   .     S
C58    O84     1.220   .     D
C59    H75     1.086   .     S
C59    C72     1.492   .     S
C59    O85     1.221   .     D
C60    O88     1.290   .     A
C60    O87     1.295   .     A
C61    H76     1.086   .     S
C61    O86     1.221   .     D
C62    N79     1.158   .     T
C63    N80     1.158   .     T
C64    N81     1.158   .     T
C65    N82     1.158   .     T
C66    C68     1.365   .     S
C66    O90     1.277   .     A
C66    O93     1.278   .     A
C67    C69     1.365   .     S
C67    O91     1.277   .     A
C67    O92     1.278   .     A
C68    C933    1.165   1_554 S
C69    C500    1.165   .     S
C71    C98     1.393   .     S
C72    C118    1.393   .     S
N77    Zn95    2.014   .     S
N78    Zn96    2.014   .     S
O83    Zn95    2.008   .     S
O87    Zn96    2.008   .     S
O88    Zn95    2.022   .     S
O89    Zn96    2.022   .     S
O90    Zn95    1.948   .     S
O91    Zn96    1.948   .     S
O92    Zn95    1.950   .     S
O93    Zn96    1.950   .     S
C97    C100    1.457   .     S
C97    O137    1.290   .     A
C97    O131    1.295   .     A
C98    C100    1.414   .     A
C98    C109    1.492   .     S
C99    C119    1.417   .     A
C99    C120    1.414   .     A
C99    C108    1.457   .     S
C100   C118    1.417   .     A
C101   N126    1.369   .     A
C101   C110    1.443   .     S
C101   C392    1.424   1_545 S
C102   N125    1.369   .     A
C102   C111    1.443   .     S
C102   C247    1.424   .     S
C103   N126    1.369   .     A
C103   C112    1.443   .     S
C103   C390    1.424   1_545 S
C104   C113    1.443   .     S
C104   N125    1.369   .     A
C104   C245    1.424   .     S
C105   H121    1.086   .     S
C105   O142    1.220   .     D
C105   C118    1.492   .     S
C106   H122    1.086   .     S
C106   C119    1.492   .     S
C106   O132    1.220   .     D
C107   H123    1.086   .     S
C107   C120    1.492   .     S
C107   O133    1.221   .     D
C108   O136    1.290   .     A
C108   O135    1.295   .     A
C109   H124    1.086   .     S
C109   O134    1.221   .     D
C110   N127    1.158   .     T
C111   N128    1.158   .     T
C112   N129    1.158   .     T
C113   N130    1.158   .     T
C114   C116    1.365   .     S
C114   O138    1.277   .     A
C114   O141    1.278   .     A
C115   C117    1.365   .     S
C115   O139    1.277   .     A
C115   O140    1.278   .     A
C116   C981    1.165   1_554 S
C117   C548    1.165   .     S
C119   C2      1.393   1_655 S
C120   C22     1.393   1_655 S
N125   Zn143   2.014   .     S
N126   Zn144   2.014   .     S
O131   Zn143   2.008   .     S
O135   Zn144   2.008   .     S
O136   Zn143   2.022   .     S
O137   Zn144   2.022   .     S
O138   Zn143   1.948   .     S
O139   Zn144   1.948   .     S
O140   Zn143   1.950   .     S
O141   Zn144   1.950   .     S
C145   C148    1.457   .     S
C145   O185    1.290   .     A
C145   O179    1.295   .     A
C146   C148    1.414   .     A
C146   C157    1.492   .     S
C146   C263    1.393   1_455 S
C147   C167    1.417   .     A
C147   C168    1.414   .     A
C147   C156    1.457   .     S
C148   C166    1.417   .     A
C149   N174    1.369   .     A
C149   C158    1.443   .     S
C150   N173    1.369   .     A
C150   C159    1.443   .     S
C150   C295    1.424   .     S
C151   N174    1.369   .     A
C151   C160    1.443   .     S
C152   C161    1.443   .     S
C152   N173    1.369   .     A
C152   C293    1.424   .     S
C153   H169    1.086   .     S
C153   O190    1.220   .     D
C153   C166    1.492   .     S
C154   H170    1.086   .     S
C154   C167    1.492   .     S
C154   O180    1.220   .     D
C155   H171    1.086   .     S
C155   C168    1.492   .     S
C155   O181    1.221   .     D
C156   O184    1.290   .     A
C156   O183    1.295   .     A
C157   H172    1.086   .     S
C157   O182    1.221   .     D
C158   N175    1.158   .     T
C159   N176    1.158   .     T
C160   N177    1.158   .     T
C161   N178    1.158   .     T
C162   C164    1.365   .     S
C162   O186    1.277   .     A
C162   O189    1.278   .     A
C163   C165    1.365   .     S
C163   O187    1.277   .     A
C163   O188    1.278   .     A
C164   C1029   1.165   1_554 S
C165   C596    1.165   .     S
C166   C264    1.393   1_455 S
C167   C194    1.393   .     S
C168   C214    1.393   .     S
N173   Zn191   2.014   .     S
N174   Zn192   2.014   .     S
O179   Zn191   2.008   .     S
O183   Zn192   2.008   .     S
O184   Zn191   2.022   .     S
O185   Zn192   2.022   .     S
O186   Zn191   1.948   .     S
O187   Zn192   1.948   .     S
O188   Zn191   1.950   .     S
O189   Zn192   1.950   .     S
C193   C196    1.457   .     S
C193   O233    1.290   .     A
C193   O227    1.295   .     A
C194   C196    1.414   .     A
C194   C205    1.492   .     S
C195   C215    1.417   .     A
C195   C216    1.414   .     A
C195   C204    1.457   .     S
C196   C214    1.417   .     A
C197   N222    1.369   .     A
C197   C206    1.443   .     S
C198   N221    1.369   .     A
C198   C207    1.443   .     S
C198   C343    1.424   .     S
C199   N222    1.369   .     A
C199   C208    1.443   .     S
C200   C209    1.443   .     S
C200   N221    1.369   .     A
C200   C341    1.424   .     S
C201   H217    1.086   .     S
C201   O238    1.220   .     D
C201   C214    1.492   .     S
C202   H218    1.086   .     S
C202   C215    1.492   .     S
C202   O228    1.220   .     D
C203   H219    1.086   .     S
C203   C216    1.492   .     S
C203   O229    1.221   .     D
C204   O232    1.290   .     A
C204   O231    1.295   .     A
C205   H220    1.086   .     S
C205   O230    1.221   .     D
C206   N223    1.158   .     T
C207   N224    1.158   .     T
C208   N225    1.158   .     T
C209   N226    1.158   .     T
C210   C212    1.365   .     S
C210   O234    1.277   .     A
C210   O237    1.278   .     A
C211   C213    1.365   .     S
C211   O235    1.277   .     A
C211   O236    1.278   .     A
C212   C1077   1.165   1_554 S
C213   C644    1.165   .     S
C215   C242    1.393   .     S
C216   C262    1.393   .     S
N221   Zn239   2.014   .     S
N222   Zn240   2.014   .     S
O227   Zn239   2.008   .     S
O231   Zn240   2.008   .     S
O232   Zn239   2.022   .     S
O233   Zn240   2.022   .     S
O234   Zn239   1.948   .     S
O235   Zn240   1.948   .     S
O236   Zn239   1.950   .     S
O237   Zn240   1.950   .     S
C241   C244    1.457   .     S
C241   O281    1.290   .     A
C241   O275    1.295   .     A
C242   C244    1.414   .     A
C242   C253    1.492   .     S
C243   C263    1.417   .     A
C243   C264    1.414   .     A
C243   C252    1.457   .     S
C244   C262    1.417   .     A
C245   N270    1.369   .     A
C245   C254    1.443   .     S
C246   N269    1.369   .     A
C246   C255    1.443   .     S
C246   C391    1.424   .     S
C247   N270    1.369   .     A
C247   C256    1.443   .     S
C248   C257    1.443   .     S
C248   N269    1.369   .     A
C248   C389    1.424   .     S
C249   H265    1.086   .     S
C249   O286    1.220   .     D
C249   C262    1.492   .     S
C250   H266    1.086   .     S
C250   C263    1.492   .     S
C250   O276    1.220   .     D
C251   H267    1.086   .     S
C251   C264    1.492   .     S
C251   O277    1.221   .     D
C252   O280    1.290   .     A
C252   O279    1.295   .     A
C253   H268    1.086   .     S
C253   O278    1.221   .     D
C254   N271    1.158   .     T
C255   N272    1.158   .     T
C256   N273    1.158   .     T
C257   N274    1.158   .     T
C258   C260    1.365   .     S
C258   O282    1.277   .     A
C258   O285    1.278   .     A
C259   C261    1.365   .     S
C259   O283    1.277   .     A
C259   O284    1.278   .     A
C260   C1125   1.165   1_554 S
C261   C692    1.165   .     S
C263   C146    1.393   1_655 S
C264   C166    1.393   1_655 S
N269   Zn287   2.014   .     S
N270   Zn288   2.014   .     S
O275   Zn287   2.008   .     S
O279   Zn288   2.008   .     S
O280   Zn287   2.022   .     S
O281   Zn288   2.022   .     S
O282   Zn287   1.948   .     S
O283   Zn288   1.948   .     S
O284   Zn287   1.950   .     S
O285   Zn288   1.950   .     S
C289   C292    1.457   .     S
C289   O329    1.290   .     A
C289   O323    1.295   .     A
C290   C292    1.414   .     A
C290   C301    1.492   .     S
C290   C407    1.393   1_455 S
C291   C311    1.417   .     A
C291   C312    1.414   .     A
C291   C300    1.457   .     S
C292   C310    1.417   .     A
C293   N318    1.369   .     A
C293   C302    1.443   .     S
C294   N317    1.369   .     A
C294   C303    1.443   .     S
C294   C7      1.424   1_565 S
C295   N318    1.369   .     A
C295   C304    1.443   .     S
C296   C305    1.443   .     S
C296   N317    1.369   .     A
C296   C5      1.424   1_565 S
C297   H313    1.086   .     S
C297   O334    1.220   .     D
C297   C310    1.492   .     S
C298   H314    1.086   .     S
C298   C311    1.492   .     S
C298   O324    1.220   .     D
C299   H315    1.086   .     S
C299   C312    1.492   .     S
C299   O325    1.221   .     D
C300   O328    1.290   .     A
C300   O327    1.295   .     A
C301   H316    1.086   .     S
C301   O326    1.221   .     D
C302   N319    1.158   .     T
C303   N320    1.158   .     T
C304   N321    1.158   .     T
C305   N322    1.158   .     T
C306   C308    1.365   .     S
C306   O330    1.277   .     A
C306   O333    1.278   .     A
C307   C309    1.365   .     S
C307   O331    1.277   .     A
C307   O332    1.278   .     A
C308   C1173   1.165   1_554 S
C309   C740    1.165   .     S
C310   C408    1.393   1_455 S
C311   C338    1.393   .     S
C312   C358    1.393   .     S
N317   Zn335   2.014   .     S
N318   Zn336   2.014   .     S
O323   Zn335   2.008   .     S
O327   Zn336   2.008   .     S
O328   Zn335   2.022   .     S
O329   Zn336   2.022   .     S
O330   Zn335   1.948   .     S
O331   Zn336   1.948   .     S
O332   Zn335   1.950   .     S
O333   Zn336   1.950   .     S
C337   C340    1.457   .     S
C337   O377    1.290   .     A
C337   O371    1.295   .     A
C338   C340    1.414   .     A
C338   C349    1.492   .     S
C339   C359    1.417   .     A
C339   C360    1.414   .     A
C339   C348    1.457   .     S
C340   C358    1.417   .     A
C341   N366    1.369   .     A
C341   C350    1.443   .     S
C342   N365    1.369   .     A
C342   C351    1.443   .     S
C342   C55     1.424   1_565 S
C343   N366    1.369   .     A
C343   C352    1.443   .     S
C344   C353    1.443   .     S
C344   N365    1.369   .     A
C344   C53     1.424   1_565 S
C345   H361    1.086   .     S
C345   O382    1.220   .     D
C345   C358    1.492   .     S
C346   H362    1.086   .     S
C346   C359    1.492   .     S
C346   O372    1.220   .     D
C347   H363    1.086   .     S
C347   C360    1.492   .     S
C347   O373    1.221   .     D
C348   O376    1.290   .     A
C348   O375    1.295   .     A
C349   H364    1.086   .     S
C349   O374    1.221   .     D
C350   N367    1.158   .     T
C351   N368    1.158   .     T
C352   N369    1.158   .     T
C353   N370    1.158   .     T
C354   C356    1.365   .     S
C354   O378    1.277   .     A
C354   O381    1.278   .     A
C355   C357    1.365   .     S
C355   O379    1.277   .     A
C355   O380    1.278   .     A
C356   C1221   1.165   1_554 S
C357   C788    1.165   .     S
C359   C386    1.393   .     S
C360   C406    1.393   .     S
N365   Zn383   2.014   .     S
N366   Zn384   2.014   .     S
O371   Zn383   2.008   .     S
O375   Zn384   2.008   .     S
O376   Zn383   2.022   .     S
O377   Zn384   2.022   .     S
O378   Zn383   1.948   .     S
O379   Zn384   1.948   .     S
O380   Zn383   1.950   .     S
O381   Zn384   1.950   .     S
C385   C388    1.457   .     S
C385   O425    1.290   .     A
C385   O419    1.295   .     A
C386   C388    1.414   .     A
C386   C397    1.492   .     S
C387   C407    1.417   .     A
C387   C408    1.414   .     A
C387   C396    1.457   .     S
C388   C406    1.417   .     A
C389   N414    1.369   .     A
C389   C398    1.443   .     S
C390   N413    1.369   .     A
C390   C399    1.443   .     S
C390   C103    1.424   1_565 S
C391   N414    1.369   .     A
C391   C400    1.443   .     S
C392   C401    1.443   .     S
C392   N413    1.369   .     A
C392   C101    1.424   1_565 S
C393   H409    1.086   .     S
C393   O430    1.220   .     D
C393   C406    1.492   .     S
C394   H410    1.086   .     S
C394   C407    1.492   .     S
C394   O420    1.220   .     D
C395   H411    1.086   .     S
C395   C408    1.492   .     S
C395   O421    1.221   .     D
C396   O424    1.290   .     A
C396   O423    1.295   .     A
C397   H412    1.086   .     S
C397   O422    1.221   .     D
C398   N415    1.158   .     T
C399   N416    1.158   .     T
C400   N417    1.158   .     T
C401   N418    1.158   .     T
C402   C404    1.365   .     S
C402   O426    1.277   .     A
C402   O429    1.278   .     A
C403   C405    1.365   .     S
C403   O427    1.277   .     A
C403   O428    1.278   .     A
C404   C1269   1.165   1_554 S
C405   C836    1.165   .     S
C407   C290    1.393   1_655 S
C408   C310    1.393   1_655 S
N413   Zn431   2.014   .     S
N414   Zn432   2.014   .     S
O419   Zn431   2.008   .     S
O423   Zn432   2.008   .     S
O424   Zn431   2.022   .     S
O425   Zn432   2.022   .     S
O426   Zn431   1.948   .     S
O427   Zn432   1.948   .     S
O428   Zn431   1.950   .     S
O429   Zn432   1.950   .     S
C433   C436    1.457   .     S
C433   O473    1.290   .     A
C433   O467    1.295   .     A
C434   C436    1.414   .     A
C434   C445    1.492   .     S
C434   C551    1.393   1_455 S
C435   C455    1.417   .     A
C435   C456    1.414   .     A
C435   C444    1.457   .     S
C436   C454    1.417   .     A
C437   N462    1.369   .     A
C437   C446    1.443   .     S
C437   C728    1.424   1_545 S
C438   N461    1.369   .     A
C438   C447    1.443   .     S
C438   C583    1.424   .     S
C439   N462    1.369   .     A
C439   C448    1.443   .     S
C439   C726    1.424   1_545 S
C440   C449    1.443   .     S
C440   N461    1.369   .     A
C440   C581    1.424   .     S
C441   H457    1.086   .     S
C441   O478    1.220   .     D
C441   C454    1.492   .     S
C442   H458    1.086   .     S
C442   C455    1.492   .     S
C442   O468    1.220   .     D
C443   H459    1.086   .     S
C443   C456    1.492   .     S
C443   O469    1.221   .     D
C444   O472    1.290   .     A
C444   O471    1.295   .     A
C445   H460    1.086   .     S
C445   O470    1.221   .     D
C446   N463    1.158   .     T
C447   N464    1.158   .     T
C448   N465    1.158   .     T
C449   N466    1.158   .     T
C450   C452    1.365   .     S
C450   O474    1.277   .     A
C450   O477    1.278   .     A
C451   C453    1.365   .     S
C451   O475    1.277   .     A
C451   O476    1.278   .     A
C453   C884    1.165   .     S
C454   C552    1.393   1_455 S
C455   C482    1.393   .     S
C456   C502    1.393   .     S
N461   Zn479   2.014   .     S
N462   Zn480   2.014   .     S
O467   Zn479   2.008   .     S
O471   Zn480   2.008   .     S
O472   Zn479   2.022   .     S
O473   Zn480   2.022   .     S
O474   Zn479   1.948   .     S
O475   Zn480   1.948   .     S
O476   Zn479   1.950   .     S
O477   Zn480   1.950   .     S
C481   C484    1.457   .     S
C481   O521    1.290   .     A
C481   O515    1.295   .     A
C482   C484    1.414   .     A
C482   C493    1.492   .     S
C483   C503    1.417   .     A
C483   C504    1.414   .     A
C483   C492    1.457   .     S
C484   C502    1.417   .     A
C485   N510    1.369   .     A
C485   C494    1.443   .     S
C485   C776    1.424   1_545 S
C486   N509    1.369   .     A
C486   C495    1.443   .     S
C486   C631    1.424   .     S
C487   N510    1.369   .     A
C487   C496    1.443   .     S
C487   C774    1.424   1_545 S
C488   C497    1.443   .     S
C488   N509    1.369   .     A
C488   C629    1.424   .     S
C489   H505    1.086   .     S
C489   O526    1.220   .     D
C489   C502    1.492   .     S
C490   H506    1.086   .     S
C490   C503    1.492   .     S
C490   O516    1.220   .     D
C491   H507    1.086   .     S
C491   C504    1.492   .     S
C491   O517    1.221   .     D
C492   O520    1.290   .     A
C492   O519    1.295   .     A
C493   H508    1.086   .     S
C493   O518    1.221   .     D
C494   N511    1.158   .     T
C495   N512    1.158   .     T
C496   N513    1.158   .     T
C497   N514    1.158   .     T
C498   C500    1.365   .     S
C498   O522    1.277   .     A
C498   O525    1.278   .     A
C499   C501    1.365   .     S
C499   O523    1.277   .     A
C499   O524    1.278   .     A
C501   C932    1.165   .     S
C503   C530    1.393   .     S
C504   C550    1.393   .     S
N509   Zn527   2.014   .     S
N510   Zn528   2.014   .     S
O515   Zn527   2.008   .     S
O519   Zn528   2.008   .     S
O520   Zn527   2.022   .     S
O521   Zn528   2.022   .     S
O522   Zn527   1.948   .     S
O523   Zn528   1.948   .     S
O524   Zn527   1.950   .     S
O525   Zn528   1.950   .     S
C529   C532    1.457   .     S
C529   O569    1.290   .     A
C529   O563    1.295   .     A
C530   C532    1.414   .     A
C530   C541    1.492   .     S
C531   C551    1.417   .     A
C531   C552    1.414   .     A
C531   C540    1.457   .     S
C532   C550    1.417   .     A
C533   N558    1.369   .     A
C533   C542    1.443   .     S
C533   C824    1.424   1_545 S
C534   N557    1.369   .     A
C534   C543    1.443   .     S
C534   C679    1.424   .     S
C535   N558    1.369   .     A
C535   C544    1.443   .     S
C535   C822    1.424   1_545 S
C536   C545    1.443   .     S
C536   N557    1.369   .     A
C536   C677    1.424   .     S
C537   H553    1.086   .     S
C537   O574    1.220   .     D
C537   C550    1.492   .     S
C538   H554    1.086   .     S
C538   C551    1.492   .     S
C538   O564    1.220   .     D
C539   H555    1.086   .     S
C539   C552    1.492   .     S
C539   O565    1.221   .     D
C540   O568    1.290   .     A
C540   O567    1.295   .     A
C541   H556    1.086   .     S
C541   O566    1.221   .     D
C542   N559    1.158   .     T
C543   N560    1.158   .     T
C544   N561    1.158   .     T
C545   N562    1.158   .     T
C546   C548    1.365   .     S
C546   O570    1.277   .     A
C546   O573    1.278   .     A
C547   C549    1.365   .     S
C547   O571    1.277   .     A
C547   O572    1.278   .     A
C549   C980    1.165   .     S
C551   C434    1.393   1_655 S
C552   C454    1.393   1_655 S
N557   Zn575   2.014   .     S
N558   Zn576   2.014   .     S
O563   Zn575   2.008   .     S
O567   Zn576   2.008   .     S
O568   Zn575   2.022   .     S
O569   Zn576   2.022   .     S
O570   Zn575   1.948   .     S
O571   Zn576   1.948   .     S
O572   Zn575   1.950   .     S
O573   Zn576   1.950   .     S
C577   C580    1.457   .     S
C577   O617    1.290   .     A
C577   O611    1.295   .     A
C578   C580    1.414   .     A
C578   C589    1.492   .     S
C578   C695    1.393   1_455 S
C579   C599    1.417   .     A
C579   C600    1.414   .     A
C579   C588    1.457   .     S
C580   C598    1.417   .     A
C581   N606    1.369   .     A
C581   C590    1.443   .     S
C582   N605    1.369   .     A
C582   C591    1.443   .     S
C582   C727    1.424   .     S
C583   N606    1.369   .     A
C583   C592    1.443   .     S
C584   C593    1.443   .     S
C584   N605    1.369   .     A
C584   C725    1.424   .     S
C585   H601    1.086   .     S
C585   O622    1.220   .     D
C585   C598    1.492   .     S
C586   H602    1.086   .     S
C586   C599    1.492   .     S
C586   O612    1.220   .     D
C587   H603    1.086   .     S
C587   C600    1.492   .     S
C587   O613    1.221   .     D
C588   O616    1.290   .     A
C588   O615    1.295   .     A
C589   H604    1.086   .     S
C589   O614    1.221   .     D
C590   N607    1.158   .     T
C591   N608    1.158   .     T
C592   N609    1.158   .     T
C593   N610    1.158   .     T
C594   C596    1.365   .     S
C594   O618    1.277   .     A
C594   O621    1.278   .     A
C595   C597    1.365   .     S
C595   O619    1.277   .     A
C595   O620    1.278   .     A
C597   C1028   1.165   .     S
C598   C696    1.393   1_455 S
C599   C626    1.393   .     S
C600   C646    1.393   .     S
N605   Zn623   2.014   .     S
N606   Zn624   2.014   .     S
O611   Zn623   2.008   .     S
O615   Zn624   2.008   .     S
O616   Zn623   2.022   .     S
O617   Zn624   2.022   .     S
O618   Zn623   1.948   .     S
O619   Zn624   1.948   .     S
O620   Zn623   1.950   .     S
O621   Zn624   1.950   .     S
C625   C628    1.457   .     S
C625   O665    1.290   .     A
C625   O659    1.295   .     A
C626   C628    1.414   .     A
C626   C637    1.492   .     S
C627   C647    1.417   .     A
C627   C648    1.414   .     A
C627   C636    1.457   .     S
C628   C646    1.417   .     A
C629   N654    1.369   .     A
C629   C638    1.443   .     S
C630   N653    1.369   .     A
C630   C639    1.443   .     S
C630   C775    1.424   .     S
C631   N654    1.369   .     A
C631   C640    1.443   .     S
C632   C641    1.443   .     S
C632   N653    1.369   .     A
C632   C773    1.424   .     S
C633   H649    1.086   .     S
C633   O670    1.220   .     D
C633   C646    1.492   .     S
C634   H650    1.086   .     S
C634   C647    1.492   .     S
C634   O660    1.220   .     D
C635   H651    1.086   .     S
C635   C648    1.492   .     S
C635   O661    1.221   .     D
C636   O664    1.290   .     A
C636   O663    1.295   .     A
C637   H652    1.086   .     S
C637   O662    1.221   .     D
C638   N655    1.158   .     T
C639   N656    1.158   .     T
C640   N657    1.158   .     T
C641   N658    1.158   .     T
C642   C644    1.365   .     S
C642   O666    1.277   .     A
C642   O669    1.278   .     A
C643   C645    1.365   .     S
C643   O667    1.277   .     A
C643   O668    1.278   .     A
C645   C1076   1.165   .     S
C647   C674    1.393   .     S
C648   C694    1.393   .     S
N653   Zn671   2.014   .     S
N654   Zn672   2.014   .     S
O659   Zn671   2.008   .     S
O663   Zn672   2.008   .     S
O664   Zn671   2.022   .     S
O665   Zn672   2.022   .     S
O666   Zn671   1.948   .     S
O667   Zn672   1.948   .     S
O668   Zn671   1.950   .     S
O669   Zn672   1.950   .     S
C673   C676    1.457   .     S
C673   O713    1.290   .     A
C673   O707    1.295   .     A
C674   C676    1.414   .     A
C674   C685    1.492   .     S
C675   C695    1.417   .     A
C675   C696    1.414   .     A
C675   C684    1.457   .     S
C676   C694    1.417   .     A
C677   N702    1.369   .     A
C677   C686    1.443   .     S
C678   N701    1.369   .     A
C678   C687    1.443   .     S
C678   C823    1.424   .     S
C679   N702    1.369   .     A
C679   C688    1.443   .     S
C680   C689    1.443   .     S
C680   N701    1.369   .     A
C680   C821    1.424   .     S
C681   H697    1.086   .     S
C681   O718    1.220   .     D
C681   C694    1.492   .     S
C682   H698    1.086   .     S
C682   C695    1.492   .     S
C682   O708    1.220   .     D
C683   H699    1.086   .     S
C683   C696    1.492   .     S
C683   O709    1.221   .     D
C684   O712    1.290   .     A
C684   O711    1.295   .     A
C685   H700    1.086   .     S
C685   O710    1.221   .     D
C686   N703    1.158   .     T
C687   N704    1.158   .     T
C688   N705    1.158   .     T
C689   N706    1.158   .     T
C690   C692    1.365   .     S
C690   O714    1.277   .     A
C690   O717    1.278   .     A
C691   C693    1.365   .     S
C691   O715    1.277   .     A
C691   O716    1.278   .     A
C693   C1124   1.165   .     S
C695   C578    1.393   1_655 S
C696   C598    1.393   1_655 S
N701   Zn719   2.014   .     S
N702   Zn720   2.014   .     S
O707   Zn719   2.008   .     S
O711   Zn720   2.008   .     S
O712   Zn719   2.022   .     S
O713   Zn720   2.022   .     S
O714   Zn719   1.948   .     S
O715   Zn720   1.948   .     S
O716   Zn719   1.950   .     S
O717   Zn720   1.950   .     S
C721   C724    1.457   .     S
C721   O761    1.290   .     A
C721   O755    1.295   .     A
C722   C724    1.414   .     A
C722   C733    1.492   .     S
C722   C839    1.393   1_455 S
C723   C743    1.417   .     A
C723   C744    1.414   .     A
C723   C732    1.457   .     S
C724   C742    1.417   .     A
C725   N750    1.369   .     A
C725   C734    1.443   .     S
C726   N749    1.369   .     A
C726   C735    1.443   .     S
C726   C439    1.424   1_565 S
C727   N750    1.369   .     A
C727   C736    1.443   .     S
C728   C737    1.443   .     S
C728   N749    1.369   .     A
C728   C437    1.424   1_565 S
C729   H745    1.086   .     S
C729   O766    1.220   .     D
C729   C742    1.492   .     S
C730   H746    1.086   .     S
C730   C743    1.492   .     S
C730   O756    1.220   .     D
C731   H747    1.086   .     S
C731   C744    1.492   .     S
C731   O757    1.221   .     D
C732   O760    1.290   .     A
C732   O759    1.295   .     A
C733   H748    1.086   .     S
C733   O758    1.221   .     D
C734   N751    1.158   .     T
C735   N752    1.158   .     T
C736   N753    1.158   .     T
C737   N754    1.158   .     T
C738   C740    1.365   .     S
C738   O762    1.277   .     A
C738   O765    1.278   .     A
C739   C741    1.365   .     S
C739   O763    1.277   .     A
C739   O764    1.278   .     A
C741   C1172   1.165   .     S
C742   C840    1.393   1_455 S
C743   C770    1.393   .     S
C744   C790    1.393   .     S
N749   Zn767   2.014   .     S
N750   Zn768   2.014   .     S
O755   Zn767   2.008   .     S
O759   Zn768   2.008   .     S
O760   Zn767   2.022   .     S
O761   Zn768   2.022   .     S
O762   Zn767   1.948   .     S
O763   Zn768   1.948   .     S
O764   Zn767   1.950   .     S
O765   Zn768   1.950   .     S
C769   C772    1.457   .     S
C769   O809    1.290   .     A
C769   O803    1.295   .     A
C770   C772    1.414   .     A
C770   C781    1.492   .     S
C771   C791    1.417   .     A
C771   C792    1.414   .     A
C771   C780    1.457   .     S
C772   C790    1.417   .     A
C773   N798    1.369   .     A
C773   C782    1.443   .     S
C774   N797    1.369   .     A
C774   C783    1.443   .     S
C774   C487    1.424   1_565 S
C775   N798    1.369   .     A
C775   C784    1.443   .     S
C776   C785    1.443   .     S
C776   N797    1.369   .     A
C776   C485    1.424   1_565 S
C777   H793    1.086   .     S
C777   O814    1.220   .     D
C777   C790    1.492   .     S
C778   H794    1.086   .     S
C778   C791    1.492   .     S
C778   O804    1.220   .     D
C779   H795    1.086   .     S
C779   C792    1.492   .     S
C779   O805    1.221   .     D
C780   O808    1.290   .     A
C780   O807    1.295   .     A
C781   H796    1.086   .     S
C781   O806    1.221   .     D
C782   N799    1.158   .     T
C783   N800    1.158   .     T
C784   N801    1.158   .     T
C785   N802    1.158   .     T
C786   C788    1.365   .     S
C786   O810    1.277   .     A
C786   O813    1.278   .     A
C787   C789    1.365   .     S
C787   O811    1.277   .     A
C787   O812    1.278   .     A
C789   C1220   1.165   .     S
C791   C818    1.393   .     S
C792   C838    1.393   .     S
N797   Zn815   2.014   .     S
N798   Zn816   2.014   .     S
O803   Zn815   2.008   .     S
O807   Zn816   2.008   .     S
O808   Zn815   2.022   .     S
O809   Zn816   2.022   .     S
O810   Zn815   1.948   .     S
O811   Zn816   1.948   .     S
O812   Zn815   1.950   .     S
O813   Zn816   1.950   .     S
C817   C820    1.457   .     S
C817   O857    1.290   .     A
C817   O851    1.295   .     A
C818   C820    1.414   .     A
C818   C829    1.492   .     S
C819   C839    1.417   .     A
C819   C840    1.414   .     A
C819   C828    1.457   .     S
C820   C838    1.417   .     A
C821   N846    1.369   .     A
C821   C830    1.443   .     S
C822   N845    1.369   .     A
C822   C831    1.443   .     S
C822   C535    1.424   1_565 S
C823   N846    1.369   .     A
C823   C832    1.443   .     S
C824   C833    1.443   .     S
C824   N845    1.369   .     A
C824   C533    1.424   1_565 S
C825   H841    1.086   .     S
C825   O862    1.220   .     D
C825   C838    1.492   .     S
C826   H842    1.086   .     S
C826   C839    1.492   .     S
C826   O852    1.220   .     D
C827   H843    1.086   .     S
C827   C840    1.492   .     S
C827   O853    1.221   .     D
C828   O856    1.290   .     A
C828   O855    1.295   .     A
C829   H844    1.086   .     S
C829   O854    1.221   .     D
C830   N847    1.158   .     T
C831   N848    1.158   .     T
C832   N849    1.158   .     T
C833   N850    1.158   .     T
C834   C836    1.365   .     S
C834   O858    1.277   .     A
C834   O861    1.278   .     A
C835   C837    1.365   .     S
C835   O859    1.277   .     A
C835   O860    1.278   .     A
C837   C1268   1.165   .     S
C839   C722    1.393   1_655 S
C840   C742    1.393   1_655 S
N845   Zn863   2.014   .     S
N846   Zn864   2.014   .     S
O851   Zn863   2.008   .     S
O855   Zn864   2.008   .     S
O856   Zn863   2.022   .     S
O857   Zn864   2.022   .     S
O858   Zn863   1.948   .     S
O859   Zn864   1.948   .     S
O860   Zn863   1.950   .     S
O861   Zn864   1.950   .     S
C865   C868    1.457   .     S
C865   O905    1.290   .     A
C865   O899    1.295   .     A
C866   C868    1.414   .     A
C866   C877    1.492   .     S
C866   C983    1.393   1_455 S
C867   C887    1.417   .     A
C867   C888    1.414   .     A
C867   C876    1.457   .     S
C868   C886    1.417   .     A
C869   N894    1.369   .     A
C869   C878    1.443   .     S
C869   C1160   1.424   1_545 S
C870   N893    1.369   .     A
C870   C879    1.443   .     S
C870   C1015   1.424   .     S
C871   N894    1.369   .     A
C871   C880    1.443   .     S
C871   C1158   1.424   1_545 S
C872   C881    1.443   .     S
C872   N893    1.369   .     A
C872   C1013   1.424   .     S
C873   H889    1.086   .     S
C873   O910    1.220   .     D
C873   C886    1.492   .     S
C874   H890    1.086   .     S
C874   C887    1.492   .     S
C874   O900    1.220   .     D
C875   H891    1.086   .     S
C875   C888    1.492   .     S
C875   O901    1.221   .     D
C876   O904    1.290   .     A
C876   O903    1.295   .     A
C877   H892    1.086   .     S
C877   O902    1.221   .     D
C878   N895    1.158   .     T
C879   N896    1.158   .     T
C880   N897    1.158   .     T
C881   N898    1.158   .     T
C882   C884    1.365   .     S
C882   O906    1.277   .     A
C882   O909    1.278   .     A
C883   C885    1.365   .     S
C883   O907    1.277   .     A
C883   O908    1.278   .     A
C885   C20     1.165   1_556 S
C886   C984    1.393   1_455 S
C887   C914    1.393   .     S
C888   C934    1.393   .     S
N893   Zn911   2.014   .     S
N894   Zn912   2.014   .     S
O899   Zn911   2.008   .     S
O903   Zn912   2.008   .     S
O904   Zn911   2.022   .     S
O905   Zn912   2.022   .     S
O906   Zn911   1.948   .     S
O907   Zn912   1.948   .     S
O908   Zn911   1.950   .     S
O909   Zn912   1.950   .     S
C913   C916    1.457   .     S
C913   O953    1.290   .     A
C913   O947    1.295   .     A
C914   C916    1.414   .     A
C914   C925    1.492   .     S
C915   C935    1.417   .     A
C915   C936    1.414   .     A
C915   C924    1.457   .     S
C916   C934    1.417   .     A
C917   N942    1.369   .     A
C917   C926    1.443   .     S
C917   C1208   1.424   1_545 S
C918   N941    1.369   .     A
C918   C927    1.443   .     S
C918   C1063   1.424   .     S
C919   N942    1.369   .     A
C919   C928    1.443   .     S
C919   C1206   1.424   1_545 S
C920   C929    1.443   .     S
C920   N941    1.369   .     A
C920   C1061   1.424   .     S
C921   H937    1.086   .     S
C921   O958    1.220   .     D
C921   C934    1.492   .     S
C922   H938    1.086   .     S
C922   C935    1.492   .     S
C922   O948    1.220   .     D
C923   H939    1.086   .     S
C923   C936    1.492   .     S
C923   O949    1.221   .     D
C924   O952    1.290   .     A
C924   O951    1.295   .     A
C925   H940    1.086   .     S
C925   O950    1.221   .     D
C926   N943    1.158   .     T
C927   N944    1.158   .     T
C928   N945    1.158   .     T
C929   N946    1.158   .     T
C930   C932    1.365   .     S
C930   O954    1.277   .     A
C930   O957    1.278   .     A
C931   C933    1.365   .     S
C931   O955    1.277   .     A
C931   O956    1.278   .     A
C933   C68     1.165   1_556 S
C935   C962    1.393   .     S
C936   C982    1.393   .     S
N941   Zn959   2.014   .     S
N942   Zn960   2.014   .     S
O947   Zn959   2.008   .     S
O951   Zn960   2.008   .     S
O952   Zn959   2.022   .     S
O953   Zn960   2.022   .     S
O954   Zn959   1.948   .     S
O955   Zn960   1.948   .     S
O956   Zn959   1.950   .     S
O957   Zn960   1.950   .     S
C961   C964    1.457   .     S
C961   O1001   1.290   .     A
C961   O995    1.295   .     A
C962   C964    1.414   .     A
C962   C973    1.492   .     S
C963   C983    1.417   .     A
C963   C984    1.414   .     A
C963   C972    1.457   .     S
C964   C982    1.417   .     A
C965   N990    1.369   .     A
C965   C974    1.443   .     S
C965   C1256   1.424   1_545 S
C966   N989    1.369   .     A
C966   C975    1.443   .     S
C966   C1111   1.424   .     S
C967   N990    1.369   .     A
C967   C976    1.443   .     S
C967   C1254   1.424   1_545 S
C968   C977    1.443   .     S
C968   N989    1.369   .     A
C968   C1109   1.424   .     S
C969   H985    1.086   .     S
C969   O1006   1.220   .     D
C969   C982    1.492   .     S
C970   H986    1.086   .     S
C970   C983    1.492   .     S
C970   O996    1.220   .     D
C971   H987    1.086   .     S
C971   C984    1.492   .     S
C971   O997    1.221   .     D
C972   O1000   1.290   .     A
C972   O999    1.295   .     A
C973   H988    1.086   .     S
C973   O998    1.221   .     D
C974   N991    1.158   .     T
C975   N992    1.158   .     T
C976   N993    1.158   .     T
C977   N994    1.158   .     T
C978   C980    1.365   .     S
C978   O1002   1.277   .     A
C978   O1005   1.278   .     A
C979   C981    1.365   .     S
C979   O1003   1.277   .     A
C979   O1004   1.278   .     A
C981   C116    1.165   1_556 S
C983   C866    1.393   1_655 S
C984   C886    1.393   1_655 S
N989   Zn1007  2.014   .     S
N990   Zn1008  2.014   .     S
O995   Zn1007  2.008   .     S
O999   Zn1008  2.008   .     S
O1000  Zn1007  2.022   .     S
O1001  Zn1008  2.022   .     S
O1002  Zn1007  1.948   .     S
O1003  Zn1008  1.948   .     S
O1004  Zn1007  1.950   .     S
O1005  Zn1008  1.950   .     S
C1009  C1012   1.457   .     S
C1009  O1049   1.290   .     A
C1009  O1043   1.295   .     A
C1010  C1012   1.414   .     A
C1010  C1021   1.492   .     S
C1010  C1127   1.393   1_455 S
C1011  C1031   1.417   .     A
C1011  C1032   1.414   .     A
C1011  C1020   1.457   .     S
C1012  C1030   1.417   .     A
C1013  N1038   1.369   .     A
C1013  C1022   1.443   .     S
C1014  N1037   1.369   .     A
C1014  C1023   1.443   .     S
C1014  C1159   1.424   .     S
C1015  N1038   1.369   .     A
C1015  C1024   1.443   .     S
C1016  C1025   1.443   .     S
C1016  N1037   1.369   .     A
C1016  C1157   1.424   .     S
C1017  H1033   1.086   .     S
C1017  O1054   1.220   .     D
C1017  C1030   1.492   .     S
C1018  H1034   1.086   .     S
C1018  C1031   1.492   .     S
C1018  O1044   1.220   .     D
C1019  H1035   1.086   .     S
C1019  C1032   1.492   .     S
C1019  O1045   1.221   .     D
C1020  O1048   1.290   .     A
C1020  O1047   1.295   .     A
C1021  H1036   1.086   .     S
C1021  O1046   1.221   .     D
C1022  N1039   1.158   .     T
C1023  N1040   1.158   .     T
C1024  N1041   1.158   .     T
C1025  N1042   1.158   .     T
C1026  C1028   1.365   .     S
C1026  O1050   1.277   .     A
C1026  O1053   1.278   .     A
C1027  C1029   1.365   .     S
C1027  O1051   1.277   .     A
C1027  O1052   1.278   .     A
C1029  C164    1.165   1_556 S
C1030  C1128   1.393   1_455 S
C1031  C1058   1.393   .     S
C1032  C1078   1.393   .     S
N1037  Zn1055  2.014   .     S
N1038  Zn1056  2.014   .     S
O1043  Zn1055  2.008   .     S
O1047  Zn1056  2.008   .     S
O1048  Zn1055  2.022   .     S
O1049  Zn1056  2.022   .     S
O1050  Zn1055  1.948   .     S
O1051  Zn1056  1.948   .     S
O1052  Zn1055  1.950   .     S
O1053  Zn1056  1.950   .     S
C1057  C1060   1.457   .     S
C1057  O1097   1.290   .     A
C1057  O1091   1.295   .     A
C1058  C1060   1.414   .     A
C1058  C1069   1.492   .     S
C1059  C1079   1.417   .     A
C1059  C1080   1.414   .     A
C1059  C1068   1.457   .     S
C1060  C1078   1.417   .     A
C1061  N1086   1.369   .     A
C1061  C1070   1.443   .     S
C1062  N1085   1.369   .     A
C1062  C1071   1.443   .     S
C1062  C1207   1.424   .     S
C1063  N1086   1.369   .     A
C1063  C1072   1.443   .     S
C1064  C1073   1.443   .     S
C1064  N1085   1.369   .     A
C1064  C1205   1.424   .     S
C1065  H1081   1.086   .     S
C1065  O1102   1.220   .     D
C1065  C1078   1.492   .     S
C1066  H1082   1.086   .     S
C1066  C1079   1.492   .     S
C1066  O1092   1.220   .     D
C1067  H1083   1.086   .     S
C1067  C1080   1.492   .     S
C1067  O1093   1.221   .     D
C1068  O1096   1.290   .     A
C1068  O1095   1.295   .     A
C1069  H1084   1.086   .     S
C1069  O1094   1.221   .     D
C1070  N1087   1.158   .     T
C1071  N1088   1.158   .     T
C1072  N1089   1.158   .     T
C1073  N1090   1.158   .     T
C1074  C1076   1.365   .     S
C1074  O1098   1.277   .     A
C1074  O1101   1.278   .     A
C1075  C1077   1.365   .     S
C1075  O1099   1.277   .     A
C1075  O1100   1.278   .     A
C1077  C212    1.165   1_556 S
C1079  C1106   1.393   .     S
C1080  C1126   1.393   .     S
N1085  Zn1103  2.014   .     S
N1086  Zn1104  2.014   .     S
O1091  Zn1103  2.008   .     S
O1095  Zn1104  2.008   .     S
O1096  Zn1103  2.022   .     S
O1097  Zn1104  2.022   .     S
O1098  Zn1103  1.948   .     S
O1099  Zn1104  1.948   .     S
O1100  Zn1103  1.950   .     S
O1101  Zn1104  1.950   .     S
C1105  C1108   1.457   .     S
C1105  O1145   1.290   .     A
C1105  O1139   1.295   .     A
C1106  C1108   1.414   .     A
C1106  C1117   1.492   .     S
C1107  C1127   1.417   .     A
C1107  C1128   1.414   .     A
C1107  C1116   1.457   .     S
C1108  C1126   1.417   .     A
C1109  N1134   1.369   .     A
C1109  C1118   1.443   .     S
C1110  N1133   1.369   .     A
C1110  C1119   1.443   .     S
C1110  C1255   1.424   .     S
C1111  N1134   1.369   .     A
C1111  C1120   1.443   .     S
C1112  C1121   1.443   .     S
C1112  N1133   1.369   .     A
C1112  C1253   1.424   .     S
C1113  H1129   1.086   .     S
C1113  O1150   1.220   .     D
C1113  C1126   1.492   .     S
C1114  H1130   1.086   .     S
C1114  C1127   1.492   .     S
C1114  O1140   1.220   .     D
C1115  H1131   1.086   .     S
C1115  C1128   1.492   .     S
C1115  O1141   1.221   .     D
C1116  O1144   1.290   .     A
C1116  O1143   1.295   .     A
C1117  H1132   1.086   .     S
C1117  O1142   1.221   .     D
C1118  N1135   1.158   .     T
C1119  N1136   1.158   .     T
C1120  N1137   1.158   .     T
C1121  N1138   1.158   .     T
C1122  C1124   1.365   .     S
C1122  O1146   1.277   .     A
C1122  O1149   1.278   .     A
C1123  C1125   1.365   .     S
C1123  O1147   1.277   .     A
C1123  O1148   1.278   .     A
C1125  C260    1.165   1_556 S
C1127  C1010   1.393   1_655 S
C1128  C1030   1.393   1_655 S
N1133  Zn1151  2.014   .     S
N1134  Zn1152  2.014   .     S
O1139  Zn1151  2.008   .     S
O1143  Zn1152  2.008   .     S
O1144  Zn1151  2.022   .     S
O1145  Zn1152  2.022   .     S
O1146  Zn1151  1.948   .     S
O1147  Zn1152  1.948   .     S
O1148  Zn1151  1.950   .     S
O1149  Zn1152  1.950   .     S
C1153  C1156   1.457   .     S
C1153  O1193   1.290   .     A
C1153  O1187   1.295   .     A
C1154  C1156   1.414   .     A
C1154  C1165   1.492   .     S
C1154  C1271   1.393   1_455 S
C1155  C1175   1.417   .     A
C1155  C1176   1.414   .     A
C1155  C1164   1.457   .     S
C1156  C1174   1.417   .     A
C1157  N1182   1.369   .     A
C1157  C1166   1.443   .     S
C1158  N1181   1.369   .     A
C1158  C1167   1.443   .     S
C1158  C871    1.424   1_565 S
C1159  N1182   1.369   .     A
C1159  C1168   1.443   .     S
C1160  C1169   1.443   .     S
C1160  N1181   1.369   .     A
C1160  C869    1.424   1_565 S
C1161  H1177   1.086   .     S
C1161  O1198   1.220   .     D
C1161  C1174   1.492   .     S
C1162  H1178   1.086   .     S
C1162  C1175   1.492   .     S
C1162  O1188   1.220   .     D
C1163  H1179   1.086   .     S
C1163  C1176   1.492   .     S
C1163  O1189   1.221   .     D
C1164  O1192   1.290   .     A
C1164  O1191   1.295   .     A
C1165  H1180   1.086   .     S
C1165  O1190   1.221   .     D
C1166  N1183   1.158   .     T
C1167  N1184   1.158   .     T
C1168  N1185   1.158   .     T
C1169  N1186   1.158   .     T
C1170  C1172   1.365   .     S
C1170  O1194   1.277   .     A
C1170  O1197   1.278   .     A
C1171  C1173   1.365   .     S
C1171  O1195   1.277   .     A
C1171  O1196   1.278   .     A
C1173  C308    1.165   1_556 S
C1174  C1272   1.393   1_455 S
C1175  C1202   1.393   .     S
C1176  C1222   1.393   .     S
N1181  Zn1199  2.014   .     S
N1182  Zn1200  2.014   .     S
O1187  Zn1199  2.008   .     S
O1191  Zn1200  2.008   .     S
O1192  Zn1199  2.022   .     S
O1193  Zn1200  2.022   .     S
O1194  Zn1199  1.948   .     S
O1195  Zn1200  1.948   .     S
O1196  Zn1199  1.950   .     S
O1197  Zn1200  1.950   .     S
C1201  C1204   1.457   .     S
C1201  O1241   1.290   .     A
C1201  O1235   1.295   .     A
C1202  C1204   1.414   .     A
C1202  C1213   1.492   .     S
C1203  C1223   1.417   .     A
C1203  C1224   1.414   .     A
C1203  C1212   1.457   .     S
C1204  C1222   1.417   .     A
C1205  N1230   1.369   .     A
C1205  C1214   1.443   .     S
C1206  N1229   1.369   .     A
C1206  C1215   1.443   .     S
C1206  C919    1.424   1_565 S
C1207  N1230   1.369   .     A
C1207  C1216   1.443   .     S
C1208  C1217   1.443   .     S
C1208  N1229   1.369   .     A
C1208  C917    1.424   1_565 S
C1209  H1225   1.086   .     S
C1209  O1246   1.220   .     D
C1209  C1222   1.492   .     S
C1210  H1226   1.086   .     S
C1210  C1223   1.492   .     S
C1210  O1236   1.220   .     D
C1211  H1227   1.086   .     S
C1211  C1224   1.492   .     S
C1211  O1237   1.221   .     D
C1212  O1240   1.290   .     A
C1212  O1239   1.295   .     A
C1213  H1228   1.086   .     S
C1213  O1238   1.221   .     D
C1214  N1231   1.158   .     T
C1215  N1232   1.158   .     T
C1216  N1233   1.158   .     T
C1217  N1234   1.158   .     T
C1218  C1220   1.365   .     S
C1218  O1242   1.277   .     A
C1218  O1245   1.278   .     A
C1219  C1221   1.365   .     S
C1219  O1243   1.277   .     A
C1219  O1244   1.278   .     A
C1221  C356    1.165   1_556 S
C1223  C1250   1.393   .     S
C1224  C1270   1.393   .     S
N1229  Zn1247  2.014   .     S
N1230  Zn1248  2.014   .     S
O1235  Zn1247  2.008   .     S
O1239  Zn1248  2.008   .     S
O1240  Zn1247  2.022   .     S
O1241  Zn1248  2.022   .     S
O1242  Zn1247  1.948   .     S
O1243  Zn1248  1.948   .     S
O1244  Zn1247  1.950   .     S
O1245  Zn1248  1.950   .     S
C1249  C1252   1.457   .     S
C1249  O1289   1.290   .     A
C1249  O1283   1.295   .     A
C1250  C1252   1.414   .     A
C1250  C1261   1.492   .     S
C1251  C1271   1.417   .     A
C1251  C1272   1.414   .     A
C1251  C1260   1.457   .     S
C1252  C1270   1.417   .     A
C1253  N1278   1.369   .     A
C1253  C1262   1.443   .     S
C1254  N1277   1.369   .     A
C1254  C1263   1.443   .     S
C1254  C967    1.424   1_565 S
C1255  N1278   1.369   .     A
C1255  C1264   1.443   .     S
C1256  C1265   1.443   .     S
C1256  N1277   1.369   .     A
C1256  C965    1.424   1_565 S
C1257  H1273   1.086   .     S
C1257  O1294   1.220   .     D
C1257  C1270   1.492   .     S
C1258  H1274   1.086   .     S
C1258  C1271   1.492   .     S
C1258  O1284   1.220   .     D
C1259  H1275   1.086   .     S
C1259  C1272   1.492   .     S
C1259  O1285   1.221   .     D
C1260  O1288   1.290   .     A
C1260  O1287   1.295   .     A
C1261  H1276   1.086   .     S
C1261  O1286   1.221   .     D
C1262  N1279   1.158   .     T
C1263  N1280   1.158   .     T
C1264  N1281   1.158   .     T
C1265  N1282   1.158   .     T
C1266  C1268   1.365   .     S
C1266  O1290   1.277   .     A
C1266  O1293   1.278   .     A
C1267  C1269   1.365   .     S
C1267  O1291   1.277   .     A
C1267  O1292   1.278   .     A
C1269  C404    1.165   1_556 S
C1271  C1154   1.393   1_655 S
C1272  C1174   1.393   1_655 S
N1277  Zn1295  2.014   .     S
N1278  Zn1296  2.014   .     S
O1283  Zn1295  2.008   .     S
O1287  Zn1296  2.008   .     S
O1288  Zn1295  2.022   .     S
O1289  Zn1296  2.022   .     S
O1290  Zn1295  1.948   .     S
O1291  Zn1296  1.948   .     S
O1292  Zn1295  1.950   .     S
O1293  Zn1296  1.950   .     S
