data_str_m2_o10_o18_pcu_sym.113
_audit_creation_date              2020-01-03
_audit_creation_method            'Materials Studio'
_symmetry_space_group_name_H-M    'P1'
_symmetry_Int_Tables_number       1
_symmetry_cell_setting            triclinic
loop_
_symmetry_equiv_pos_as_xyz
  x,y,z
_cell_length_a                    22.4663
_cell_length_b                    26.0447
_cell_length_c                    31.4055
_cell_angle_alpha                 95.6742
_cell_angle_beta                  75.7200
_cell_angle_gamma                 103.3476
loop_
_atom_site_label
_atom_site_type_symbol
_atom_site_fract_x
_atom_site_fract_y
_atom_site_fract_z
_atom_site_U_iso_or_equiv
_atom_site_adp_type
_atom_site_occupancy
C1     C     0.18171   0.26672   0.25143   0.00000  Uiso   1.00
C2     C     0.15162   0.06662   0.24859   0.00000  Uiso   1.00
C3     C     0.10589   0.10633   0.03390   0.00000  Uiso   1.00
C4     C     0.24567   0.18019   0.45690   0.00000  Uiso   1.00
C5     C     0.06337   0.09102   0.00720   0.00000  Uiso   1.00
C6     C     0.28645   0.20012   0.48403   0.00000  Uiso   1.00
C7     C     0.19002   0.32281   0.25219   0.00000  Uiso   1.00
C8     C     0.14333   0.01053   0.24782   0.00000  Uiso   1.00
C9     C     0.12819   0.16114   0.33312   0.00000  Uiso   1.00
C10    C     0.20498   0.17119   0.16704   0.00000  Uiso   1.00
C11    C     0.10536   0.14819   0.38000   0.00000  Uiso   1.00
C12    C     0.22889   0.17803   0.11966   0.00000  Uiso   1.00
C13    C     0.03309   0.09448   0.43822   0.00000  Uiso   1.00
C14    C     0.30410   0.22235   0.05745   0.00000  Uiso   1.00
C15    C     0.04536   0.11670   0.39686   0.00000  Uiso   1.00
C16    C     0.28290   0.21677   0.10338   0.00000  Uiso   1.00
C17    C     0.14930   0.16115   0.40612   0.00000  Uiso   1.00
C18    C     0.19279   0.14949   0.09142   0.00000  Uiso   1.00
C19    C     0.13760   0.14095   0.44789   0.00000  Uiso   1.00
C20    C     0.20859   0.15885   0.04633   0.00000  Uiso   1.00
C21    C     0.07788   0.10860   0.46447   0.00000  Uiso   1.00
C22    C     0.26713   0.19309   0.02919   0.00000  Uiso   1.00
C23    C     0.18333   0.15321   0.47390   0.00000  Uiso   1.00
C24    C     0.16614   0.13845   0.01842   0.00000  Uiso   1.00
Cu25   Cu    0.10737   0.16108   0.24517   0.00000  Uiso   1.00
Cu26   Cu    0.22596   0.17225   0.25484   0.00000  Uiso   1.00
H27    H     0.01782   0.06659   0.02093   0.00000  Uiso   1.00
H28    H     0.33263   0.22300   0.46951   0.00000  Uiso   1.00
H29    H     0.15123   0.12145   0.10617   0.00000  Uiso   1.00
H30    H     0.19281   0.18788   0.39282   0.00000  Uiso   1.00
H31    H     0.08946   0.09233   0.06673   0.00000  Uiso   1.00
H32    H     0.26433   0.18726   0.42259   0.00000  Uiso   1.00
H33    H     0.23486   0.01352   0.25640   0.00000  Uiso   1.00
H34    H     0.09852   0.31982   0.24357   0.00000  Uiso   1.00
N35    N     0.31506   0.18068   0.26212   0.00000  Uiso   1.00
N36    N     0.01827   0.15265   0.23788   0.00000  Uiso   1.00
O37    O     0.12815   0.23809   0.24686   0.00000  Uiso   1.00
O38    O     0.20518   0.09524   0.25314   0.00000  Uiso   1.00
O39    O     0.22829   0.24753   0.25503   0.00000  Uiso   1.00
O40    O     0.10504   0.08580   0.24498   0.00000  Uiso   1.00
O41    O     0.08851   0.15930   0.30855   0.00000  Uiso   1.00
O42    O     0.24482   0.17403   0.19146   0.00000  Uiso   1.00
O43    O     0.18866   0.16874   0.31671   0.00000  Uiso   1.00
O44    O     0.14468   0.16460   0.18329   0.00000  Uiso   1.00
N45    N     0.31261   0.25223   0.13404   0.00000  Uiso   1.00
H46    H     0.27942   0.27279   0.15275   0.00000  Uiso   1.00
H47    H     0.01602   0.28126   0.11819   0.00000  Uiso   1.00
N48    N     0.33174   0.10593   0.37127   0.00000  Uiso   1.00
H49    H     0.32253   0.14209   0.36637   0.00000  Uiso   1.00
H50    H     0.28883   0.08503   0.38896   0.00000  Uiso   1.00
O51    O     0.31108   0.05779   0.45243   0.00000  Uiso   1.00
C52    C     0.32268   0.00596   0.44343   0.00000  Uiso   1.00
H53    H     0.29980   0.31619   0.47308   0.00000  Uiso   1.00
H54    H     0.04009   0.00411   0.43652   0.00000  Uiso   1.00
C55    C     0.29564   0.31195   0.40470   0.00000  Uiso   1.00
H56    H     0.31778   0.00146   0.37473   0.00000  Uiso   1.00
H57    H     0.30785   0.27259   0.39751   0.00000  Uiso   1.00
C58    C     0.22421   0.30487   0.41428   0.00000  Uiso   1.00
H59    H     0.20139   0.27815   0.44182   0.00000  Uiso   1.00
H60    H     0.20727   0.28708   0.38466   0.00000  Uiso   1.00
H61    H     0.21011   0.01008   0.42292   0.00000  Uiso   1.00
O62    O     0.01915   0.26404   0.04090   0.00000  Uiso   1.00
C63    C     0.07796   0.25217   0.03913   0.00000  Uiso   1.00
H64    H     0.09271   0.22959   0.00784   0.00000  Uiso   1.00
H65    H     0.07721   0.22837   0.06702   0.00000  Uiso   1.00
C66    C     0.12579   0.30441   0.04033   0.00000  Uiso   1.00
H67    H     0.13335   0.32511   0.00951   0.00000  Uiso   1.00
H68    H     0.10731   0.33023   0.06843   0.00000  Uiso   1.00
C69    C     0.18833   0.29580   0.04541   0.00000  Uiso   1.00
H70    H     0.18222   0.27713   0.07695   0.00000  Uiso   1.00
H71    H     0.22230   0.00098   0.04505   0.00000  Uiso   1.00
H72    H     0.20721   0.26995   0.01777   0.00000  Uiso   1.00
N73    N     0.00613   0.21498   0.29323   0.00000  Uiso   1.00
H74    H     0.00411   0.25292   0.28645   0.00000  Uiso   1.00
H75    H     0.30840   0.20641   0.32361   0.00000  Uiso   1.00
N76    N     0.32775   0.11965   0.20588   0.00000  Uiso   1.00
H77    H     0.33215   0.08165   0.21049   0.00000  Uiso   1.00
H78    H     0.02408   0.13106   0.17556   0.00000  Uiso   1.00
C79    C     0.51505   0.26672   0.25143   0.00000  Uiso   1.00
C80    C     0.48495   0.06662   0.24859   0.00000  Uiso   1.00
C81    C     0.43922   0.10633   0.03390   0.00000  Uiso   1.00
C82    C     0.57901   0.18019   0.45690   0.00000  Uiso   1.00
C83    C     0.39670   0.09102   0.00720   0.00000  Uiso   1.00
C84    C     0.61978   0.20012   0.48403   0.00000  Uiso   1.00
C85    C     0.52336   0.32281   0.25219   0.00000  Uiso   1.00
C86    C     0.47667   0.01053   0.24782   0.00000  Uiso   1.00
C87    C     0.46153   0.16114   0.33312   0.00000  Uiso   1.00
C88    C     0.53831   0.17119   0.16704   0.00000  Uiso   1.00
C89    C     0.43870   0.14819   0.38000   0.00000  Uiso   1.00
C90    C     0.56222   0.17803   0.11966   0.00000  Uiso   1.00
C91    C     0.36643   0.09448   0.43822   0.00000  Uiso   1.00
C92    C     0.63743   0.22235   0.05745   0.00000  Uiso   1.00
C93    C     0.37869   0.11670   0.39686   0.00000  Uiso   1.00
C94    C     0.61623   0.21677   0.10338   0.00000  Uiso   1.00
C95    C     0.48264   0.16115   0.40612   0.00000  Uiso   1.00
C96    C     0.52612   0.14949   0.09142   0.00000  Uiso   1.00
C97    C     0.47093   0.14095   0.44789   0.00000  Uiso   1.00
C98    C     0.54192   0.15885   0.04633   0.00000  Uiso   1.00
C99    C     0.41121   0.10860   0.46447   0.00000  Uiso   1.00
C100   C     0.60047   0.19309   0.02919   0.00000  Uiso   1.00
C101   C     0.51667   0.15321   0.47390   0.00000  Uiso   1.00
C102   C     0.49947   0.13845   0.01842   0.00000  Uiso   1.00
Cu103  Cu    0.44071   0.16108   0.24517   0.00000  Uiso   1.00
Cu104  Cu    0.55929   0.17225   0.25484   0.00000  Uiso   1.00
H105   H     0.35115   0.06659   0.02093   0.00000  Uiso   1.00
H106   H     0.66596   0.22300   0.46951   0.00000  Uiso   1.00
H107   H     0.48456   0.12145   0.10617   0.00000  Uiso   1.00
H108   H     0.52614   0.18788   0.39282   0.00000  Uiso   1.00
H109   H     0.42280   0.09233   0.06673   0.00000  Uiso   1.00
H110   H     0.59766   0.18726   0.42259   0.00000  Uiso   1.00
H111   H     0.56819   0.01352   0.25640   0.00000  Uiso   1.00
H112   H     0.43186   0.31982   0.24357   0.00000  Uiso   1.00
N113   N     0.64839   0.18068   0.26212   0.00000  Uiso   1.00
N114   N     0.35161   0.15265   0.23788   0.00000  Uiso   1.00
O115   O     0.46148   0.23809   0.24686   0.00000  Uiso   1.00
O116   O     0.53852   0.09524   0.25314   0.00000  Uiso   1.00
O117   O     0.56163   0.24753   0.25503   0.00000  Uiso   1.00
O118   O     0.43837   0.08580   0.24498   0.00000  Uiso   1.00
O119   O     0.42185   0.15930   0.30855   0.00000  Uiso   1.00
O120   O     0.57815   0.17403   0.19146   0.00000  Uiso   1.00
O121   O     0.52199   0.16874   0.31671   0.00000  Uiso   1.00
O122   O     0.47801   0.16460   0.18329   0.00000  Uiso   1.00
N123   N     0.64594   0.25223   0.13404   0.00000  Uiso   1.00
H124   H     0.61276   0.27279   0.15275   0.00000  Uiso   1.00
H125   H     0.34935   0.28126   0.11819   0.00000  Uiso   1.00
N126   N     0.66507   0.10593   0.37127   0.00000  Uiso   1.00
H127   H     0.65587   0.14209   0.36637   0.00000  Uiso   1.00
H128   H     0.62217   0.08503   0.38896   0.00000  Uiso   1.00
O129   O     0.64441   0.05779   0.45243   0.00000  Uiso   1.00
C130   C     0.65601   0.00596   0.44343   0.00000  Uiso   1.00
H131   H     0.63313   0.31619   0.47308   0.00000  Uiso   1.00
H132   H     0.37343   0.00411   0.43652   0.00000  Uiso   1.00
C133   C     0.62898   0.31195   0.40470   0.00000  Uiso   1.00
H134   H     0.65112   0.00146   0.37473   0.00000  Uiso   1.00
H135   H     0.64118   0.27259   0.39751   0.00000  Uiso   1.00
C136   C     0.55755   0.30487   0.41428   0.00000  Uiso   1.00
H137   H     0.53473   0.27815   0.44182   0.00000  Uiso   1.00
H138   H     0.54060   0.28708   0.38466   0.00000  Uiso   1.00
H139   H     0.54344   0.01008   0.42292   0.00000  Uiso   1.00
O140   O     0.35248   0.26404   0.04090   0.00000  Uiso   1.00
C141   C     0.41129   0.25217   0.03913   0.00000  Uiso   1.00
H142   H     0.42605   0.22959   0.00784   0.00000  Uiso   1.00
H143   H     0.41055   0.22837   0.06702   0.00000  Uiso   1.00
C144   C     0.45913   0.30441   0.04033   0.00000  Uiso   1.00
H145   H     0.46668   0.32511   0.00951   0.00000  Uiso   1.00
H146   H     0.44064   0.33023   0.06843   0.00000  Uiso   1.00
C147   C     0.52166   0.29580   0.04541   0.00000  Uiso   1.00
H148   H     0.51556   0.27713   0.07695   0.00000  Uiso   1.00
H149   H     0.55563   0.00098   0.04505   0.00000  Uiso   1.00
H150   H     0.54054   0.26995   0.01777   0.00000  Uiso   1.00
N151   N     0.33947   0.21498   0.29323   0.00000  Uiso   1.00
H152   H     0.33744   0.25292   0.28645   0.00000  Uiso   1.00
H153   H     0.64173   0.20641   0.32361   0.00000  Uiso   1.00
N154   N     0.66108   0.11965   0.20588   0.00000  Uiso   1.00
H155   H     0.66548   0.08165   0.21049   0.00000  Uiso   1.00
H156   H     0.35741   0.13106   0.17556   0.00000  Uiso   1.00
C157   C     0.84838   0.26672   0.25143   0.00000  Uiso   1.00
C158   C     0.81829   0.06662   0.24859   0.00000  Uiso   1.00
C159   C     0.77255   0.10633   0.03390   0.00000  Uiso   1.00
C160   C     0.91234   0.18019   0.45690   0.00000  Uiso   1.00
C161   C     0.73003   0.09102   0.00720   0.00000  Uiso   1.00
C162   C     0.95312   0.20012   0.48403   0.00000  Uiso   1.00
C163   C     0.85669   0.32281   0.25219   0.00000  Uiso   1.00
C164   C     0.81000   0.01053   0.24782   0.00000  Uiso   1.00
C165   C     0.79486   0.16114   0.33312   0.00000  Uiso   1.00
C166   C     0.87164   0.17119   0.16704   0.00000  Uiso   1.00
C167   C     0.77203   0.14819   0.38000   0.00000  Uiso   1.00
C168   C     0.89556   0.17803   0.11966   0.00000  Uiso   1.00
C169   C     0.69976   0.09448   0.43822   0.00000  Uiso   1.00
C170   C     0.97077   0.22235   0.05745   0.00000  Uiso   1.00
C171   C     0.71203   0.11670   0.39686   0.00000  Uiso   1.00
C172   C     0.94956   0.21677   0.10338   0.00000  Uiso   1.00
C173   C     0.81597   0.16115   0.40612   0.00000  Uiso   1.00
C174   C     0.85945   0.14949   0.09142   0.00000  Uiso   1.00
C175   C     0.80427   0.14095   0.44789   0.00000  Uiso   1.00
C176   C     0.87526   0.15885   0.04633   0.00000  Uiso   1.00
C177   C     0.74455   0.10860   0.46447   0.00000  Uiso   1.00
C178   C     0.93380   0.19309   0.02919   0.00000  Uiso   1.00
C179   C     0.85000   0.15321   0.47390   0.00000  Uiso   1.00
C180   C     0.83281   0.13845   0.01842   0.00000  Uiso   1.00
Cu181  Cu    0.77404   0.16108   0.24517   0.00000  Uiso   1.00
Cu182  Cu    0.89263   0.17225   0.25484   0.00000  Uiso   1.00
H183   H     0.68449   0.06659   0.02093   0.00000  Uiso   1.00
H184   H     0.99929   0.22300   0.46951   0.00000  Uiso   1.00
H185   H     0.81789   0.12145   0.10617   0.00000  Uiso   1.00
H186   H     0.85948   0.18788   0.39282   0.00000  Uiso   1.00
H187   H     0.75613   0.09233   0.06673   0.00000  Uiso   1.00
H188   H     0.93100   0.18726   0.42259   0.00000  Uiso   1.00
H189   H     0.90152   0.01352   0.25640   0.00000  Uiso   1.00
H190   H     0.76519   0.31982   0.24357   0.00000  Uiso   1.00
N191   N     0.98173   0.18068   0.26212   0.00000  Uiso   1.00
N192   N     0.68494   0.15265   0.23788   0.00000  Uiso   1.00
O193   O     0.79482   0.23809   0.24686   0.00000  Uiso   1.00
O194   O     0.87185   0.09524   0.25314   0.00000  Uiso   1.00
O195   O     0.89496   0.24753   0.25503   0.00000  Uiso   1.00
O196   O     0.77171   0.08580   0.24498   0.00000  Uiso   1.00
O197   O     0.75518   0.15930   0.30855   0.00000  Uiso   1.00
O198   O     0.91149   0.17403   0.19146   0.00000  Uiso   1.00
O199   O     0.85532   0.16874   0.31671   0.00000  Uiso   1.00
O200   O     0.81134   0.16460   0.18329   0.00000  Uiso   1.00
N201   N     0.97928   0.25223   0.13404   0.00000  Uiso   1.00
H202   H     0.94609   0.27279   0.15275   0.00000  Uiso   1.00
H203   H     0.68269   0.28126   0.11819   0.00000  Uiso   1.00
N204   N     0.99841   0.10593   0.37127   0.00000  Uiso   1.00
H205   H     0.98920   0.14209   0.36637   0.00000  Uiso   1.00
H206   H     0.95550   0.08503   0.38896   0.00000  Uiso   1.00
O207   O     0.97775   0.05779   0.45243   0.00000  Uiso   1.00
C208   C     0.98935   0.00596   0.44343   0.00000  Uiso   1.00
H209   H     0.96647   0.31619   0.47308   0.00000  Uiso   1.00
H210   H     0.70676   0.00411   0.43652   0.00000  Uiso   1.00
C211   C     0.96231   0.31195   0.40470   0.00000  Uiso   1.00
H212   H     0.98445   0.00146   0.37473   0.00000  Uiso   1.00
H213   H     0.97452   0.27259   0.39751   0.00000  Uiso   1.00
C214   C     0.89088   0.30487   0.41428   0.00000  Uiso   1.00
H215   H     0.86806   0.27815   0.44182   0.00000  Uiso   1.00
H216   H     0.87393   0.28708   0.38466   0.00000  Uiso   1.00
H217   H     0.87678   0.01008   0.42292   0.00000  Uiso   1.00
O218   O     0.68581   0.26404   0.04090   0.00000  Uiso   1.00
C219   C     0.74463   0.25217   0.03913   0.00000  Uiso   1.00
H220   H     0.75938   0.22959   0.00784   0.00000  Uiso   1.00
H221   H     0.74388   0.22837   0.06702   0.00000  Uiso   1.00
C222   C     0.79246   0.30441   0.04033   0.00000  Uiso   1.00
H223   H     0.80002   0.32511   0.00951   0.00000  Uiso   1.00
H224   H     0.77397   0.33023   0.06843   0.00000  Uiso   1.00
C225   C     0.85499   0.29580   0.04541   0.00000  Uiso   1.00
H226   H     0.84889   0.27713   0.07695   0.00000  Uiso   1.00
H227   H     0.88896   0.00098   0.04505   0.00000  Uiso   1.00
H228   H     0.87388   0.26995   0.01777   0.00000  Uiso   1.00
N229   N     0.67280   0.21498   0.29323   0.00000  Uiso   1.00
H230   H     0.67078   0.25292   0.28645   0.00000  Uiso   1.00
H231   H     0.97507   0.20641   0.32361   0.00000  Uiso   1.00
N232   N     0.99441   0.11965   0.20588   0.00000  Uiso   1.00
H233   H     0.99882   0.08165   0.21049   0.00000  Uiso   1.00
H234   H     0.69075   0.13106   0.17556   0.00000  Uiso   1.00
C235   C     0.18171   0.60005   0.25143   0.00000  Uiso   1.00
C236   C     0.15162   0.39995   0.24859   0.00000  Uiso   1.00
C237   C     0.10589   0.43967   0.03390   0.00000  Uiso   1.00
C238   C     0.24567   0.51352   0.45690   0.00000  Uiso   1.00
C239   C     0.06337   0.42435   0.00720   0.00000  Uiso   1.00
C240   C     0.28645   0.53345   0.48403   0.00000  Uiso   1.00
C241   C     0.19002   0.65614   0.25219   0.00000  Uiso   1.00
C242   C     0.14333   0.34386   0.24782   0.00000  Uiso   1.00
C243   C     0.12819   0.49447   0.33312   0.00000  Uiso   1.00
C244   C     0.20498   0.50452   0.16704   0.00000  Uiso   1.00
C245   C     0.10536   0.48152   0.38000   0.00000  Uiso   1.00
C246   C     0.22889   0.51137   0.11966   0.00000  Uiso   1.00
C247   C     0.03309   0.42781   0.43822   0.00000  Uiso   1.00
C248   C     0.30410   0.55568   0.05745   0.00000  Uiso   1.00
C249   C     0.04536   0.45004   0.39686   0.00000  Uiso   1.00
C250   C     0.28290   0.55010   0.10338   0.00000  Uiso   1.00
C251   C     0.14930   0.49449   0.40612   0.00000  Uiso   1.00
C252   C     0.19279   0.48282   0.09142   0.00000  Uiso   1.00
C253   C     0.13760   0.47429   0.44789   0.00000  Uiso   1.00
C254   C     0.20859   0.49219   0.04633   0.00000  Uiso   1.00
C255   C     0.07788   0.44194   0.46447   0.00000  Uiso   1.00
C256   C     0.26713   0.52642   0.02919   0.00000  Uiso   1.00
C257   C     0.18333   0.48655   0.47390   0.00000  Uiso   1.00
C258   C     0.16614   0.47179   0.01842   0.00000  Uiso   1.00
Cu259  Cu    0.10737   0.49441   0.24517   0.00000  Uiso   1.00
Cu260  Cu    0.22596   0.50559   0.25484   0.00000  Uiso   1.00
H261   H     0.01782   0.39992   0.02093   0.00000  Uiso   1.00
H262   H     0.33263   0.55633   0.46951   0.00000  Uiso   1.00
H263   H     0.15123   0.45479   0.10617   0.00000  Uiso   1.00
H264   H     0.19281   0.52121   0.39282   0.00000  Uiso   1.00
H265   H     0.08946   0.42567   0.06673   0.00000  Uiso   1.00
H266   H     0.26433   0.52059   0.42259   0.00000  Uiso   1.00
H267   H     0.23486   0.34686   0.25640   0.00000  Uiso   1.00
H268   H     0.09852   0.65315   0.24357   0.00000  Uiso   1.00
N269   N     0.31506   0.51401   0.26212   0.00000  Uiso   1.00
N270   N     0.01827   0.48599   0.23788   0.00000  Uiso   1.00
O271   O     0.12815   0.57142   0.24686   0.00000  Uiso   1.00
O272   O     0.20518   0.42858   0.25314   0.00000  Uiso   1.00
O273   O     0.22829   0.58086   0.25503   0.00000  Uiso   1.00
O274   O     0.10504   0.41914   0.24498   0.00000  Uiso   1.00
O275   O     0.08851   0.49263   0.30855   0.00000  Uiso   1.00
O276   O     0.24482   0.50737   0.19146   0.00000  Uiso   1.00
O277   O     0.18866   0.50207   0.31671   0.00000  Uiso   1.00
O278   O     0.14468   0.49793   0.18329   0.00000  Uiso   1.00
N279   N     0.31261   0.58556   0.13404   0.00000  Uiso   1.00
H280   H     0.27942   0.60612   0.15275   0.00000  Uiso   1.00
H281   H     0.01602   0.61459   0.11819   0.00000  Uiso   1.00
N282   N     0.33174   0.43926   0.37127   0.00000  Uiso   1.00
H283   H     0.32253   0.47542   0.36637   0.00000  Uiso   1.00
H284   H     0.28883   0.41836   0.38896   0.00000  Uiso   1.00
O285   O     0.31108   0.39112   0.45243   0.00000  Uiso   1.00
C286   C     0.32268   0.33929   0.44343   0.00000  Uiso   1.00
H287   H     0.29980   0.64952   0.47308   0.00000  Uiso   1.00
H288   H     0.04009   0.33744   0.43652   0.00000  Uiso   1.00
C289   C     0.29564   0.64528   0.40470   0.00000  Uiso   1.00
H290   H     0.31778   0.33479   0.37473   0.00000  Uiso   1.00
H291   H     0.30785   0.60592   0.39751   0.00000  Uiso   1.00
C292   C     0.22421   0.63821   0.41428   0.00000  Uiso   1.00
H293   H     0.20139   0.61148   0.44182   0.00000  Uiso   1.00
H294   H     0.20727   0.62042   0.38466   0.00000  Uiso   1.00
H295   H     0.21011   0.34342   0.42292   0.00000  Uiso   1.00
O296   O     0.01915   0.59738   0.04090   0.00000  Uiso   1.00
C297   C     0.07796   0.58550   0.03913   0.00000  Uiso   1.00
H298   H     0.09271   0.56293   0.00784   0.00000  Uiso   1.00
H299   H     0.07721   0.56170   0.06702   0.00000  Uiso   1.00
C300   C     0.12579   0.63774   0.04033   0.00000  Uiso   1.00
H301   H     0.13335   0.65844   0.00951   0.00000  Uiso   1.00
H302   H     0.10731   0.66356   0.06843   0.00000  Uiso   1.00
C303   C     0.18833   0.62913   0.04541   0.00000  Uiso   1.00
H304   H     0.18222   0.61047   0.07695   0.00000  Uiso   1.00
H305   H     0.22230   0.33431   0.04505   0.00000  Uiso   1.00
H306   H     0.20721   0.60328   0.01777   0.00000  Uiso   1.00
N307   N     0.00613   0.54831   0.29323   0.00000  Uiso   1.00
H308   H     0.00411   0.58625   0.28645   0.00000  Uiso   1.00
H309   H     0.30840   0.53974   0.32361   0.00000  Uiso   1.00
N310   N     0.32775   0.45298   0.20588   0.00000  Uiso   1.00
H311   H     0.33215   0.41498   0.21049   0.00000  Uiso   1.00
H312   H     0.02408   0.46440   0.17556   0.00000  Uiso   1.00
C313   C     0.51505   0.60005   0.25143   0.00000  Uiso   1.00
C314   C     0.48495   0.39995   0.24859   0.00000  Uiso   1.00
C315   C     0.43922   0.43967   0.03390   0.00000  Uiso   1.00
C316   C     0.57901   0.51352   0.45690   0.00000  Uiso   1.00
C317   C     0.39670   0.42435   0.00720   0.00000  Uiso   1.00
C318   C     0.61978   0.53345   0.48403   0.00000  Uiso   1.00
C319   C     0.52336   0.65614   0.25219   0.00000  Uiso   1.00
C320   C     0.47667   0.34386   0.24782   0.00000  Uiso   1.00
C321   C     0.46153   0.49447   0.33312   0.00000  Uiso   1.00
C322   C     0.53831   0.50452   0.16704   0.00000  Uiso   1.00
C323   C     0.43870   0.48152   0.38000   0.00000  Uiso   1.00
C324   C     0.56222   0.51137   0.11966   0.00000  Uiso   1.00
C325   C     0.36643   0.42781   0.43822   0.00000  Uiso   1.00
C326   C     0.63743   0.55568   0.05745   0.00000  Uiso   1.00
C327   C     0.37869   0.45004   0.39686   0.00000  Uiso   1.00
C328   C     0.61623   0.55010   0.10338   0.00000  Uiso   1.00
C329   C     0.48264   0.49449   0.40612   0.00000  Uiso   1.00
C330   C     0.52612   0.48282   0.09142   0.00000  Uiso   1.00
C331   C     0.47093   0.47429   0.44789   0.00000  Uiso   1.00
C332   C     0.54192   0.49219   0.04633   0.00000  Uiso   1.00
C333   C     0.41121   0.44194   0.46447   0.00000  Uiso   1.00
C334   C     0.60047   0.52642   0.02919   0.00000  Uiso   1.00
C335   C     0.51667   0.48655   0.47390   0.00000  Uiso   1.00
C336   C     0.49947   0.47179   0.01842   0.00000  Uiso   1.00
Cu337  Cu    0.44071   0.49441   0.24517   0.00000  Uiso   1.00
Cu338  Cu    0.55929   0.50559   0.25484   0.00000  Uiso   1.00
H339   H     0.35115   0.39992   0.02093   0.00000  Uiso   1.00
H340   H     0.66596   0.55633   0.46951   0.00000  Uiso   1.00
H341   H     0.48456   0.45479   0.10617   0.00000  Uiso   1.00
H342   H     0.52614   0.52121   0.39282   0.00000  Uiso   1.00
H343   H     0.42280   0.42567   0.06673   0.00000  Uiso   1.00
H344   H     0.59766   0.52059   0.42259   0.00000  Uiso   1.00
H345   H     0.56819   0.34686   0.25640   0.00000  Uiso   1.00
H346   H     0.43186   0.65315   0.24357   0.00000  Uiso   1.00
N347   N     0.64839   0.51401   0.26212   0.00000  Uiso   1.00
N348   N     0.35161   0.48599   0.23788   0.00000  Uiso   1.00
O349   O     0.46148   0.57142   0.24686   0.00000  Uiso   1.00
O350   O     0.53852   0.42858   0.25314   0.00000  Uiso   1.00
O351   O     0.56163   0.58086   0.25503   0.00000  Uiso   1.00
O352   O     0.43837   0.41914   0.24498   0.00000  Uiso   1.00
O353   O     0.42185   0.49263   0.30855   0.00000  Uiso   1.00
O354   O     0.57815   0.50737   0.19146   0.00000  Uiso   1.00
O355   O     0.52199   0.50207   0.31671   0.00000  Uiso   1.00
O356   O     0.47801   0.49793   0.18329   0.00000  Uiso   1.00
N357   N     0.64594   0.58556   0.13404   0.00000  Uiso   1.00
H358   H     0.61276   0.60612   0.15275   0.00000  Uiso   1.00
H359   H     0.34935   0.61459   0.11819   0.00000  Uiso   1.00
N360   N     0.66507   0.43926   0.37127   0.00000  Uiso   1.00
H361   H     0.65587   0.47542   0.36637   0.00000  Uiso   1.00
H362   H     0.62217   0.41836   0.38896   0.00000  Uiso   1.00
O363   O     0.64441   0.39112   0.45243   0.00000  Uiso   1.00
C364   C     0.65601   0.33929   0.44343   0.00000  Uiso   1.00
H365   H     0.63313   0.64952   0.47308   0.00000  Uiso   1.00
H366   H     0.37343   0.33744   0.43652   0.00000  Uiso   1.00
C367   C     0.62898   0.64528   0.40470   0.00000  Uiso   1.00
H368   H     0.65112   0.33479   0.37473   0.00000  Uiso   1.00
H369   H     0.64118   0.60592   0.39751   0.00000  Uiso   1.00
C370   C     0.55755   0.63821   0.41428   0.00000  Uiso   1.00
H371   H     0.53473   0.61148   0.44182   0.00000  Uiso   1.00
H372   H     0.54060   0.62042   0.38466   0.00000  Uiso   1.00
H373   H     0.54344   0.34342   0.42292   0.00000  Uiso   1.00
O374   O     0.35248   0.59738   0.04090   0.00000  Uiso   1.00
C375   C     0.41129   0.58550   0.03913   0.00000  Uiso   1.00
H376   H     0.42605   0.56293   0.00784   0.00000  Uiso   1.00
H377   H     0.41055   0.56170   0.06702   0.00000  Uiso   1.00
C378   C     0.45913   0.63774   0.04033   0.00000  Uiso   1.00
H379   H     0.46668   0.65844   0.00951   0.00000  Uiso   1.00
H380   H     0.44064   0.66356   0.06843   0.00000  Uiso   1.00
C381   C     0.52166   0.62913   0.04541   0.00000  Uiso   1.00
H382   H     0.51556   0.61047   0.07695   0.00000  Uiso   1.00
H383   H     0.55563   0.33431   0.04505   0.00000  Uiso   1.00
H384   H     0.54054   0.60328   0.01777   0.00000  Uiso   1.00
N385   N     0.33947   0.54831   0.29323   0.00000  Uiso   1.00
H386   H     0.33744   0.58625   0.28645   0.00000  Uiso   1.00
H387   H     0.64173   0.53974   0.32361   0.00000  Uiso   1.00
N388   N     0.66108   0.45298   0.20588   0.00000  Uiso   1.00
H389   H     0.66548   0.41498   0.21049   0.00000  Uiso   1.00
H390   H     0.35741   0.46440   0.17556   0.00000  Uiso   1.00
C391   C     0.84838   0.60005   0.25143   0.00000  Uiso   1.00
C392   C     0.81829   0.39995   0.24859   0.00000  Uiso   1.00
C393   C     0.77255   0.43967   0.03390   0.00000  Uiso   1.00
C394   C     0.91234   0.51352   0.45690   0.00000  Uiso   1.00
C395   C     0.73003   0.42435   0.00720   0.00000  Uiso   1.00
C396   C     0.95312   0.53345   0.48403   0.00000  Uiso   1.00
C397   C     0.85669   0.65614   0.25219   0.00000  Uiso   1.00
C398   C     0.81000   0.34386   0.24782   0.00000  Uiso   1.00
C399   C     0.79486   0.49447   0.33312   0.00000  Uiso   1.00
C400   C     0.87164   0.50452   0.16704   0.00000  Uiso   1.00
C401   C     0.77203   0.48152   0.38000   0.00000  Uiso   1.00
C402   C     0.89556   0.51137   0.11966   0.00000  Uiso   1.00
C403   C     0.69976   0.42781   0.43822   0.00000  Uiso   1.00
C404   C     0.97077   0.55568   0.05745   0.00000  Uiso   1.00
C405   C     0.71203   0.45004   0.39686   0.00000  Uiso   1.00
C406   C     0.94956   0.55010   0.10338   0.00000  Uiso   1.00
C407   C     0.81597   0.49449   0.40612   0.00000  Uiso   1.00
C408   C     0.85945   0.48282   0.09142   0.00000  Uiso   1.00
C409   C     0.80427   0.47429   0.44789   0.00000  Uiso   1.00
C410   C     0.87526   0.49219   0.04633   0.00000  Uiso   1.00
C411   C     0.74455   0.44194   0.46447   0.00000  Uiso   1.00
C412   C     0.93380   0.52642   0.02919   0.00000  Uiso   1.00
C413   C     0.85000   0.48655   0.47390   0.00000  Uiso   1.00
C414   C     0.83281   0.47179   0.01842   0.00000  Uiso   1.00
Cu415  Cu    0.77404   0.49441   0.24517   0.00000  Uiso   1.00
Cu416  Cu    0.89263   0.50559   0.25484   0.00000  Uiso   1.00
H417   H     0.68449   0.39992   0.02093   0.00000  Uiso   1.00
H418   H     0.99929   0.55633   0.46951   0.00000  Uiso   1.00
H419   H     0.81789   0.45479   0.10617   0.00000  Uiso   1.00
H420   H     0.85948   0.52121   0.39282   0.00000  Uiso   1.00
H421   H     0.75613   0.42567   0.06673   0.00000  Uiso   1.00
H422   H     0.93100   0.52059   0.42259   0.00000  Uiso   1.00
H423   H     0.90152   0.34686   0.25640   0.00000  Uiso   1.00
H424   H     0.76519   0.65315   0.24357   0.00000  Uiso   1.00
N425   N     0.98173   0.51401   0.26212   0.00000  Uiso   1.00
N426   N     0.68494   0.48599   0.23788   0.00000  Uiso   1.00
O427   O     0.79482   0.57142   0.24686   0.00000  Uiso   1.00
O428   O     0.87185   0.42858   0.25314   0.00000  Uiso   1.00
O429   O     0.89496   0.58086   0.25503   0.00000  Uiso   1.00
O430   O     0.77171   0.41914   0.24498   0.00000  Uiso   1.00
O431   O     0.75518   0.49263   0.30855   0.00000  Uiso   1.00
O432   O     0.91149   0.50737   0.19146   0.00000  Uiso   1.00
O433   O     0.85532   0.50207   0.31671   0.00000  Uiso   1.00
O434   O     0.81134   0.49793   0.18329   0.00000  Uiso   1.00
N435   N     0.97928   0.58556   0.13404   0.00000  Uiso   1.00
H436   H     0.94609   0.60612   0.15275   0.00000  Uiso   1.00
H437   H     0.68269   0.61459   0.11819   0.00000  Uiso   1.00
N438   N     0.99841   0.43926   0.37127   0.00000  Uiso   1.00
H439   H     0.98920   0.47542   0.36637   0.00000  Uiso   1.00
H440   H     0.95550   0.41836   0.38896   0.00000  Uiso   1.00
O441   O     0.97775   0.39112   0.45243   0.00000  Uiso   1.00
C442   C     0.98935   0.33929   0.44343   0.00000  Uiso   1.00
H443   H     0.96647   0.64952   0.47308   0.00000  Uiso   1.00
H444   H     0.70676   0.33744   0.43652   0.00000  Uiso   1.00
C445   C     0.96231   0.64528   0.40470   0.00000  Uiso   1.00
H446   H     0.98445   0.33479   0.37473   0.00000  Uiso   1.00
H447   H     0.97452   0.60592   0.39751   0.00000  Uiso   1.00
C448   C     0.89088   0.63821   0.41428   0.00000  Uiso   1.00
H449   H     0.86806   0.61148   0.44182   0.00000  Uiso   1.00
H450   H     0.87393   0.62042   0.38466   0.00000  Uiso   1.00
H451   H     0.87678   0.34342   0.42292   0.00000  Uiso   1.00
O452   O     0.68581   0.59738   0.04090   0.00000  Uiso   1.00
C453   C     0.74463   0.58550   0.03913   0.00000  Uiso   1.00
H454   H     0.75938   0.56293   0.00784   0.00000  Uiso   1.00
H455   H     0.74388   0.56170   0.06702   0.00000  Uiso   1.00
C456   C     0.79246   0.63774   0.04033   0.00000  Uiso   1.00
H457   H     0.80002   0.65844   0.00951   0.00000  Uiso   1.00
H458   H     0.77397   0.66356   0.06843   0.00000  Uiso   1.00
C459   C     0.85499   0.62913   0.04541   0.00000  Uiso   1.00
H460   H     0.84889   0.61047   0.07695   0.00000  Uiso   1.00
H461   H     0.88896   0.33431   0.04505   0.00000  Uiso   1.00
H462   H     0.87388   0.60328   0.01777   0.00000  Uiso   1.00
N463   N     0.67280   0.54831   0.29323   0.00000  Uiso   1.00
H464   H     0.67078   0.58625   0.28645   0.00000  Uiso   1.00
H465   H     0.97507   0.53974   0.32361   0.00000  Uiso   1.00
N466   N     0.99441   0.45298   0.20588   0.00000  Uiso   1.00
H467   H     0.99882   0.41498   0.21049   0.00000  Uiso   1.00
H468   H     0.69075   0.46440   0.17556   0.00000  Uiso   1.00
C469   C     0.18171   0.93338   0.25143   0.00000  Uiso   1.00
C470   C     0.15162   0.73328   0.24859   0.00000  Uiso   1.00
C471   C     0.10589   0.77300   0.03390   0.00000  Uiso   1.00
C472   C     0.24567   0.84686   0.45690   0.00000  Uiso   1.00
C473   C     0.06337   0.75769   0.00720   0.00000  Uiso   1.00
C474   C     0.28645   0.86679   0.48403   0.00000  Uiso   1.00
C475   C     0.19002   0.98948   0.25219   0.00000  Uiso   1.00
C476   C     0.14333   0.67720   0.24782   0.00000  Uiso   1.00
C477   C     0.12819   0.82780   0.33312   0.00000  Uiso   1.00
C478   C     0.20498   0.83786   0.16704   0.00000  Uiso   1.00
C479   C     0.10536   0.81485   0.38000   0.00000  Uiso   1.00
C480   C     0.22889   0.84470   0.11966   0.00000  Uiso   1.00
C481   C     0.03309   0.76114   0.43822   0.00000  Uiso   1.00
C482   C     0.30410   0.88901   0.05745   0.00000  Uiso   1.00
C483   C     0.04536   0.78337   0.39686   0.00000  Uiso   1.00
C484   C     0.28290   0.88343   0.10338   0.00000  Uiso   1.00
C485   C     0.14930   0.82782   0.40612   0.00000  Uiso   1.00
C486   C     0.19279   0.81615   0.09142   0.00000  Uiso   1.00
C487   C     0.13760   0.80762   0.44789   0.00000  Uiso   1.00
C488   C     0.20859   0.82552   0.04633   0.00000  Uiso   1.00
C489   C     0.07788   0.77527   0.46447   0.00000  Uiso   1.00
C490   C     0.26713   0.85975   0.02919   0.00000  Uiso   1.00
C491   C     0.18333   0.81988   0.47390   0.00000  Uiso   1.00
C492   C     0.16614   0.80512   0.01842   0.00000  Uiso   1.00
Cu493  Cu    0.10737   0.82775   0.24517   0.00000  Uiso   1.00
Cu494  Cu    0.22596   0.83892   0.25484   0.00000  Uiso   1.00
H495   H     0.01782   0.73326   0.02093   0.00000  Uiso   1.00
H496   H     0.33263   0.88966   0.46951   0.00000  Uiso   1.00
H497   H     0.15123   0.78812   0.10617   0.00000  Uiso   1.00
H498   H     0.19281   0.85455   0.39282   0.00000  Uiso   1.00
H499   H     0.08946   0.75900   0.06673   0.00000  Uiso   1.00
H500   H     0.26433   0.85393   0.42259   0.00000  Uiso   1.00
H501   H     0.23486   0.68019   0.25640   0.00000  Uiso   1.00
H502   H     0.09852   0.98649   0.24357   0.00000  Uiso   1.00
N503   N     0.31506   0.84735   0.26212   0.00000  Uiso   1.00
N504   N     0.01827   0.81932   0.23788   0.00000  Uiso   1.00
O505   O     0.12815   0.90476   0.24686   0.00000  Uiso   1.00
O506   O     0.20518   0.76191   0.25314   0.00000  Uiso   1.00
O507   O     0.22829   0.91420   0.25503   0.00000  Uiso   1.00
O508   O     0.10504   0.75247   0.24498   0.00000  Uiso   1.00
O509   O     0.08851   0.82597   0.30855   0.00000  Uiso   1.00
O510   O     0.24482   0.84070   0.19146   0.00000  Uiso   1.00
O511   O     0.18866   0.83540   0.31671   0.00000  Uiso   1.00
O512   O     0.14468   0.83126   0.18329   0.00000  Uiso   1.00
N513   N     0.31261   0.91890   0.13404   0.00000  Uiso   1.00
H514   H     0.27942   0.93945   0.15275   0.00000  Uiso   1.00
H515   H     0.01602   0.94792   0.11819   0.00000  Uiso   1.00
N516   N     0.33174   0.77259   0.37127   0.00000  Uiso   1.00
H517   H     0.32253   0.80875   0.36637   0.00000  Uiso   1.00
H518   H     0.28883   0.75170   0.38896   0.00000  Uiso   1.00
O519   O     0.31108   0.72445   0.45243   0.00000  Uiso   1.00
C520   C     0.32268   0.67262   0.44343   0.00000  Uiso   1.00
H521   H     0.29980   0.98286   0.47308   0.00000  Uiso   1.00
H522   H     0.04009   0.67078   0.43652   0.00000  Uiso   1.00
C523   C     0.29564   0.97862   0.40470   0.00000  Uiso   1.00
H524   H     0.31778   0.66813   0.37473   0.00000  Uiso   1.00
H525   H     0.30785   0.93926   0.39751   0.00000  Uiso   1.00
C526   C     0.22421   0.97154   0.41428   0.00000  Uiso   1.00
H527   H     0.20139   0.94481   0.44182   0.00000  Uiso   1.00
H528   H     0.20727   0.95375   0.38466   0.00000  Uiso   1.00
H529   H     0.21011   0.67675   0.42292   0.00000  Uiso   1.00
O530   O     0.01915   0.93071   0.04090   0.00000  Uiso   1.00
C531   C     0.07796   0.91883   0.03913   0.00000  Uiso   1.00
H532   H     0.09271   0.89626   0.00784   0.00000  Uiso   1.00
H533   H     0.07721   0.89503   0.06702   0.00000  Uiso   1.00
C534   C     0.12579   0.97107   0.04033   0.00000  Uiso   1.00
H535   H     0.13335   0.99178   0.00951   0.00000  Uiso   1.00
H536   H     0.10731   0.99689   0.06843   0.00000  Uiso   1.00
C537   C     0.18833   0.96247   0.04541   0.00000  Uiso   1.00
H538   H     0.18222   0.94380   0.07695   0.00000  Uiso   1.00
H539   H     0.22230   0.66764   0.04505   0.00000  Uiso   1.00
H540   H     0.20721   0.93662   0.01777   0.00000  Uiso   1.00
N541   N     0.00613   0.88164   0.29323   0.00000  Uiso   1.00
H542   H     0.00411   0.91958   0.28645   0.00000  Uiso   1.00
H543   H     0.30840   0.87307   0.32361   0.00000  Uiso   1.00
N544   N     0.32775   0.78631   0.20588   0.00000  Uiso   1.00
H545   H     0.33215   0.74831   0.21049   0.00000  Uiso   1.00
H546   H     0.02408   0.79773   0.17556   0.00000  Uiso   1.00
C547   C     0.51505   0.93338   0.25143   0.00000  Uiso   1.00
C548   C     0.48495   0.73328   0.24859   0.00000  Uiso   1.00
C549   C     0.43922   0.77300   0.03390   0.00000  Uiso   1.00
C550   C     0.57901   0.84686   0.45690   0.00000  Uiso   1.00
C551   C     0.39670   0.75769   0.00720   0.00000  Uiso   1.00
C552   C     0.61978   0.86679   0.48403   0.00000  Uiso   1.00
C553   C     0.52336   0.98948   0.25219   0.00000  Uiso   1.00
C554   C     0.47667   0.67720   0.24782   0.00000  Uiso   1.00
C555   C     0.46153   0.82780   0.33312   0.00000  Uiso   1.00
C556   C     0.53831   0.83786   0.16704   0.00000  Uiso   1.00
C557   C     0.43870   0.81485   0.38000   0.00000  Uiso   1.00
C558   C     0.56222   0.84470   0.11966   0.00000  Uiso   1.00
C559   C     0.36643   0.76114   0.43822   0.00000  Uiso   1.00
C560   C     0.63743   0.88901   0.05745   0.00000  Uiso   1.00
C561   C     0.37869   0.78337   0.39686   0.00000  Uiso   1.00
C562   C     0.61623   0.88343   0.10338   0.00000  Uiso   1.00
C563   C     0.48264   0.82782   0.40612   0.00000  Uiso   1.00
C564   C     0.52612   0.81615   0.09142   0.00000  Uiso   1.00
C565   C     0.47093   0.80762   0.44789   0.00000  Uiso   1.00
C566   C     0.54192   0.82552   0.04633   0.00000  Uiso   1.00
C567   C     0.41121   0.77527   0.46447   0.00000  Uiso   1.00
C568   C     0.60047   0.85975   0.02919   0.00000  Uiso   1.00
C569   C     0.51667   0.81988   0.47390   0.00000  Uiso   1.00
C570   C     0.49947   0.80512   0.01842   0.00000  Uiso   1.00
Cu571  Cu    0.44071   0.82775   0.24517   0.00000  Uiso   1.00
Cu572  Cu    0.55929   0.83892   0.25484   0.00000  Uiso   1.00
H573   H     0.35115   0.73326   0.02093   0.00000  Uiso   1.00
H574   H     0.66596   0.88966   0.46951   0.00000  Uiso   1.00
H575   H     0.48456   0.78812   0.10617   0.00000  Uiso   1.00
H576   H     0.52614   0.85455   0.39282   0.00000  Uiso   1.00
H577   H     0.42280   0.75900   0.06673   0.00000  Uiso   1.00
H578   H     0.59766   0.85393   0.42259   0.00000  Uiso   1.00
H579   H     0.56819   0.68019   0.25640   0.00000  Uiso   1.00
H580   H     0.43186   0.98649   0.24357   0.00000  Uiso   1.00
N581   N     0.64839   0.84735   0.26212   0.00000  Uiso   1.00
N582   N     0.35161   0.81932   0.23788   0.00000  Uiso   1.00
O583   O     0.46148   0.90476   0.24686   0.00000  Uiso   1.00
O584   O     0.53852   0.76191   0.25314   0.00000  Uiso   1.00
O585   O     0.56163   0.91420   0.25503   0.00000  Uiso   1.00
O586   O     0.43837   0.75247   0.24498   0.00000  Uiso   1.00
O587   O     0.42185   0.82597   0.30855   0.00000  Uiso   1.00
O588   O     0.57815   0.84070   0.19146   0.00000  Uiso   1.00
O589   O     0.52199   0.83540   0.31671   0.00000  Uiso   1.00
O590   O     0.47801   0.83126   0.18329   0.00000  Uiso   1.00
N591   N     0.64594   0.91890   0.13404   0.00000  Uiso   1.00
H592   H     0.61276   0.93945   0.15275   0.00000  Uiso   1.00
H593   H     0.34935   0.94792   0.11819   0.00000  Uiso   1.00
N594   N     0.66507   0.77259   0.37127   0.00000  Uiso   1.00
H595   H     0.65587   0.80875   0.36637   0.00000  Uiso   1.00
H596   H     0.62217   0.75170   0.38896   0.00000  Uiso   1.00
O597   O     0.64441   0.72445   0.45243   0.00000  Uiso   1.00
C598   C     0.65601   0.67262   0.44343   0.00000  Uiso   1.00
H599   H     0.63313   0.98286   0.47308   0.00000  Uiso   1.00
H600   H     0.37343   0.67078   0.43652   0.00000  Uiso   1.00
C601   C     0.62898   0.97862   0.40470   0.00000  Uiso   1.00
H602   H     0.65112   0.66813   0.37473   0.00000  Uiso   1.00
H603   H     0.64118   0.93926   0.39751   0.00000  Uiso   1.00
C604   C     0.55755   0.97154   0.41428   0.00000  Uiso   1.00
H605   H     0.53473   0.94481   0.44182   0.00000  Uiso   1.00
H606   H     0.54060   0.95375   0.38466   0.00000  Uiso   1.00
H607   H     0.54344   0.67675   0.42292   0.00000  Uiso   1.00
O608   O     0.35248   0.93071   0.04090   0.00000  Uiso   1.00
C609   C     0.41129   0.91883   0.03913   0.00000  Uiso   1.00
H610   H     0.42605   0.89626   0.00784   0.00000  Uiso   1.00
H611   H     0.41055   0.89503   0.06702   0.00000  Uiso   1.00
C612   C     0.45913   0.97107   0.04033   0.00000  Uiso   1.00
H613   H     0.46668   0.99178   0.00951   0.00000  Uiso   1.00
H614   H     0.44064   0.99689   0.06843   0.00000  Uiso   1.00
C615   C     0.52166   0.96247   0.04541   0.00000  Uiso   1.00
H616   H     0.51556   0.94380   0.07695   0.00000  Uiso   1.00
H617   H     0.55563   0.66764   0.04505   0.00000  Uiso   1.00
H618   H     0.54054   0.93662   0.01777   0.00000  Uiso   1.00
N619   N     0.33947   0.88164   0.29323   0.00000  Uiso   1.00
H620   H     0.33744   0.91958   0.28645   0.00000  Uiso   1.00
H621   H     0.64173   0.87307   0.32361   0.00000  Uiso   1.00
N622   N     0.66108   0.78631   0.20588   0.00000  Uiso   1.00
H623   H     0.66548   0.74831   0.21049   0.00000  Uiso   1.00
H624   H     0.35741   0.79773   0.17556   0.00000  Uiso   1.00
C625   C     0.84838   0.93338   0.25143   0.00000  Uiso   1.00
C626   C     0.81829   0.73328   0.24859   0.00000  Uiso   1.00
C627   C     0.77255   0.77300   0.03390   0.00000  Uiso   1.00
C628   C     0.91234   0.84686   0.45690   0.00000  Uiso   1.00
C629   C     0.73003   0.75769   0.00720   0.00000  Uiso   1.00
C630   C     0.95312   0.86679   0.48403   0.00000  Uiso   1.00
C631   C     0.85669   0.98948   0.25219   0.00000  Uiso   1.00
C632   C     0.81000   0.67720   0.24782   0.00000  Uiso   1.00
C633   C     0.79486   0.82780   0.33312   0.00000  Uiso   1.00
C634   C     0.87164   0.83786   0.16704   0.00000  Uiso   1.00
C635   C     0.77203   0.81485   0.38000   0.00000  Uiso   1.00
C636   C     0.89556   0.84470   0.11966   0.00000  Uiso   1.00
C637   C     0.69976   0.76114   0.43822   0.00000  Uiso   1.00
C638   C     0.97077   0.88901   0.05745   0.00000  Uiso   1.00
C639   C     0.71203   0.78337   0.39686   0.00000  Uiso   1.00
C640   C     0.94956   0.88343   0.10338   0.00000  Uiso   1.00
C641   C     0.81597   0.82782   0.40612   0.00000  Uiso   1.00
C642   C     0.85945   0.81615   0.09142   0.00000  Uiso   1.00
C643   C     0.80427   0.80762   0.44789   0.00000  Uiso   1.00
C644   C     0.87526   0.82552   0.04633   0.00000  Uiso   1.00
C645   C     0.74455   0.77527   0.46447   0.00000  Uiso   1.00
C646   C     0.93380   0.85975   0.02919   0.00000  Uiso   1.00
C647   C     0.85000   0.81988   0.47390   0.00000  Uiso   1.00
C648   C     0.83281   0.80512   0.01842   0.00000  Uiso   1.00
Cu649  Cu    0.77404   0.82775   0.24517   0.00000  Uiso   1.00
Cu650  Cu    0.89263   0.83892   0.25484   0.00000  Uiso   1.00
H651   H     0.68449   0.73326   0.02093   0.00000  Uiso   1.00
H652   H     0.99929   0.88966   0.46951   0.00000  Uiso   1.00
H653   H     0.81789   0.78812   0.10617   0.00000  Uiso   1.00
H654   H     0.85948   0.85455   0.39282   0.00000  Uiso   1.00
H655   H     0.75613   0.75900   0.06673   0.00000  Uiso   1.00
H656   H     0.93100   0.85393   0.42259   0.00000  Uiso   1.00
H657   H     0.90152   0.68019   0.25640   0.00000  Uiso   1.00
H658   H     0.76519   0.98649   0.24357   0.00000  Uiso   1.00
N659   N     0.98173   0.84735   0.26212   0.00000  Uiso   1.00
N660   N     0.68494   0.81932   0.23788   0.00000  Uiso   1.00
O661   O     0.79482   0.90476   0.24686   0.00000  Uiso   1.00
O662   O     0.87185   0.76191   0.25314   0.00000  Uiso   1.00
O663   O     0.89496   0.91420   0.25503   0.00000  Uiso   1.00
O664   O     0.77171   0.75247   0.24498   0.00000  Uiso   1.00
O665   O     0.75518   0.82597   0.30855   0.00000  Uiso   1.00
O666   O     0.91149   0.84070   0.19146   0.00000  Uiso   1.00
O667   O     0.85532   0.83540   0.31671   0.00000  Uiso   1.00
O668   O     0.81134   0.83126   0.18329   0.00000  Uiso   1.00
N669   N     0.97928   0.91890   0.13404   0.00000  Uiso   1.00
H670   H     0.94609   0.93945   0.15275   0.00000  Uiso   1.00
H671   H     0.68269   0.94792   0.11819   0.00000  Uiso   1.00
N672   N     0.99841   0.77259   0.37127   0.00000  Uiso   1.00
H673   H     0.98920   0.80875   0.36637   0.00000  Uiso   1.00
H674   H     0.95550   0.75170   0.38896   0.00000  Uiso   1.00
O675   O     0.97775   0.72445   0.45243   0.00000  Uiso   1.00
C676   C     0.98935   0.67262   0.44343   0.00000  Uiso   1.00
H677   H     0.96647   0.98286   0.47308   0.00000  Uiso   1.00
H678   H     0.70676   0.67078   0.43652   0.00000  Uiso   1.00
C679   C     0.96231   0.97862   0.40470   0.00000  Uiso   1.00
H680   H     0.98445   0.66813   0.37473   0.00000  Uiso   1.00
H681   H     0.97452   0.93926   0.39751   0.00000  Uiso   1.00
C682   C     0.89088   0.97154   0.41428   0.00000  Uiso   1.00
H683   H     0.86806   0.94481   0.44182   0.00000  Uiso   1.00
H684   H     0.87393   0.95375   0.38466   0.00000  Uiso   1.00
H685   H     0.87678   0.67675   0.42292   0.00000  Uiso   1.00
O686   O     0.68581   0.93071   0.04090   0.00000  Uiso   1.00
C687   C     0.74463   0.91883   0.03913   0.00000  Uiso   1.00
H688   H     0.75938   0.89626   0.00784   0.00000  Uiso   1.00
H689   H     0.74388   0.89503   0.06702   0.00000  Uiso   1.00
C690   C     0.79246   0.97107   0.04033   0.00000  Uiso   1.00
H691   H     0.80002   0.99178   0.00951   0.00000  Uiso   1.00
H692   H     0.77397   0.99689   0.06843   0.00000  Uiso   1.00
C693   C     0.85499   0.96247   0.04541   0.00000  Uiso   1.00
H694   H     0.84889   0.94380   0.07695   0.00000  Uiso   1.00
H695   H     0.88896   0.66764   0.04505   0.00000  Uiso   1.00
H696   H     0.87388   0.93662   0.01777   0.00000  Uiso   1.00
N697   N     0.67280   0.88164   0.29323   0.00000  Uiso   1.00
H698   H     0.67078   0.91958   0.28645   0.00000  Uiso   1.00
H699   H     0.97507   0.87307   0.32361   0.00000  Uiso   1.00
N700   N     0.99441   0.78631   0.20588   0.00000  Uiso   1.00
H701   H     0.99882   0.74831   0.21049   0.00000  Uiso   1.00
H702   H     0.69075   0.79773   0.17556   0.00000  Uiso   1.00
C703   C     0.18171   0.26672   0.75143   0.00000  Uiso   1.00
C704   C     0.15162   0.06662   0.74859   0.00000  Uiso   1.00
C705   C     0.10589   0.10633   0.53390   0.00000  Uiso   1.00
C706   C     0.24567   0.18019   0.95690   0.00000  Uiso   1.00
C707   C     0.06337   0.09102   0.50720   0.00000  Uiso   1.00
C708   C     0.28645   0.20012   0.98403   0.00000  Uiso   1.00
C709   C     0.19002   0.32281   0.75219   0.00000  Uiso   1.00
C710   C     0.14333   0.01053   0.74782   0.00000  Uiso   1.00
C711   C     0.12819   0.16114   0.83312   0.00000  Uiso   1.00
C712   C     0.20498   0.17119   0.66704   0.00000  Uiso   1.00
C713   C     0.10536   0.14819   0.88000   0.00000  Uiso   1.00
C714   C     0.22889   0.17803   0.61966   0.00000  Uiso   1.00
C715   C     0.03309   0.09448   0.93822   0.00000  Uiso   1.00
C716   C     0.30410   0.22235   0.55745   0.00000  Uiso   1.00
C717   C     0.04536   0.11670   0.89686   0.00000  Uiso   1.00
C718   C     0.28290   0.21677   0.60338   0.00000  Uiso   1.00
C719   C     0.14930   0.16115   0.90612   0.00000  Uiso   1.00
C720   C     0.19279   0.14949   0.59142   0.00000  Uiso   1.00
C721   C     0.13760   0.14095   0.94789   0.00000  Uiso   1.00
C722   C     0.20859   0.15885   0.54633   0.00000  Uiso   1.00
C723   C     0.07788   0.10860   0.96447   0.00000  Uiso   1.00
C724   C     0.26713   0.19309   0.52919   0.00000  Uiso   1.00
C725   C     0.18333   0.15321   0.97390   0.00000  Uiso   1.00
C726   C     0.16614   0.13845   0.51842   0.00000  Uiso   1.00
Cu727  Cu    0.10737   0.16108   0.74517   0.00000  Uiso   1.00
Cu728  Cu    0.22596   0.17225   0.75484   0.00000  Uiso   1.00
H729   H     0.01782   0.06659   0.52093   0.00000  Uiso   1.00
H730   H     0.33263   0.22300   0.96951   0.00000  Uiso   1.00
H731   H     0.15123   0.12145   0.60617   0.00000  Uiso   1.00
H732   H     0.19281   0.18788   0.89282   0.00000  Uiso   1.00
H733   H     0.08946   0.09233   0.56673   0.00000  Uiso   1.00
H734   H     0.26433   0.18726   0.92259   0.00000  Uiso   1.00
H735   H     0.23486   0.01352   0.75640   0.00000  Uiso   1.00
H736   H     0.09852   0.31982   0.74357   0.00000  Uiso   1.00
N737   N     0.31506   0.18068   0.76212   0.00000  Uiso   1.00
N738   N     0.01827   0.15265   0.73788   0.00000  Uiso   1.00
O739   O     0.12815   0.23809   0.74686   0.00000  Uiso   1.00
O740   O     0.20518   0.09524   0.75314   0.00000  Uiso   1.00
O741   O     0.22829   0.24753   0.75503   0.00000  Uiso   1.00
O742   O     0.10504   0.08580   0.74498   0.00000  Uiso   1.00
O743   O     0.08851   0.15930   0.80855   0.00000  Uiso   1.00
O744   O     0.24482   0.17403   0.69146   0.00000  Uiso   1.00
O745   O     0.18866   0.16874   0.81671   0.00000  Uiso   1.00
O746   O     0.14468   0.16460   0.68329   0.00000  Uiso   1.00
N747   N     0.31261   0.25223   0.63404   0.00000  Uiso   1.00
H748   H     0.27942   0.27279   0.65275   0.00000  Uiso   1.00
H749   H     0.01602   0.28126   0.61819   0.00000  Uiso   1.00
N750   N     0.33174   0.10593   0.87127   0.00000  Uiso   1.00
H751   H     0.32253   0.14209   0.86637   0.00000  Uiso   1.00
H752   H     0.28883   0.08503   0.88896   0.00000  Uiso   1.00
O753   O     0.31108   0.05779   0.95243   0.00000  Uiso   1.00
C754   C     0.32268   0.00596   0.94343   0.00000  Uiso   1.00
H755   H     0.29980   0.31619   0.97308   0.00000  Uiso   1.00
H756   H     0.04009   0.00411   0.93652   0.00000  Uiso   1.00
C757   C     0.29564   0.31195   0.90470   0.00000  Uiso   1.00
H758   H     0.31778   0.00146   0.87473   0.00000  Uiso   1.00
H759   H     0.30785   0.27259   0.89751   0.00000  Uiso   1.00
C760   C     0.22421   0.30487   0.91428   0.00000  Uiso   1.00
H761   H     0.20139   0.27815   0.94182   0.00000  Uiso   1.00
H762   H     0.20727   0.28708   0.88466   0.00000  Uiso   1.00
H763   H     0.21011   0.01008   0.92292   0.00000  Uiso   1.00
O764   O     0.01915   0.26404   0.54090   0.00000  Uiso   1.00
C765   C     0.07796   0.25217   0.53913   0.00000  Uiso   1.00
H766   H     0.09271   0.22959   0.50784   0.00000  Uiso   1.00
H767   H     0.07721   0.22837   0.56702   0.00000  Uiso   1.00
C768   C     0.12579   0.30441   0.54033   0.00000  Uiso   1.00
H769   H     0.13335   0.32511   0.50951   0.00000  Uiso   1.00
H770   H     0.10731   0.33023   0.56843   0.00000  Uiso   1.00
C771   C     0.18833   0.29580   0.54541   0.00000  Uiso   1.00
H772   H     0.18222   0.27713   0.57695   0.00000  Uiso   1.00
H773   H     0.22230   0.00098   0.54505   0.00000  Uiso   1.00
H774   H     0.20721   0.26995   0.51777   0.00000  Uiso   1.00
N775   N     0.00613   0.21498   0.79323   0.00000  Uiso   1.00
H776   H     0.00411   0.25292   0.78645   0.00000  Uiso   1.00
H777   H     0.30840   0.20641   0.82361   0.00000  Uiso   1.00
N778   N     0.32775   0.11965   0.70588   0.00000  Uiso   1.00
H779   H     0.33215   0.08165   0.71049   0.00000  Uiso   1.00
H780   H     0.02408   0.13106   0.67556   0.00000  Uiso   1.00
C781   C     0.51505   0.26672   0.75143   0.00000  Uiso   1.00
C782   C     0.48495   0.06662   0.74859   0.00000  Uiso   1.00
C783   C     0.43922   0.10633   0.53390   0.00000  Uiso   1.00
C784   C     0.57901   0.18019   0.95690   0.00000  Uiso   1.00
C785   C     0.39670   0.09102   0.50720   0.00000  Uiso   1.00
C786   C     0.61978   0.20012   0.98403   0.00000  Uiso   1.00
C787   C     0.52336   0.32281   0.75219   0.00000  Uiso   1.00
C788   C     0.47667   0.01053   0.74782   0.00000  Uiso   1.00
C789   C     0.46153   0.16114   0.83312   0.00000  Uiso   1.00
C790   C     0.53831   0.17119   0.66704   0.00000  Uiso   1.00
C791   C     0.43870   0.14819   0.88000   0.00000  Uiso   1.00
C792   C     0.56222   0.17803   0.61966   0.00000  Uiso   1.00
C793   C     0.36643   0.09448   0.93822   0.00000  Uiso   1.00
C794   C     0.63743   0.22235   0.55745   0.00000  Uiso   1.00
C795   C     0.37869   0.11670   0.89686   0.00000  Uiso   1.00
C796   C     0.61623   0.21677   0.60338   0.00000  Uiso   1.00
C797   C     0.48264   0.16115   0.90612   0.00000  Uiso   1.00
C798   C     0.52612   0.14949   0.59142   0.00000  Uiso   1.00
C799   C     0.47093   0.14095   0.94789   0.00000  Uiso   1.00
C800   C     0.54192   0.15885   0.54633   0.00000  Uiso   1.00
C801   C     0.41121   0.10860   0.96447   0.00000  Uiso   1.00
C802   C     0.60047   0.19309   0.52919   0.00000  Uiso   1.00
C803   C     0.51667   0.15321   0.97390   0.00000  Uiso   1.00
C804   C     0.49947   0.13845   0.51842   0.00000  Uiso   1.00
Cu805  Cu    0.44071   0.16108   0.74517   0.00000  Uiso   1.00
Cu806  Cu    0.55929   0.17225   0.75484   0.00000  Uiso   1.00
H807   H     0.35115   0.06659   0.52093   0.00000  Uiso   1.00
H808   H     0.66596   0.22300   0.96951   0.00000  Uiso   1.00
H809   H     0.48456   0.12145   0.60617   0.00000  Uiso   1.00
H810   H     0.52614   0.18788   0.89282   0.00000  Uiso   1.00
H811   H     0.42280   0.09233   0.56673   0.00000  Uiso   1.00
H812   H     0.59766   0.18726   0.92259   0.00000  Uiso   1.00
H813   H     0.56819   0.01352   0.75640   0.00000  Uiso   1.00
H814   H     0.43186   0.31982   0.74357   0.00000  Uiso   1.00
N815   N     0.64839   0.18068   0.76212   0.00000  Uiso   1.00
N816   N     0.35161   0.15265   0.73788   0.00000  Uiso   1.00
O817   O     0.46148   0.23809   0.74686   0.00000  Uiso   1.00
O818   O     0.53852   0.09524   0.75314   0.00000  Uiso   1.00
O819   O     0.56163   0.24753   0.75503   0.00000  Uiso   1.00
O820   O     0.43837   0.08580   0.74498   0.00000  Uiso   1.00
O821   O     0.42185   0.15930   0.80855   0.00000  Uiso   1.00
O822   O     0.57815   0.17403   0.69146   0.00000  Uiso   1.00
O823   O     0.52199   0.16874   0.81671   0.00000  Uiso   1.00
O824   O     0.47801   0.16460   0.68329   0.00000  Uiso   1.00
N825   N     0.64594   0.25223   0.63404   0.00000  Uiso   1.00
H826   H     0.61276   0.27279   0.65275   0.00000  Uiso   1.00
H827   H     0.34935   0.28126   0.61819   0.00000  Uiso   1.00
N828   N     0.66507   0.10593   0.87127   0.00000  Uiso   1.00
H829   H     0.65587   0.14209   0.86637   0.00000  Uiso   1.00
H830   H     0.62217   0.08503   0.88896   0.00000  Uiso   1.00
O831   O     0.64441   0.05779   0.95243   0.00000  Uiso   1.00
C832   C     0.65601   0.00596   0.94343   0.00000  Uiso   1.00
H833   H     0.63313   0.31619   0.97308   0.00000  Uiso   1.00
H834   H     0.37343   0.00411   0.93652   0.00000  Uiso   1.00
C835   C     0.62898   0.31195   0.90470   0.00000  Uiso   1.00
H836   H     0.65112   0.00146   0.87473   0.00000  Uiso   1.00
H837   H     0.64118   0.27259   0.89751   0.00000  Uiso   1.00
C838   C     0.55755   0.30487   0.91428   0.00000  Uiso   1.00
H839   H     0.53473   0.27815   0.94182   0.00000  Uiso   1.00
H840   H     0.54060   0.28708   0.88466   0.00000  Uiso   1.00
H841   H     0.54344   0.01008   0.92292   0.00000  Uiso   1.00
O842   O     0.35248   0.26404   0.54090   0.00000  Uiso   1.00
C843   C     0.41129   0.25217   0.53913   0.00000  Uiso   1.00
H844   H     0.42605   0.22959   0.50784   0.00000  Uiso   1.00
H845   H     0.41055   0.22837   0.56702   0.00000  Uiso   1.00
C846   C     0.45913   0.30441   0.54033   0.00000  Uiso   1.00
H847   H     0.46668   0.32511   0.50951   0.00000  Uiso   1.00
H848   H     0.44064   0.33023   0.56843   0.00000  Uiso   1.00
C849   C     0.52166   0.29580   0.54541   0.00000  Uiso   1.00
H850   H     0.51556   0.27713   0.57695   0.00000  Uiso   1.00
H851   H     0.55563   0.00098   0.54505   0.00000  Uiso   1.00
H852   H     0.54054   0.26995   0.51777   0.00000  Uiso   1.00
N853   N     0.33947   0.21498   0.79323   0.00000  Uiso   1.00
H854   H     0.33744   0.25292   0.78645   0.00000  Uiso   1.00
H855   H     0.64173   0.20641   0.82361   0.00000  Uiso   1.00
N856   N     0.66108   0.11965   0.70588   0.00000  Uiso   1.00
H857   H     0.66548   0.08165   0.71049   0.00000  Uiso   1.00
H858   H     0.35741   0.13106   0.67556   0.00000  Uiso   1.00
C859   C     0.84838   0.26672   0.75143   0.00000  Uiso   1.00
C860   C     0.81829   0.06662   0.74859   0.00000  Uiso   1.00
C861   C     0.77255   0.10633   0.53390   0.00000  Uiso   1.00
C862   C     0.91234   0.18019   0.95690   0.00000  Uiso   1.00
C863   C     0.73003   0.09102   0.50720   0.00000  Uiso   1.00
C864   C     0.95312   0.20012   0.98403   0.00000  Uiso   1.00
C865   C     0.85669   0.32281   0.75219   0.00000  Uiso   1.00
C866   C     0.81000   0.01053   0.74782   0.00000  Uiso   1.00
C867   C     0.79486   0.16114   0.83312   0.00000  Uiso   1.00
C868   C     0.87164   0.17119   0.66704   0.00000  Uiso   1.00
C869   C     0.77203   0.14819   0.88000   0.00000  Uiso   1.00
C870   C     0.89556   0.17803   0.61966   0.00000  Uiso   1.00
C871   C     0.69976   0.09448   0.93822   0.00000  Uiso   1.00
C872   C     0.97077   0.22235   0.55745   0.00000  Uiso   1.00
C873   C     0.71203   0.11670   0.89686   0.00000  Uiso   1.00
C874   C     0.94956   0.21677   0.60338   0.00000  Uiso   1.00
C875   C     0.81597   0.16115   0.90612   0.00000  Uiso   1.00
C876   C     0.85945   0.14949   0.59142   0.00000  Uiso   1.00
C877   C     0.80427   0.14095   0.94789   0.00000  Uiso   1.00
C878   C     0.87526   0.15885   0.54633   0.00000  Uiso   1.00
C879   C     0.74455   0.10860   0.96447   0.00000  Uiso   1.00
C880   C     0.93380   0.19309   0.52919   0.00000  Uiso   1.00
C881   C     0.85000   0.15321   0.97390   0.00000  Uiso   1.00
C882   C     0.83281   0.13845   0.51842   0.00000  Uiso   1.00
Cu883  Cu    0.77404   0.16108   0.74517   0.00000  Uiso   1.00
Cu884  Cu    0.89263   0.17225   0.75484   0.00000  Uiso   1.00
H885   H     0.68449   0.06659   0.52093   0.00000  Uiso   1.00
H886   H     0.99929   0.22300   0.96951   0.00000  Uiso   1.00
H887   H     0.81789   0.12145   0.60617   0.00000  Uiso   1.00
H888   H     0.85948   0.18788   0.89282   0.00000  Uiso   1.00
H889   H     0.75613   0.09233   0.56673   0.00000  Uiso   1.00
H890   H     0.93100   0.18726   0.92259   0.00000  Uiso   1.00
H891   H     0.90152   0.01352   0.75640   0.00000  Uiso   1.00
H892   H     0.76519   0.31982   0.74357   0.00000  Uiso   1.00
N893   N     0.98173   0.18068   0.76212   0.00000  Uiso   1.00
N894   N     0.68494   0.15265   0.73788   0.00000  Uiso   1.00
O895   O     0.79482   0.23809   0.74686   0.00000  Uiso   1.00
O896   O     0.87185   0.09524   0.75314   0.00000  Uiso   1.00
O897   O     0.89496   0.24753   0.75503   0.00000  Uiso   1.00
O898   O     0.77171   0.08580   0.74498   0.00000  Uiso   1.00
O899   O     0.75518   0.15930   0.80855   0.00000  Uiso   1.00
O900   O     0.91149   0.17403   0.69146   0.00000  Uiso   1.00
O901   O     0.85532   0.16874   0.81671   0.00000  Uiso   1.00
O902   O     0.81134   0.16460   0.68329   0.00000  Uiso   1.00
N903   N     0.97928   0.25223   0.63404   0.00000  Uiso   1.00
H904   H     0.94609   0.27279   0.65275   0.00000  Uiso   1.00
H905   H     0.68269   0.28126   0.61819   0.00000  Uiso   1.00
N906   N     0.99841   0.10593   0.87127   0.00000  Uiso   1.00
H907   H     0.98920   0.14209   0.86637   0.00000  Uiso   1.00
H908   H     0.95550   0.08503   0.88896   0.00000  Uiso   1.00
O909   O     0.97775   0.05779   0.95243   0.00000  Uiso   1.00
C910   C     0.98935   0.00596   0.94343   0.00000  Uiso   1.00
H911   H     0.96647   0.31619   0.97308   0.00000  Uiso   1.00
H912   H     0.70676   0.00411   0.93652   0.00000  Uiso   1.00
C913   C     0.96231   0.31195   0.90470   0.00000  Uiso   1.00
H914   H     0.98445   0.00146   0.87473   0.00000  Uiso   1.00
H915   H     0.97452   0.27259   0.89751   0.00000  Uiso   1.00
C916   C     0.89088   0.30487   0.91428   0.00000  Uiso   1.00
H917   H     0.86806   0.27815   0.94182   0.00000  Uiso   1.00
H918   H     0.87393   0.28708   0.88466   0.00000  Uiso   1.00
H919   H     0.87678   0.01008   0.92292   0.00000  Uiso   1.00
O920   O     0.68581   0.26404   0.54090   0.00000  Uiso   1.00
C921   C     0.74463   0.25217   0.53913   0.00000  Uiso   1.00
H922   H     0.75938   0.22959   0.50784   0.00000  Uiso   1.00
H923   H     0.74388   0.22837   0.56702   0.00000  Uiso   1.00
C924   C     0.79246   0.30441   0.54033   0.00000  Uiso   1.00
H925   H     0.80002   0.32511   0.50951   0.00000  Uiso   1.00
H926   H     0.77397   0.33023   0.56843   0.00000  Uiso   1.00
C927   C     0.85499   0.29580   0.54541   0.00000  Uiso   1.00
H928   H     0.84889   0.27713   0.57695   0.00000  Uiso   1.00
H929   H     0.88896   0.00098   0.54505   0.00000  Uiso   1.00
H930   H     0.87388   0.26995   0.51777   0.00000  Uiso   1.00
N931   N     0.67280   0.21498   0.79323   0.00000  Uiso   1.00
H932   H     0.67078   0.25292   0.78645   0.00000  Uiso   1.00
H933   H     0.97507   0.20641   0.82361   0.00000  Uiso   1.00
N934   N     0.99441   0.11965   0.70588   0.00000  Uiso   1.00
H935   H     0.99882   0.08165   0.71049   0.00000  Uiso   1.00
H936   H     0.69075   0.13106   0.67556   0.00000  Uiso   1.00
C937   C     0.18171   0.60005   0.75143   0.00000  Uiso   1.00
C938   C     0.15162   0.39995   0.74859   0.00000  Uiso   1.00
C939   C     0.10589   0.43967   0.53390   0.00000  Uiso   1.00
C940   C     0.24567   0.51352   0.95690   0.00000  Uiso   1.00
C941   C     0.06337   0.42435   0.50720   0.00000  Uiso   1.00
C942   C     0.28645   0.53345   0.98403   0.00000  Uiso   1.00
C943   C     0.19002   0.65614   0.75219   0.00000  Uiso   1.00
C944   C     0.14333   0.34386   0.74782   0.00000  Uiso   1.00
C945   C     0.12819   0.49447   0.83312   0.00000  Uiso   1.00
C946   C     0.20498   0.50452   0.66704   0.00000  Uiso   1.00
C947   C     0.10536   0.48152   0.88000   0.00000  Uiso   1.00
C948   C     0.22889   0.51137   0.61966   0.00000  Uiso   1.00
C949   C     0.03309   0.42781   0.93822   0.00000  Uiso   1.00
C950   C     0.30410   0.55568   0.55745   0.00000  Uiso   1.00
C951   C     0.04536   0.45004   0.89686   0.00000  Uiso   1.00
C952   C     0.28290   0.55010   0.60338   0.00000  Uiso   1.00
C953   C     0.14930   0.49449   0.90612   0.00000  Uiso   1.00
C954   C     0.19279   0.48282   0.59142   0.00000  Uiso   1.00
C955   C     0.13760   0.47429   0.94789   0.00000  Uiso   1.00
C956   C     0.20859   0.49219   0.54633   0.00000  Uiso   1.00
C957   C     0.07788   0.44194   0.96447   0.00000  Uiso   1.00
C958   C     0.26713   0.52642   0.52919   0.00000  Uiso   1.00
C959   C     0.18333   0.48655   0.97390   0.00000  Uiso   1.00
C960   C     0.16614   0.47179   0.51842   0.00000  Uiso   1.00
Cu961  Cu    0.10737   0.49441   0.74517   0.00000  Uiso   1.00
Cu962  Cu    0.22596   0.50559   0.75484   0.00000  Uiso   1.00
H963   H     0.01782   0.39992   0.52093   0.00000  Uiso   1.00
H964   H     0.33263   0.55633   0.96951   0.00000  Uiso   1.00
H965   H     0.15123   0.45479   0.60617   0.00000  Uiso   1.00
H966   H     0.19281   0.52121   0.89282   0.00000  Uiso   1.00
H967   H     0.08946   0.42567   0.56673   0.00000  Uiso   1.00
H968   H     0.26433   0.52059   0.92259   0.00000  Uiso   1.00
H969   H     0.23486   0.34686   0.75640   0.00000  Uiso   1.00
H970   H     0.09852   0.65315   0.74357   0.00000  Uiso   1.00
N971   N     0.31506   0.51401   0.76212   0.00000  Uiso   1.00
N972   N     0.01827   0.48599   0.73788   0.00000  Uiso   1.00
O973   O     0.12815   0.57142   0.74686   0.00000  Uiso   1.00
O974   O     0.20518   0.42858   0.75314   0.00000  Uiso   1.00
O975   O     0.22829   0.58086   0.75503   0.00000  Uiso   1.00
O976   O     0.10504   0.41914   0.74498   0.00000  Uiso   1.00
O977   O     0.08851   0.49263   0.80855   0.00000  Uiso   1.00
O978   O     0.24482   0.50737   0.69146   0.00000  Uiso   1.00
O979   O     0.18866   0.50207   0.81671   0.00000  Uiso   1.00
O980   O     0.14468   0.49793   0.68329   0.00000  Uiso   1.00
N981   N     0.31261   0.58556   0.63404   0.00000  Uiso   1.00
H982   H     0.27942   0.60612   0.65275   0.00000  Uiso   1.00
H983   H     0.01602   0.61459   0.61819   0.00000  Uiso   1.00
N984   N     0.33174   0.43926   0.87127   0.00000  Uiso   1.00
H985   H     0.32253   0.47542   0.86637   0.00000  Uiso   1.00
H986   H     0.28883   0.41836   0.88896   0.00000  Uiso   1.00
O987   O     0.31108   0.39112   0.95243   0.00000  Uiso   1.00
C988   C     0.32268   0.33929   0.94343   0.00000  Uiso   1.00
H989   H     0.29980   0.64952   0.97308   0.00000  Uiso   1.00
H990   H     0.04009   0.33744   0.93652   0.00000  Uiso   1.00
C991   C     0.29564   0.64528   0.90470   0.00000  Uiso   1.00
H992   H     0.31778   0.33479   0.87473   0.00000  Uiso   1.00
H993   H     0.30785   0.60592   0.89751   0.00000  Uiso   1.00
C994   C     0.22421   0.63821   0.91428   0.00000  Uiso   1.00
H995   H     0.20139   0.61148   0.94182   0.00000  Uiso   1.00
H996   H     0.20727   0.62042   0.88466   0.00000  Uiso   1.00
H997   H     0.21011   0.34342   0.92292   0.00000  Uiso   1.00
O998   O     0.01915   0.59738   0.54090   0.00000  Uiso   1.00
C999   C     0.07796   0.58550   0.53913   0.00000  Uiso   1.00
H1000  H     0.09271   0.56293   0.50784   0.00000  Uiso   1.00
H1001  H     0.07721   0.56170   0.56702   0.00000  Uiso   1.00
C1002  C     0.12579   0.63774   0.54033   0.00000  Uiso   1.00
H1003  H     0.13335   0.65844   0.50951   0.00000  Uiso   1.00
H1004  H     0.10731   0.66356   0.56843   0.00000  Uiso   1.00
C1005  C     0.18833   0.62913   0.54541   0.00000  Uiso   1.00
H1006  H     0.18222   0.61047   0.57695   0.00000  Uiso   1.00
H1007  H     0.22230   0.33431   0.54505   0.00000  Uiso   1.00
H1008  H     0.20721   0.60328   0.51777   0.00000  Uiso   1.00
N1009  N     0.00613   0.54831   0.79323   0.00000  Uiso   1.00
H1010  H     0.00411   0.58625   0.78645   0.00000  Uiso   1.00
H1011  H     0.30840   0.53974   0.82361   0.00000  Uiso   1.00
N1012  N     0.32775   0.45298   0.70588   0.00000  Uiso   1.00
H1013  H     0.33215   0.41498   0.71049   0.00000  Uiso   1.00
H1014  H     0.02408   0.46440   0.67556   0.00000  Uiso   1.00
C1015  C     0.51505   0.60005   0.75143   0.00000  Uiso   1.00
C1016  C     0.48495   0.39995   0.74859   0.00000  Uiso   1.00
C1017  C     0.43922   0.43967   0.53390   0.00000  Uiso   1.00
C1018  C     0.57901   0.51352   0.95690   0.00000  Uiso   1.00
C1019  C     0.39670   0.42435   0.50720   0.00000  Uiso   1.00
C1020  C     0.61978   0.53345   0.98403   0.00000  Uiso   1.00
C1021  C     0.52336   0.65614   0.75219   0.00000  Uiso   1.00
C1022  C     0.47667   0.34386   0.74782   0.00000  Uiso   1.00
C1023  C     0.46153   0.49447   0.83312   0.00000  Uiso   1.00
C1024  C     0.53831   0.50452   0.66704   0.00000  Uiso   1.00
C1025  C     0.43870   0.48152   0.88000   0.00000  Uiso   1.00
C1026  C     0.56222   0.51137   0.61966   0.00000  Uiso   1.00
C1027  C     0.36643   0.42781   0.93822   0.00000  Uiso   1.00
C1028  C     0.63743   0.55568   0.55745   0.00000  Uiso   1.00
C1029  C     0.37869   0.45004   0.89686   0.00000  Uiso   1.00
C1030  C     0.61623   0.55010   0.60338   0.00000  Uiso   1.00
C1031  C     0.48264   0.49449   0.90612   0.00000  Uiso   1.00
C1032  C     0.52612   0.48282   0.59142   0.00000  Uiso   1.00
C1033  C     0.47093   0.47429   0.94789   0.00000  Uiso   1.00
C1034  C     0.54192   0.49219   0.54633   0.00000  Uiso   1.00
C1035  C     0.41121   0.44194   0.96447   0.00000  Uiso   1.00
C1036  C     0.60047   0.52642   0.52919   0.00000  Uiso   1.00
C1037  C     0.51667   0.48655   0.97390   0.00000  Uiso   1.00
C1038  C     0.49947   0.47179   0.51842   0.00000  Uiso   1.00
Cu1039 Cu    0.44071   0.49441   0.74517   0.00000  Uiso   1.00
Cu1040 Cu    0.55929   0.50559   0.75484   0.00000  Uiso   1.00
H1041  H     0.35115   0.39992   0.52093   0.00000  Uiso   1.00
H1042  H     0.66596   0.55633   0.96951   0.00000  Uiso   1.00
H1043  H     0.48456   0.45479   0.60617   0.00000  Uiso   1.00
H1044  H     0.52614   0.52121   0.89282   0.00000  Uiso   1.00
H1045  H     0.42280   0.42567   0.56673   0.00000  Uiso   1.00
H1046  H     0.59766   0.52059   0.92259   0.00000  Uiso   1.00
H1047  H     0.56819   0.34686   0.75640   0.00000  Uiso   1.00
H1048  H     0.43186   0.65315   0.74357   0.00000  Uiso   1.00
N1049  N     0.64839   0.51401   0.76212   0.00000  Uiso   1.00
N1050  N     0.35161   0.48599   0.73788   0.00000  Uiso   1.00
O1051  O     0.46148   0.57142   0.74686   0.00000  Uiso   1.00
O1052  O     0.53852   0.42858   0.75314   0.00000  Uiso   1.00
O1053  O     0.56163   0.58086   0.75503   0.00000  Uiso   1.00
O1054  O     0.43837   0.41914   0.74498   0.00000  Uiso   1.00
O1055  O     0.42185   0.49263   0.80855   0.00000  Uiso   1.00
O1056  O     0.57815   0.50737   0.69146   0.00000  Uiso   1.00
O1057  O     0.52199   0.50207   0.81671   0.00000  Uiso   1.00
O1058  O     0.47801   0.49793   0.68329   0.00000  Uiso   1.00
N1059  N     0.64594   0.58556   0.63404   0.00000  Uiso   1.00
H1060  H     0.61276   0.60612   0.65275   0.00000  Uiso   1.00
H1061  H     0.34935   0.61459   0.61819   0.00000  Uiso   1.00
N1062  N     0.66507   0.43926   0.87127   0.00000  Uiso   1.00
H1063  H     0.65587   0.47542   0.86637   0.00000  Uiso   1.00
H1064  H     0.62217   0.41836   0.88896   0.00000  Uiso   1.00
O1065  O     0.64441   0.39112   0.95243   0.00000  Uiso   1.00
C1066  C     0.65601   0.33929   0.94343   0.00000  Uiso   1.00
H1067  H     0.63313   0.64952   0.97308   0.00000  Uiso   1.00
H1068  H     0.37343   0.33744   0.93652   0.00000  Uiso   1.00
C1069  C     0.62898   0.64528   0.90470   0.00000  Uiso   1.00
H1070  H     0.65112   0.33479   0.87473   0.00000  Uiso   1.00
H1071  H     0.64118   0.60592   0.89751   0.00000  Uiso   1.00
C1072  C     0.55755   0.63821   0.91428   0.00000  Uiso   1.00
H1073  H     0.53473   0.61148   0.94182   0.00000  Uiso   1.00
H1074  H     0.54060   0.62042   0.88466   0.00000  Uiso   1.00
H1075  H     0.54344   0.34342   0.92292   0.00000  Uiso   1.00
O1076  O     0.35248   0.59738   0.54090   0.00000  Uiso   1.00
C1077  C     0.41129   0.58550   0.53913   0.00000  Uiso   1.00
H1078  H     0.42605   0.56293   0.50784   0.00000  Uiso   1.00
H1079  H     0.41055   0.56170   0.56702   0.00000  Uiso   1.00
C1080  C     0.45913   0.63774   0.54033   0.00000  Uiso   1.00
H1081  H     0.46668   0.65844   0.50951   0.00000  Uiso   1.00
H1082  H     0.44064   0.66356   0.56843   0.00000  Uiso   1.00
C1083  C     0.52166   0.62913   0.54541   0.00000  Uiso   1.00
H1084  H     0.51556   0.61047   0.57695   0.00000  Uiso   1.00
H1085  H     0.55563   0.33431   0.54505   0.00000  Uiso   1.00
H1086  H     0.54054   0.60328   0.51777   0.00000  Uiso   1.00
N1087  N     0.33947   0.54831   0.79323   0.00000  Uiso   1.00
H1088  H     0.33744   0.58625   0.78645   0.00000  Uiso   1.00
H1089  H     0.64173   0.53974   0.82361   0.00000  Uiso   1.00
N1090  N     0.66108   0.45298   0.70588   0.00000  Uiso   1.00
H1091  H     0.66548   0.41498   0.71049   0.00000  Uiso   1.00
H1092  H     0.35741   0.46440   0.67556   0.00000  Uiso   1.00
C1093  C     0.84838   0.60005   0.75143   0.00000  Uiso   1.00
C1094  C     0.81829   0.39995   0.74859   0.00000  Uiso   1.00
C1095  C     0.77255   0.43967   0.53390   0.00000  Uiso   1.00
C1096  C     0.91234   0.51352   0.95690   0.00000  Uiso   1.00
C1097  C     0.73003   0.42435   0.50720   0.00000  Uiso   1.00
C1098  C     0.95312   0.53345   0.98403   0.00000  Uiso   1.00
C1099  C     0.85669   0.65614   0.75219   0.00000  Uiso   1.00
C1100  C     0.81000   0.34386   0.74782   0.00000  Uiso   1.00
C1101  C     0.79486   0.49447   0.83312   0.00000  Uiso   1.00
C1102  C     0.87164   0.50452   0.66704   0.00000  Uiso   1.00
C1103  C     0.77203   0.48152   0.88000   0.00000  Uiso   1.00
C1104  C     0.89556   0.51137   0.61966   0.00000  Uiso   1.00
C1105  C     0.69976   0.42781   0.93822   0.00000  Uiso   1.00
C1106  C     0.97077   0.55568   0.55745   0.00000  Uiso   1.00
C1107  C     0.71203   0.45004   0.89686   0.00000  Uiso   1.00
C1108  C     0.94956   0.55010   0.60338   0.00000  Uiso   1.00
C1109  C     0.81597   0.49449   0.90612   0.00000  Uiso   1.00
C1110  C     0.85945   0.48282   0.59142   0.00000  Uiso   1.00
C1111  C     0.80427   0.47429   0.94789   0.00000  Uiso   1.00
C1112  C     0.87526   0.49219   0.54633   0.00000  Uiso   1.00
C1113  C     0.74455   0.44194   0.96447   0.00000  Uiso   1.00
C1114  C     0.93380   0.52642   0.52919   0.00000  Uiso   1.00
C1115  C     0.85000   0.48655   0.97390   0.00000  Uiso   1.00
C1116  C     0.83281   0.47179   0.51842   0.00000  Uiso   1.00
Cu1117 Cu    0.77404   0.49441   0.74517   0.00000  Uiso   1.00
Cu1118 Cu    0.89263   0.50559   0.75484   0.00000  Uiso   1.00
H1119  H     0.68449   0.39992   0.52093   0.00000  Uiso   1.00
H1120  H     0.99929   0.55633   0.96951   0.00000  Uiso   1.00
H1121  H     0.81789   0.45479   0.60617   0.00000  Uiso   1.00
H1122  H     0.85948   0.52121   0.89282   0.00000  Uiso   1.00
H1123  H     0.75613   0.42567   0.56673   0.00000  Uiso   1.00
H1124  H     0.93100   0.52059   0.92259   0.00000  Uiso   1.00
H1125  H     0.90152   0.34686   0.75640   0.00000  Uiso   1.00
H1126  H     0.76519   0.65315   0.74357   0.00000  Uiso   1.00
N1127  N     0.98173   0.51401   0.76212   0.00000  Uiso   1.00
N1128  N     0.68494   0.48599   0.73788   0.00000  Uiso   1.00
O1129  O     0.79482   0.57142   0.74686   0.00000  Uiso   1.00
O1130  O     0.87185   0.42858   0.75314   0.00000  Uiso   1.00
O1131  O     0.89496   0.58086   0.75503   0.00000  Uiso   1.00
O1132  O     0.77171   0.41914   0.74498   0.00000  Uiso   1.00
O1133  O     0.75518   0.49263   0.80855   0.00000  Uiso   1.00
O1134  O     0.91149   0.50737   0.69146   0.00000  Uiso   1.00
O1135  O     0.85532   0.50207   0.81671   0.00000  Uiso   1.00
O1136  O     0.81134   0.49793   0.68329   0.00000  Uiso   1.00
N1137  N     0.97928   0.58556   0.63404   0.00000  Uiso   1.00
H1138  H     0.94609   0.60612   0.65275   0.00000  Uiso   1.00
H1139  H     0.68269   0.61459   0.61819   0.00000  Uiso   1.00
N1140  N     0.99841   0.43926   0.87127   0.00000  Uiso   1.00
H1141  H     0.98920   0.47542   0.86637   0.00000  Uiso   1.00
H1142  H     0.95550   0.41836   0.88896   0.00000  Uiso   1.00
O1143  O     0.97775   0.39112   0.95243   0.00000  Uiso   1.00
C1144  C     0.98935   0.33929   0.94343   0.00000  Uiso   1.00
H1145  H     0.96647   0.64952   0.97308   0.00000  Uiso   1.00
H1146  H     0.70676   0.33744   0.93652   0.00000  Uiso   1.00
C1147  C     0.96231   0.64528   0.90470   0.00000  Uiso   1.00
H1148  H     0.98445   0.33479   0.87473   0.00000  Uiso   1.00
H1149  H     0.97452   0.60592   0.89751   0.00000  Uiso   1.00
C1150  C     0.89088   0.63821   0.91428   0.00000  Uiso   1.00
H1151  H     0.86806   0.61148   0.94182   0.00000  Uiso   1.00
H1152  H     0.87393   0.62042   0.88466   0.00000  Uiso   1.00
H1153  H     0.87678   0.34342   0.92292   0.00000  Uiso   1.00
O1154  O     0.68581   0.59738   0.54090   0.00000  Uiso   1.00
C1155  C     0.74463   0.58550   0.53913   0.00000  Uiso   1.00
H1156  H     0.75938   0.56293   0.50784   0.00000  Uiso   1.00
H1157  H     0.74388   0.56170   0.56702   0.00000  Uiso   1.00
C1158  C     0.79246   0.63774   0.54033   0.00000  Uiso   1.00
H1159  H     0.80002   0.65844   0.50951   0.00000  Uiso   1.00
H1160  H     0.77397   0.66356   0.56843   0.00000  Uiso   1.00
C1161  C     0.85499   0.62913   0.54541   0.00000  Uiso   1.00
H1162  H     0.84889   0.61047   0.57695   0.00000  Uiso   1.00
H1163  H     0.88896   0.33431   0.54505   0.00000  Uiso   1.00
H1164  H     0.87388   0.60328   0.51777   0.00000  Uiso   1.00
N1165  N     0.67280   0.54831   0.79323   0.00000  Uiso   1.00
H1166  H     0.67078   0.58625   0.78645   0.00000  Uiso   1.00
H1167  H     0.97507   0.53974   0.82361   0.00000  Uiso   1.00
N1168  N     0.99441   0.45298   0.70588   0.00000  Uiso   1.00
H1169  H     0.99882   0.41498   0.71049   0.00000  Uiso   1.00
H1170  H     0.69075   0.46440   0.67556   0.00000  Uiso   1.00
C1171  C     0.18171   0.93338   0.75143   0.00000  Uiso   1.00
C1172  C     0.15162   0.73328   0.74859   0.00000  Uiso   1.00
C1173  C     0.10589   0.77300   0.53390   0.00000  Uiso   1.00
C1174  C     0.24567   0.84686   0.95690   0.00000  Uiso   1.00
C1175  C     0.06337   0.75769   0.50720   0.00000  Uiso   1.00
C1176  C     0.28645   0.86679   0.98403   0.00000  Uiso   1.00
C1177  C     0.19002   0.98948   0.75219   0.00000  Uiso   1.00
C1178  C     0.14333   0.67720   0.74782   0.00000  Uiso   1.00
C1179  C     0.12819   0.82780   0.83312   0.00000  Uiso   1.00
C1180  C     0.20498   0.83786   0.66704   0.00000  Uiso   1.00
C1181  C     0.10536   0.81485   0.88000   0.00000  Uiso   1.00
C1182  C     0.22889   0.84470   0.61966   0.00000  Uiso   1.00
C1183  C     0.03309   0.76114   0.93822   0.00000  Uiso   1.00
C1184  C     0.30410   0.88901   0.55745   0.00000  Uiso   1.00
C1185  C     0.04536   0.78337   0.89686   0.00000  Uiso   1.00
C1186  C     0.28290   0.88343   0.60338   0.00000  Uiso   1.00
C1187  C     0.14930   0.82782   0.90612   0.00000  Uiso   1.00
C1188  C     0.19279   0.81615   0.59142   0.00000  Uiso   1.00
C1189  C     0.13760   0.80762   0.94789   0.00000  Uiso   1.00
C1190  C     0.20859   0.82552   0.54633   0.00000  Uiso   1.00
C1191  C     0.07788   0.77527   0.96447   0.00000  Uiso   1.00
C1192  C     0.26713   0.85975   0.52919   0.00000  Uiso   1.00
C1193  C     0.18333   0.81988   0.97390   0.00000  Uiso   1.00
C1194  C     0.16614   0.80512   0.51842   0.00000  Uiso   1.00
Cu1195 Cu    0.10737   0.82775   0.74517   0.00000  Uiso   1.00
Cu1196 Cu    0.22596   0.83892   0.75484   0.00000  Uiso   1.00
H1197  H     0.01782   0.73326   0.52093   0.00000  Uiso   1.00
H1198  H     0.33263   0.88966   0.96951   0.00000  Uiso   1.00
H1199  H     0.15123   0.78812   0.60617   0.00000  Uiso   1.00
H1200  H     0.19281   0.85455   0.89282   0.00000  Uiso   1.00
H1201  H     0.08946   0.75900   0.56673   0.00000  Uiso   1.00
H1202  H     0.26433   0.85393   0.92259   0.00000  Uiso   1.00
H1203  H     0.23486   0.68019   0.75640   0.00000  Uiso   1.00
H1204  H     0.09852   0.98649   0.74357   0.00000  Uiso   1.00
N1205  N     0.31506   0.84735   0.76212   0.00000  Uiso   1.00
N1206  N     0.01827   0.81932   0.73788   0.00000  Uiso   1.00
O1207  O     0.12815   0.90476   0.74686   0.00000  Uiso   1.00
O1208  O     0.20518   0.76191   0.75314   0.00000  Uiso   1.00
O1209  O     0.22829   0.91420   0.75503   0.00000  Uiso   1.00
O1210  O     0.10504   0.75247   0.74498   0.00000  Uiso   1.00
O1211  O     0.08851   0.82597   0.80855   0.00000  Uiso   1.00
O1212  O     0.24482   0.84070   0.69146   0.00000  Uiso   1.00
O1213  O     0.18866   0.83540   0.81671   0.00000  Uiso   1.00
O1214  O     0.14468   0.83126   0.68329   0.00000  Uiso   1.00
N1215  N     0.31261   0.91890   0.63404   0.00000  Uiso   1.00
H1216  H     0.27942   0.93945   0.65275   0.00000  Uiso   1.00
H1217  H     0.01602   0.94792   0.61819   0.00000  Uiso   1.00
N1218  N     0.33174   0.77259   0.87127   0.00000  Uiso   1.00
H1219  H     0.32253   0.80875   0.86637   0.00000  Uiso   1.00
H1220  H     0.28883   0.75170   0.88896   0.00000  Uiso   1.00
O1221  O     0.31108   0.72445   0.95243   0.00000  Uiso   1.00
C1222  C     0.32268   0.67262   0.94343   0.00000  Uiso   1.00
H1223  H     0.29980   0.98286   0.97308   0.00000  Uiso   1.00
H1224  H     0.04009   0.67078   0.93652   0.00000  Uiso   1.00
C1225  C     0.29564   0.97862   0.90470   0.00000  Uiso   1.00
H1226  H     0.31778   0.66813   0.87473   0.00000  Uiso   1.00
H1227  H     0.30785   0.93926   0.89751   0.00000  Uiso   1.00
C1228  C     0.22421   0.97154   0.91428   0.00000  Uiso   1.00
H1229  H     0.20139   0.94481   0.94182   0.00000  Uiso   1.00
H1230  H     0.20727   0.95375   0.88466   0.00000  Uiso   1.00
H1231  H     0.21011   0.67675   0.92292   0.00000  Uiso   1.00
O1232  O     0.01915   0.93071   0.54090   0.00000  Uiso   1.00
C1233  C     0.07796   0.91883   0.53913   0.00000  Uiso   1.00
H1234  H     0.09271   0.89626   0.50784   0.00000  Uiso   1.00
H1235  H     0.07721   0.89503   0.56702   0.00000  Uiso   1.00
C1236  C     0.12579   0.97107   0.54033   0.00000  Uiso   1.00
H1237  H     0.13335   0.99178   0.50951   0.00000  Uiso   1.00
H1238  H     0.10731   0.99689   0.56843   0.00000  Uiso   1.00
C1239  C     0.18833   0.96247   0.54541   0.00000  Uiso   1.00
H1240  H     0.18222   0.94380   0.57695   0.00000  Uiso   1.00
H1241  H     0.22230   0.66764   0.54505   0.00000  Uiso   1.00
H1242  H     0.20721   0.93662   0.51777   0.00000  Uiso   1.00
N1243  N     0.00613   0.88164   0.79323   0.00000  Uiso   1.00
H1244  H     0.00411   0.91958   0.78645   0.00000  Uiso   1.00
H1245  H     0.30840   0.87307   0.82361   0.00000  Uiso   1.00
N1246  N     0.32775   0.78631   0.70588   0.00000  Uiso   1.00
H1247  H     0.33215   0.74831   0.71049   0.00000  Uiso   1.00
H1248  H     0.02408   0.79773   0.67556   0.00000  Uiso   1.00
C1249  C     0.51505   0.93338   0.75143   0.00000  Uiso   1.00
C1250  C     0.48495   0.73328   0.74859   0.00000  Uiso   1.00
C1251  C     0.43922   0.77300   0.53390   0.00000  Uiso   1.00
C1252  C     0.57901   0.84686   0.95690   0.00000  Uiso   1.00
C1253  C     0.39670   0.75769   0.50720   0.00000  Uiso   1.00
C1254  C     0.61978   0.86679   0.98403   0.00000  Uiso   1.00
C1255  C     0.52336   0.98948   0.75219   0.00000  Uiso   1.00
C1256  C     0.47667   0.67720   0.74782   0.00000  Uiso   1.00
C1257  C     0.46153   0.82780   0.83312   0.00000  Uiso   1.00
C1258  C     0.53831   0.83786   0.66704   0.00000  Uiso   1.00
C1259  C     0.43870   0.81485   0.88000   0.00000  Uiso   1.00
C1260  C     0.56222   0.84470   0.61966   0.00000  Uiso   1.00
C1261  C     0.36643   0.76114   0.93822   0.00000  Uiso   1.00
C1262  C     0.63743   0.88901   0.55745   0.00000  Uiso   1.00
C1263  C     0.37869   0.78337   0.89686   0.00000  Uiso   1.00
C1264  C     0.61623   0.88343   0.60338   0.00000  Uiso   1.00
C1265  C     0.48264   0.82782   0.90612   0.00000  Uiso   1.00
C1266  C     0.52612   0.81615   0.59142   0.00000  Uiso   1.00
C1267  C     0.47093   0.80762   0.94789   0.00000  Uiso   1.00
C1268  C     0.54192   0.82552   0.54633   0.00000  Uiso   1.00
C1269  C     0.41121   0.77527   0.96447   0.00000  Uiso   1.00
C1270  C     0.60047   0.85975   0.52919   0.00000  Uiso   1.00
C1271  C     0.51667   0.81988   0.97390   0.00000  Uiso   1.00
C1272  C     0.49947   0.80512   0.51842   0.00000  Uiso   1.00
Cu1273 Cu    0.44071   0.82775   0.74517   0.00000  Uiso   1.00
Cu1274 Cu    0.55929   0.83892   0.75484   0.00000  Uiso   1.00
H1275  H     0.35115   0.73326   0.52093   0.00000  Uiso   1.00
H1276  H     0.66596   0.88966   0.96951   0.00000  Uiso   1.00
H1277  H     0.48456   0.78812   0.60617   0.00000  Uiso   1.00
H1278  H     0.52614   0.85455   0.89282   0.00000  Uiso   1.00
H1279  H     0.42280   0.75900   0.56673   0.00000  Uiso   1.00
H1280  H     0.59766   0.85393   0.92259   0.00000  Uiso   1.00
H1281  H     0.56819   0.68019   0.75640   0.00000  Uiso   1.00
H1282  H     0.43186   0.98649   0.74357   0.00000  Uiso   1.00
N1283  N     0.64839   0.84735   0.76212   0.00000  Uiso   1.00
N1284  N     0.35161   0.81932   0.73788   0.00000  Uiso   1.00
O1285  O     0.46148   0.90476   0.74686   0.00000  Uiso   1.00
O1286  O     0.53852   0.76191   0.75314   0.00000  Uiso   1.00
O1287  O     0.56163   0.91420   0.75503   0.00000  Uiso   1.00
O1288  O     0.43837   0.75247   0.74498   0.00000  Uiso   1.00
O1289  O     0.42185   0.82597   0.80855   0.00000  Uiso   1.00
O1290  O     0.57815   0.84070   0.69146   0.00000  Uiso   1.00
O1291  O     0.52199   0.83540   0.81671   0.00000  Uiso   1.00
O1292  O     0.47801   0.83126   0.68329   0.00000  Uiso   1.00
N1293  N     0.64594   0.91890   0.63404   0.00000  Uiso   1.00
H1294  H     0.61276   0.93945   0.65275   0.00000  Uiso   1.00
H1295  H     0.34935   0.94792   0.61819   0.00000  Uiso   1.00
N1296  N     0.66507   0.77259   0.87127   0.00000  Uiso   1.00
H1297  H     0.65587   0.80875   0.86637   0.00000  Uiso   1.00
H1298  H     0.62217   0.75170   0.88896   0.00000  Uiso   1.00
O1299  O     0.64441   0.72445   0.95243   0.00000  Uiso   1.00
C1300  C     0.65601   0.67262   0.94343   0.00000  Uiso   1.00
H1301  H     0.63313   0.98286   0.97308   0.00000  Uiso   1.00
H1302  H     0.37343   0.67078   0.93652   0.00000  Uiso   1.00
C1303  C     0.62898   0.97862   0.90470   0.00000  Uiso   1.00
H1304  H     0.65112   0.66813   0.87473   0.00000  Uiso   1.00
H1305  H     0.64118   0.93926   0.89751   0.00000  Uiso   1.00
C1306  C     0.55755   0.97154   0.91428   0.00000  Uiso   1.00
H1307  H     0.53473   0.94481   0.94182   0.00000  Uiso   1.00
H1308  H     0.54060   0.95375   0.88466   0.00000  Uiso   1.00
H1309  H     0.54344   0.67675   0.92292   0.00000  Uiso   1.00
O1310  O     0.35248   0.93071   0.54090   0.00000  Uiso   1.00
C1311  C     0.41129   0.91883   0.53913   0.00000  Uiso   1.00
H1312  H     0.42605   0.89626   0.50784   0.00000  Uiso   1.00
H1313  H     0.41055   0.89503   0.56702   0.00000  Uiso   1.00
C1314  C     0.45913   0.97107   0.54033   0.00000  Uiso   1.00
H1315  H     0.46668   0.99178   0.50951   0.00000  Uiso   1.00
H1316  H     0.44064   0.99689   0.56843   0.00000  Uiso   1.00
C1317  C     0.52166   0.96247   0.54541   0.00000  Uiso   1.00
H1318  H     0.51556   0.94380   0.57695   0.00000  Uiso   1.00
H1319  H     0.55563   0.66764   0.54505   0.00000  Uiso   1.00
H1320  H     0.54054   0.93662   0.51777   0.00000  Uiso   1.00
N1321  N     0.33947   0.88164   0.79323   0.00000  Uiso   1.00
H1322  H     0.33744   0.91958   0.78645   0.00000  Uiso   1.00
H1323  H     0.64173   0.87307   0.82361   0.00000  Uiso   1.00
N1324  N     0.66108   0.78631   0.70588   0.00000  Uiso   1.00
H1325  H     0.66548   0.74831   0.71049   0.00000  Uiso   1.00
H1326  H     0.35741   0.79773   0.67556   0.00000  Uiso   1.00
C1327  C     0.84838   0.93338   0.75143   0.00000  Uiso   1.00
C1328  C     0.81829   0.73328   0.74859   0.00000  Uiso   1.00
C1329  C     0.77255   0.77300   0.53390   0.00000  Uiso   1.00
C1330  C     0.91234   0.84686   0.95690   0.00000  Uiso   1.00
C1331  C     0.73003   0.75769   0.50720   0.00000  Uiso   1.00
C1332  C     0.95312   0.86679   0.98403   0.00000  Uiso   1.00
C1333  C     0.85669   0.98948   0.75219   0.00000  Uiso   1.00
C1334  C     0.81000   0.67720   0.74782   0.00000  Uiso   1.00
C1335  C     0.79486   0.82780   0.83312   0.00000  Uiso   1.00
C1336  C     0.87164   0.83786   0.66704   0.00000  Uiso   1.00
C1337  C     0.77203   0.81485   0.88000   0.00000  Uiso   1.00
C1338  C     0.89556   0.84470   0.61966   0.00000  Uiso   1.00
C1339  C     0.69976   0.76114   0.93822   0.00000  Uiso   1.00
C1340  C     0.97077   0.88901   0.55745   0.00000  Uiso   1.00
C1341  C     0.71203   0.78337   0.89686   0.00000  Uiso   1.00
C1342  C     0.94956   0.88343   0.60338   0.00000  Uiso   1.00
C1343  C     0.81597   0.82782   0.90612   0.00000  Uiso   1.00
C1344  C     0.85945   0.81615   0.59142   0.00000  Uiso   1.00
C1345  C     0.80427   0.80762   0.94789   0.00000  Uiso   1.00
C1346  C     0.87526   0.82552   0.54633   0.00000  Uiso   1.00
C1347  C     0.74455   0.77527   0.96447   0.00000  Uiso   1.00
C1348  C     0.93380   0.85975   0.52919   0.00000  Uiso   1.00
C1349  C     0.85000   0.81988   0.97390   0.00000  Uiso   1.00
C1350  C     0.83281   0.80512   0.51842   0.00000  Uiso   1.00
Cu1351 Cu    0.77404   0.82775   0.74517   0.00000  Uiso   1.00
Cu1352 Cu    0.89263   0.83892   0.75484   0.00000  Uiso   1.00
H1353  H     0.68449   0.73326   0.52093   0.00000  Uiso   1.00
H1354  H     0.99929   0.88966   0.96951   0.00000  Uiso   1.00
H1355  H     0.81789   0.78812   0.60617   0.00000  Uiso   1.00
H1356  H     0.85948   0.85455   0.89282   0.00000  Uiso   1.00
H1357  H     0.75613   0.75900   0.56673   0.00000  Uiso   1.00
H1358  H     0.93100   0.85393   0.92259   0.00000  Uiso   1.00
H1359  H     0.90152   0.68019   0.75640   0.00000  Uiso   1.00
H1360  H     0.76519   0.98649   0.74357   0.00000  Uiso   1.00
N1361  N     0.98173   0.84735   0.76212   0.00000  Uiso   1.00
N1362  N     0.68494   0.81932   0.73788   0.00000  Uiso   1.00
O1363  O     0.79482   0.90476   0.74686   0.00000  Uiso   1.00
O1364  O     0.87185   0.76191   0.75314   0.00000  Uiso   1.00
O1365  O     0.89496   0.91420   0.75503   0.00000  Uiso   1.00
O1366  O     0.77171   0.75247   0.74498   0.00000  Uiso   1.00
O1367  O     0.75518   0.82597   0.80855   0.00000  Uiso   1.00
O1368  O     0.91149   0.84070   0.69146   0.00000  Uiso   1.00
O1369  O     0.85532   0.83540   0.81671   0.00000  Uiso   1.00
O1370  O     0.81134   0.83126   0.68329   0.00000  Uiso   1.00
N1371  N     0.97928   0.91890   0.63404   0.00000  Uiso   1.00
H1372  H     0.94609   0.93945   0.65275   0.00000  Uiso   1.00
H1373  H     0.68269   0.94792   0.61819   0.00000  Uiso   1.00
N1374  N     0.99841   0.77259   0.87127   0.00000  Uiso   1.00
H1375  H     0.98920   0.80875   0.86637   0.00000  Uiso   1.00
H1376  H     0.95550   0.75170   0.88896   0.00000  Uiso   1.00
O1377  O     0.97775   0.72445   0.95243   0.00000  Uiso   1.00
C1378  C     0.98935   0.67262   0.94343   0.00000  Uiso   1.00
H1379  H     0.96647   0.98286   0.97308   0.00000  Uiso   1.00
H1380  H     0.70676   0.67078   0.93652   0.00000  Uiso   1.00
C1381  C     0.96231   0.97862   0.90470   0.00000  Uiso   1.00
H1382  H     0.98445   0.66813   0.87473   0.00000  Uiso   1.00
H1383  H     0.97452   0.93926   0.89751   0.00000  Uiso   1.00
C1384  C     0.89088   0.97154   0.91428   0.00000  Uiso   1.00
H1385  H     0.86806   0.94481   0.94182   0.00000  Uiso   1.00
H1386  H     0.87393   0.95375   0.88466   0.00000  Uiso   1.00
H1387  H     0.87678   0.67675   0.92292   0.00000  Uiso   1.00
O1388  O     0.68581   0.93071   0.54090   0.00000  Uiso   1.00
C1389  C     0.74463   0.91883   0.53913   0.00000  Uiso   1.00
H1390  H     0.75938   0.89626   0.50784   0.00000  Uiso   1.00
H1391  H     0.74388   0.89503   0.56702   0.00000  Uiso   1.00
C1392  C     0.79246   0.97107   0.54033   0.00000  Uiso   1.00
H1393  H     0.80002   0.99178   0.50951   0.00000  Uiso   1.00
H1394  H     0.77397   0.99689   0.56843   0.00000  Uiso   1.00
C1395  C     0.85499   0.96247   0.54541   0.00000  Uiso   1.00
H1396  H     0.84889   0.94380   0.57695   0.00000  Uiso   1.00
H1397  H     0.88896   0.66764   0.54505   0.00000  Uiso   1.00
H1398  H     0.87388   0.93662   0.51777   0.00000  Uiso   1.00
N1399  N     0.67280   0.88164   0.79323   0.00000  Uiso   1.00
H1400  H     0.67078   0.91958   0.78645   0.00000  Uiso   1.00
H1401  H     0.97507   0.87307   0.82361   0.00000  Uiso   1.00
N1402  N     0.99441   0.78631   0.70588   0.00000  Uiso   1.00
H1403  H     0.99882   0.74831   0.71049   0.00000  Uiso   1.00
H1404  H     0.69075   0.79773   0.67556   0.00000  Uiso   1.00
loop_
_geom_bond_atom_site_label_1
_geom_bond_atom_site_label_2
_geom_bond_distance
_geom_bond_site_symmetry_2
_ccdc_geom_bond_type
C1     O37     1.294   .     A
C1     C7      1.428   .     S
C1     O39     1.292   .     A
C2     O38     1.294   .     A
C2     C8      1.428   .     S
C2     O40     1.292   .     A
C3     C24     1.415   .     A
C3     H31     1.076   .     S
C3     C5      1.389   .     A
C4     C6      1.383   .     A
C4     C23     1.411   .     A
C4     H32     1.073   .     S
C5     H27     1.083   .     S
C5     C723    1.398   1_554 S
C6     H28     1.084   .     S
C6     C724    1.394   .     S
C7     C242    1.331   .     S
C7     H267    1.087   .     S
C8     C475    1.331   1_545 S
C8     H502    1.087   1_545 S
C9     O43     1.304   .     A
C9     C11     1.480   .     S
C9     O41     1.306   .     A
C10    O42     1.301   .     A
C10    O44     1.302   .     A
C10    C12     1.466   .     S
C11    C15     1.412   .     A
C11    C17     1.397   .     A
C12    C16     1.408   .     A
C12    C18     1.394   .     A
C13    C21     1.416   .     A
C13    C15     1.413   .     A
C13    O207    1.386   1_455 S
C14    C16     1.414   .     A
C14    C22     1.413   .     A
C14    O140    1.385   .     S
C15    N204    1.440   1_455 S
C16    N45     1.443   .     S
C17    H30     1.075   .     S
C17    C19     1.403   .     A
C18    H29     1.076   .     S
C18    C20     1.404   .     A
C19    C21     1.415   .     A
C19    C23     1.427   .     A
C20    C24     1.431   .     A
C20    C22     1.421   .     A
C21    C707    1.398   .     S
C22    C708    1.394   1_554 S
C23    C726    1.422   .     S
C24    C725    1.422   1_554 S
Cu25   O40     1.949   .     S
Cu25   O37     1.950   .     S
Cu25   O44     1.919   .     S
Cu25   O41     1.933   .     S
Cu25   Cu26    2.702   .     S
Cu25   N36     2.030   .     S
Cu26   O39     1.949   .     S
Cu26   O43     1.919   .     S
Cu26   O38     1.950   .     S
Cu26   O42     1.933   .     S
Cu26   N35     2.030   .     S
H33    C475    1.087   1_545 S
H34    C242    1.087   .     S
N35    N114    1.283   .     S
N35    N151    1.385   .     S
N36    N191    1.283   1_455 S
N36    N232    1.385   1_455 S
N45    H46     1.046   .     S
N45    H125    1.041   .     S
H47    N201    1.041   1_455 S
N48    H50     1.043   .     S
N48    H49     1.043   .     S
N48    C93     1.440   .     S
O51    C52     1.421   .     S
O51    C91     1.386   .     S
C52    H521    1.107   1_545 S
C52    H132    1.118   .     S
C52    C523    1.533   1_545 S
H53    C286    1.107   .     S
H54    C208    1.118   1_455 S
C55    H57     1.109   .     S
C55    C58     1.528   .     S
C55    C286    1.533   .     S
C55    H290    1.109   .     S
H56    C523    1.109   1_545 S
C58    H60     1.110   .     S
C58    H59     1.109   .     S
C58    H295    1.110   .     S
H61    C526    1.110   1_545 S
O62    C63     1.412   .     S
O62    C170    1.385   1_455 S
C63    H65     1.117   .     S
C63    C66     1.530   .     S
C63    H64     1.112   .     S
C66    H68     1.111   .     S
C66    C69     1.521   .     S
C66    H67     1.112   .     S
C69    H72     1.105   .     S
C69    H70     1.111   .     S
C69    H305    1.110   .     S
H71    C537    1.110   1_545 S
N73    H74     1.044   .     S
N73    N191    1.385   1_455 S
N73    H231    1.044   1_455 S
H75    N151    1.044   .     S
N76    H77     1.044   .     S
N76    N114    1.385   .     S
N76    H156    1.045   .     S
H78    N232    1.045   1_455 S
C79    O115    1.294   .     A
C79    C85     1.428   .     S
C79    O117    1.292   .     A
C80    O116    1.294   .     A
C80    C86     1.428   .     S
C80    O118    1.292   .     A
C81    C102    1.415   .     A
C81    H109    1.076   .     S
C81    C83     1.389   .     A
C82    C84     1.383   .     A
C82    C101    1.411   .     A
C82    H110    1.073   .     S
C83    H105    1.083   .     S
C83    C801    1.398   1_554 S
C84    H106    1.084   .     S
C84    C802    1.394   .     S
C85    C320    1.331   .     S
C85    H345    1.087   .     S
C86    C553    1.331   1_545 S
C86    H580    1.087   1_545 S
C87    O121    1.304   .     A
C87    C89     1.480   .     S
C87    O119    1.306   .     A
C88    O120    1.301   .     A
C88    O122    1.302   .     A
C88    C90     1.466   .     S
C89    C93     1.412   .     A
C89    C95     1.397   .     A
C90    C94     1.408   .     A
C90    C96     1.394   .     A
C91    C99     1.416   .     A
C91    C93     1.413   .     A
C92    C94     1.414   .     A
C92    C100    1.413   .     A
C92    O218    1.385   .     S
C94    N123    1.443   .     S
C95    H108    1.075   .     S
C95    C97     1.403   .     A
C96    H107    1.076   .     S
C96    C98     1.404   .     A
C97    C99     1.415   .     A
C97    C101    1.427   .     A
C98    C102    1.431   .     A
C98    C100    1.421   .     A
C99    C785    1.398   .     S
C100   C786    1.394   1_554 S
C101   C804    1.422   .     S
C102   C803    1.422   1_554 S
Cu103  O118    1.949   .     S
Cu103  O115    1.950   .     S
Cu103  O122    1.919   .     S
Cu103  O119    1.933   .     S
Cu103  Cu104   2.702   .     S
Cu103  N114    2.030   .     S
Cu104  O117    1.949   .     S
Cu104  O121    1.919   .     S
Cu104  O116    1.950   .     S
Cu104  O120    1.933   .     S
Cu104  N113    2.030   .     S
H111   C553    1.087   1_545 S
H112   C320    1.087   .     S
N113   N192    1.283   .     S
N113   N229    1.385   .     S
N123   H124    1.046   .     S
N123   H203    1.041   .     S
N126   H128    1.043   .     S
N126   H127    1.043   .     S
N126   C171    1.440   .     S
O129   C130    1.421   .     S
O129   C169    1.386   .     S
C130   H599    1.107   1_545 S
C130   H210    1.118   .     S
C130   C601    1.533   1_545 S
H131   C364    1.107   .     S
C133   H135    1.109   .     S
C133   C136    1.528   .     S
C133   C364    1.533   .     S
C133   H368    1.109   .     S
H134   C601    1.109   1_545 S
C136   H138    1.110   .     S
C136   H137    1.109   .     S
C136   H373    1.110   .     S
H139   C604    1.110   1_545 S
O140   C141    1.412   .     S
C141   H143    1.117   .     S
C141   C144    1.530   .     S
C141   H142    1.112   .     S
C144   H146    1.111   .     S
C144   C147    1.521   .     S
C144   H145    1.112   .     S
C147   H150    1.105   .     S
C147   H148    1.111   .     S
C147   H383    1.110   .     S
H149   C615    1.110   1_545 S
N151   H152    1.044   .     S
H153   N229    1.044   .     S
N154   H155    1.044   .     S
N154   N192    1.385   .     S
N154   H234    1.045   .     S
C157   O193    1.294   .     A
C157   C163    1.428   .     S
C157   O195    1.292   .     A
C158   O194    1.294   .     A
C158   C164    1.428   .     S
C158   O196    1.292   .     A
C159   C180    1.415   .     A
C159   H187    1.076   .     S
C159   C161    1.389   .     A
C160   C162    1.383   .     A
C160   C179    1.411   .     A
C160   H188    1.073   .     S
C161   H183    1.083   .     S
C161   C879    1.398   1_554 S
C162   H184    1.084   .     S
C162   C880    1.394   .     S
C163   C398    1.331   .     S
C163   H423    1.087   .     S
C164   C631    1.331   1_545 S
C164   H658    1.087   1_545 S
C165   O199    1.304   .     A
C165   C167    1.480   .     S
C165   O197    1.306   .     A
C166   O198    1.301   .     A
C166   O200    1.302   .     A
C166   C168    1.466   .     S
C167   C171    1.412   .     A
C167   C173    1.397   .     A
C168   C172    1.408   .     A
C168   C174    1.394   .     A
C169   C177    1.416   .     A
C169   C171    1.413   .     A
C170   C172    1.414   .     A
C170   C178    1.413   .     A
C170   O62     1.385   1_655 S
C172   N201    1.443   .     S
C173   H186    1.075   .     S
C173   C175    1.403   .     A
C174   H185    1.076   .     S
C174   C176    1.404   .     A
C175   C177    1.415   .     A
C175   C179    1.427   .     A
C176   C180    1.431   .     A
C176   C178    1.421   .     A
C177   C863    1.398   .     S
C178   C864    1.394   1_554 S
C179   C882    1.422   .     S
C180   C881    1.422   1_554 S
Cu181  O196    1.949   .     S
Cu181  O193    1.950   .     S
Cu181  O200    1.919   .     S
Cu181  O197    1.933   .     S
Cu181  Cu182   2.702   .     S
Cu181  N192    2.030   .     S
Cu182  O195    1.949   .     S
Cu182  O199    1.919   .     S
Cu182  O194    1.950   .     S
Cu182  O198    1.933   .     S
Cu182  N191    2.030   .     S
H189   C631    1.087   1_545 S
H190   C398    1.087   .     S
N191   N36     1.283   1_655 S
N191   N73     1.385   1_655 S
N201   H202    1.046   .     S
N201   H47     1.041   1_655 S
N204   H206    1.043   .     S
N204   H205    1.043   .     S
N204   C15     1.440   1_655 S
O207   C208    1.421   .     S
O207   C13     1.386   1_655 S
C208   H677    1.107   1_545 S
C208   H54     1.118   1_655 S
C208   C679    1.533   1_545 S
H209   C442    1.107   .     S
C211   H213    1.109   .     S
C211   C214    1.528   .     S
C211   C442    1.533   .     S
C211   H446    1.109   .     S
H212   C679    1.109   1_545 S
C214   H216    1.110   .     S
C214   H215    1.109   .     S
C214   H451    1.110   .     S
H217   C682    1.110   1_545 S
O218   C219    1.412   .     S
C219   H221    1.117   .     S
C219   C222    1.530   .     S
C219   H220    1.112   .     S
C222   H224    1.111   .     S
C222   C225    1.521   .     S
C222   H223    1.112   .     S
C225   H228    1.105   .     S
C225   H226    1.111   .     S
C225   H461    1.110   .     S
H227   C693    1.110   1_545 S
N229   H230    1.044   .     S
H231   N73     1.044   1_655 S
N232   H233    1.044   .     S
N232   N36     1.385   1_655 S
N232   H78     1.045   1_655 S
C235   O271    1.294   .     A
C235   C241    1.428   .     S
C235   O273    1.292   .     A
C236   O272    1.294   .     A
C236   C242    1.428   .     S
C236   O274    1.292   .     A
C237   C258    1.415   .     A
C237   H265    1.076   .     S
C237   C239    1.389   .     A
C238   C240    1.383   .     A
C238   C257    1.411   .     A
C238   H266    1.073   .     S
C239   H261    1.083   .     S
C239   C957    1.398   1_554 S
C240   H262    1.084   .     S
C240   C958    1.394   .     S
C241   C476    1.331   .     S
C241   H501    1.087   .     S
C243   O277    1.304   .     A
C243   C245    1.480   .     S
C243   O275    1.306   .     A
C244   O276    1.301   .     A
C244   O278    1.302   .     A
C244   C246    1.466   .     S
C245   C249    1.412   .     A
C245   C251    1.397   .     A
C246   C250    1.408   .     A
C246   C252    1.394   .     A
C247   C255    1.416   .     A
C247   C249    1.413   .     A
C247   O441    1.386   1_455 S
C248   C250    1.414   .     A
C248   C256    1.413   .     A
C248   O374    1.385   .     S
C249   N438    1.440   1_455 S
C250   N279    1.443   .     S
C251   H264    1.075   .     S
C251   C253    1.403   .     A
C252   H263    1.076   .     S
C252   C254    1.404   .     A
C253   C255    1.415   .     A
C253   C257    1.427   .     A
C254   C258    1.431   .     A
C254   C256    1.421   .     A
C255   C941    1.398   .     S
C256   C942    1.394   1_554 S
C257   C960    1.422   .     S
C258   C959    1.422   1_554 S
Cu259  O274    1.949   .     S
Cu259  O271    1.950   .     S
Cu259  O278    1.919   .     S
Cu259  O275    1.933   .     S
Cu259  Cu260   2.702   .     S
Cu259  N270    2.030   .     S
Cu260  O273    1.949   .     S
Cu260  O277    1.919   .     S
Cu260  O272    1.950   .     S
Cu260  O276    1.933   .     S
Cu260  N269    2.030   .     S
H268   C476    1.087   .     S
N269   N348    1.283   .     S
N269   N385    1.385   .     S
N270   N425    1.283   1_455 S
N270   N466    1.385   1_455 S
N279   H280    1.046   .     S
N279   H359    1.041   .     S
H281   N435    1.041   1_455 S
N282   H284    1.043   .     S
N282   H283    1.043   .     S
N282   C327    1.440   .     S
O285   C286    1.421   .     S
O285   C325    1.386   .     S
C286   H366    1.118   .     S
H287   C520    1.107   .     S
H288   C442    1.118   1_455 S
C289   H291    1.109   .     S
C289   C292    1.528   .     S
C289   C520    1.533   .     S
C289   H524    1.109   .     S
C292   H294    1.110   .     S
C292   H293    1.109   .     S
C292   H529    1.110   .     S
O296   C297    1.412   .     S
O296   C404    1.385   1_455 S
C297   H299    1.117   .     S
C297   C300    1.530   .     S
C297   H298    1.112   .     S
C300   H302    1.111   .     S
C300   C303    1.521   .     S
C300   H301    1.112   .     S
C303   H306    1.105   .     S
C303   H304    1.111   .     S
C303   H539    1.110   .     S
N307   H308    1.044   .     S
N307   N425    1.385   1_455 S
N307   H465    1.044   1_455 S
H309   N385    1.044   .     S
N310   H311    1.044   .     S
N310   N348    1.385   .     S
N310   H390    1.045   .     S
H312   N466    1.045   1_455 S
C313   O349    1.294   .     A
C313   C319    1.428   .     S
C313   O351    1.292   .     A
C314   O350    1.294   .     A
C314   C320    1.428   .     S
C314   O352    1.292   .     A
C315   C336    1.415   .     A
C315   H343    1.076   .     S
C315   C317    1.389   .     A
C316   C318    1.383   .     A
C316   C335    1.411   .     A
C316   H344    1.073   .     S
C317   H339    1.083   .     S
C317   C1035   1.398   1_554 S
C318   H340    1.084   .     S
C318   C1036   1.394   .     S
C319   C554    1.331   .     S
C319   H579    1.087   .     S
C321   O355    1.304   .     A
C321   C323    1.480   .     S
C321   O353    1.306   .     A
C322   O354    1.301   .     A
C322   O356    1.302   .     A
C322   C324    1.466   .     S
C323   C327    1.412   .     A
C323   C329    1.397   .     A
C324   C328    1.408   .     A
C324   C330    1.394   .     A
C325   C333    1.416   .     A
C325   C327    1.413   .     A
C326   C328    1.414   .     A
C326   C334    1.413   .     A
C326   O452    1.385   .     S
C328   N357    1.443   .     S
C329   H342    1.075   .     S
C329   C331    1.403   .     A
C330   H341    1.076   .     S
C330   C332    1.404   .     A
C331   C333    1.415   .     A
C331   C335    1.427   .     A
C332   C336    1.431   .     A
C332   C334    1.421   .     A
C333   C1019   1.398   .     S
C334   C1020   1.394   1_554 S
C335   C1038   1.422   .     S
C336   C1037   1.422   1_554 S
Cu337  O352    1.949   .     S
Cu337  O349    1.950   .     S
Cu337  O356    1.919   .     S
Cu337  O353    1.933   .     S
Cu337  Cu338   2.702   .     S
Cu337  N348    2.030   .     S
Cu338  O351    1.949   .     S
Cu338  O355    1.919   .     S
Cu338  O350    1.950   .     S
Cu338  O354    1.933   .     S
Cu338  N347    2.030   .     S
H346   C554    1.087   .     S
N347   N426    1.283   .     S
N347   N463    1.385   .     S
N357   H358    1.046   .     S
N357   H437    1.041   .     S
N360   H362    1.043   .     S
N360   H361    1.043   .     S
N360   C405    1.440   .     S
O363   C364    1.421   .     S
O363   C403    1.386   .     S
C364   H444    1.118   .     S
H365   C598    1.107   .     S
C367   H369    1.109   .     S
C367   C370    1.528   .     S
C367   C598    1.533   .     S
C367   H602    1.109   .     S
C370   H372    1.110   .     S
C370   H371    1.109   .     S
C370   H607    1.110   .     S
O374   C375    1.412   .     S
C375   H377    1.117   .     S
C375   C378    1.530   .     S
C375   H376    1.112   .     S
C378   H380    1.111   .     S
C378   C381    1.521   .     S
C378   H379    1.112   .     S
C381   H384    1.105   .     S
C381   H382    1.111   .     S
C381   H617    1.110   .     S
N385   H386    1.044   .     S
H387   N463    1.044   .     S
N388   H389    1.044   .     S
N388   N426    1.385   .     S
N388   H468    1.045   .     S
C391   O427    1.294   .     A
C391   C397    1.428   .     S
C391   O429    1.292   .     A
C392   O428    1.294   .     A
C392   C398    1.428   .     S
C392   O430    1.292   .     A
C393   C414    1.415   .     A
C393   H421    1.076   .     S
C393   C395    1.389   .     A
C394   C396    1.383   .     A
C394   C413    1.411   .     A
C394   H422    1.073   .     S
C395   H417    1.083   .     S
C395   C1113   1.398   1_554 S
C396   H418    1.084   .     S
C396   C1114   1.394   .     S
C397   C632    1.331   .     S
C397   H657    1.087   .     S
C399   O433    1.304   .     A
C399   C401    1.480   .     S
C399   O431    1.306   .     A
C400   O432    1.301   .     A
C400   O434    1.302   .     A
C400   C402    1.466   .     S
C401   C405    1.412   .     A
C401   C407    1.397   .     A
C402   C406    1.408   .     A
C402   C408    1.394   .     A
C403   C411    1.416   .     A
C403   C405    1.413   .     A
C404   C406    1.414   .     A
C404   C412    1.413   .     A
C404   O296    1.385   1_655 S
C406   N435    1.443   .     S
C407   H420    1.075   .     S
C407   C409    1.403   .     A
C408   H419    1.076   .     S
C408   C410    1.404   .     A
C409   C411    1.415   .     A
C409   C413    1.427   .     A
C410   C414    1.431   .     A
C410   C412    1.421   .     A
C411   C1097   1.398   .     S
C412   C1098   1.394   1_554 S
C413   C1116   1.422   .     S
C414   C1115   1.422   1_554 S
Cu415  O430    1.949   .     S
Cu415  O427    1.950   .     S
Cu415  O434    1.919   .     S
Cu415  O431    1.933   .     S
Cu415  Cu416   2.702   .     S
Cu415  N426    2.030   .     S
Cu416  O429    1.949   .     S
Cu416  O433    1.919   .     S
Cu416  O428    1.950   .     S
Cu416  O432    1.933   .     S
Cu416  N425    2.030   .     S
H424   C632    1.087   .     S
N425   N270    1.283   1_655 S
N425   N307    1.385   1_655 S
N435   H436    1.046   .     S
N435   H281    1.041   1_655 S
N438   H440    1.043   .     S
N438   H439    1.043   .     S
N438   C249    1.440   1_655 S
O441   C442    1.421   .     S
O441   C247    1.386   1_655 S
C442   H288    1.118   1_655 S
H443   C676    1.107   .     S
C445   H447    1.109   .     S
C445   C448    1.528   .     S
C445   C676    1.533   .     S
C445   H680    1.109   .     S
C448   H450    1.110   .     S
C448   H449    1.109   .     S
C448   H685    1.110   .     S
O452   C453    1.412   .     S
C453   H455    1.117   .     S
C453   C456    1.530   .     S
C453   H454    1.112   .     S
C456   H458    1.111   .     S
C456   C459    1.521   .     S
C456   H457    1.112   .     S
C459   H462    1.105   .     S
C459   H460    1.111   .     S
C459   H695    1.110   .     S
N463   H464    1.044   .     S
H465   N307    1.044   1_655 S
N466   H467    1.044   .     S
N466   N270    1.385   1_655 S
N466   H312    1.045   1_655 S
C469   O505    1.294   .     A
C469   C475    1.428   .     S
C469   O507    1.292   .     A
C470   O506    1.294   .     A
C470   C476    1.428   .     S
C470   O508    1.292   .     A
C471   C492    1.415   .     A
C471   H499    1.076   .     S
C471   C473    1.389   .     A
C472   C474    1.383   .     A
C472   C491    1.411   .     A
C472   H500    1.073   .     S
C473   H495    1.083   .     S
C473   C1191   1.398   1_554 S
C474   H496    1.084   .     S
C474   C1192   1.394   .     S
C475   C8      1.331   1_565 S
C475   H33     1.087   1_565 S
C477   O511    1.304   .     A
C477   C479    1.480   .     S
C477   O509    1.306   .     A
C478   O510    1.301   .     A
C478   O512    1.302   .     A
C478   C480    1.466   .     S
C479   C483    1.412   .     A
C479   C485    1.397   .     A
C480   C484    1.408   .     A
C480   C486    1.394   .     A
C481   C489    1.416   .     A
C481   C483    1.413   .     A
C481   O675    1.386   1_455 S
C482   C484    1.414   .     A
C482   C490    1.413   .     A
C482   O608    1.385   .     S
C483   N672    1.440   1_455 S
C484   N513    1.443   .     S
C485   H498    1.075   .     S
C485   C487    1.403   .     A
C486   H497    1.076   .     S
C486   C488    1.404   .     A
C487   C489    1.415   .     A
C487   C491    1.427   .     A
C488   C492    1.431   .     A
C488   C490    1.421   .     A
C489   C1175   1.398   .     S
C490   C1176   1.394   1_554 S
C491   C1194   1.422   .     S
C492   C1193   1.422   1_554 S
Cu493  O508    1.949   .     S
Cu493  O505    1.950   .     S
Cu493  O512    1.919   .     S
Cu493  O509    1.933   .     S
Cu493  Cu494   2.702   .     S
Cu493  N504    2.030   .     S
Cu494  O507    1.949   .     S
Cu494  O511    1.919   .     S
Cu494  O506    1.950   .     S
Cu494  O510    1.933   .     S
Cu494  N503    2.030   .     S
H502   C8      1.087   1_565 S
N503   N582    1.283   .     S
N503   N619    1.385   .     S
N504   N659    1.283   1_455 S
N504   N700    1.385   1_455 S
N513   H514    1.046   .     S
N513   H593    1.041   .     S
H515   N669    1.041   1_455 S
N516   H518    1.043   .     S
N516   H517    1.043   .     S
N516   C561    1.440   .     S
O519   C520    1.421   .     S
O519   C559    1.386   .     S
C520   H600    1.118   .     S
H521   C52     1.107   1_565 S
H522   C676    1.118   1_455 S
C523   H525    1.109   .     S
C523   C526    1.528   .     S
C523   C52     1.533   1_565 S
C523   H56     1.109   1_565 S
C526   H528    1.110   .     S
C526   H527    1.109   .     S
C526   H61     1.110   1_565 S
O530   C531    1.412   .     S
O530   C638    1.385   1_455 S
C531   H533    1.117   .     S
C531   C534    1.530   .     S
C531   H532    1.112   .     S
C534   H536    1.111   .     S
C534   C537    1.521   .     S
C534   H535    1.112   .     S
C537   H540    1.105   .     S
C537   H538    1.111   .     S
C537   H71     1.110   1_565 S
N541   H542    1.044   .     S
N541   N659    1.385   1_455 S
N541   H699    1.044   1_455 S
H543   N619    1.044   .     S
N544   H545    1.044   .     S
N544   N582    1.385   .     S
N544   H624    1.045   .     S
H546   N700    1.045   1_455 S
C547   O583    1.294   .     A
C547   C553    1.428   .     S
C547   O585    1.292   .     A
C548   O584    1.294   .     A
C548   C554    1.428   .     S
C548   O586    1.292   .     A
C549   C570    1.415   .     A
C549   H577    1.076   .     S
C549   C551    1.389   .     A
C550   C552    1.383   .     A
C550   C569    1.411   .     A
C550   H578    1.073   .     S
C551   H573    1.083   .     S
C551   C1269   1.398   1_554 S
C552   H574    1.084   .     S
C552   C1270   1.394   .     S
C553   C86     1.331   1_565 S
C553   H111    1.087   1_565 S
C555   O589    1.304   .     A
C555   C557    1.480   .     S
C555   O587    1.306   .     A
C556   O588    1.301   .     A
C556   O590    1.302   .     A
C556   C558    1.466   .     S
C557   C561    1.412   .     A
C557   C563    1.397   .     A
C558   C562    1.408   .     A
C558   C564    1.394   .     A
C559   C567    1.416   .     A
C559   C561    1.413   .     A
C560   C562    1.414   .     A
C560   C568    1.413   .     A
C560   O686    1.385   .     S
C562   N591    1.443   .     S
C563   H576    1.075   .     S
C563   C565    1.403   .     A
C564   H575    1.076   .     S
C564   C566    1.404   .     A
C565   C567    1.415   .     A
C565   C569    1.427   .     A
C566   C570    1.431   .     A
C566   C568    1.421   .     A
C567   C1253   1.398   .     S
C568   C1254   1.394   1_554 S
C569   C1272   1.422   .     S
C570   C1271   1.422   1_554 S
Cu571  O586    1.949   .     S
Cu571  O583    1.950   .     S
Cu571  O590    1.919   .     S
Cu571  O587    1.933   .     S
Cu571  Cu572   2.702   .     S
Cu571  N582    2.030   .     S
Cu572  O585    1.949   .     S
Cu572  O589    1.919   .     S
Cu572  O584    1.950   .     S
Cu572  O588    1.933   .     S
Cu572  N581    2.030   .     S
H580   C86     1.087   1_565 S
N581   N660    1.283   .     S
N581   N697    1.385   .     S
N591   H592    1.046   .     S
N591   H671    1.041   .     S
N594   H596    1.043   .     S
N594   H595    1.043   .     S
N594   C639    1.440   .     S
O597   C598    1.421   .     S
O597   C637    1.386   .     S
C598   H678    1.118   .     S
H599   C130    1.107   1_565 S
C601   H603    1.109   .     S
C601   C604    1.528   .     S
C601   C130    1.533   1_565 S
C601   H134    1.109   1_565 S
C604   H606    1.110   .     S
C604   H605    1.109   .     S
C604   H139    1.110   1_565 S
O608   C609    1.412   .     S
C609   H611    1.117   .     S
C609   C612    1.530   .     S
C609   H610    1.112   .     S
C612   H614    1.111   .     S
C612   C615    1.521   .     S
C612   H613    1.112   .     S
C615   H618    1.105   .     S
C615   H616    1.111   .     S
C615   H149    1.110   1_565 S
N619   H620    1.044   .     S
H621   N697    1.044   .     S
N622   H623    1.044   .     S
N622   N660    1.385   .     S
N622   H702    1.045   .     S
C625   O661    1.294   .     A
C625   C631    1.428   .     S
C625   O663    1.292   .     A
C626   O662    1.294   .     A
C626   C632    1.428   .     S
C626   O664    1.292   .     A
C627   C648    1.415   .     A
C627   H655    1.076   .     S
C627   C629    1.389   .     A
C628   C630    1.383   .     A
C628   C647    1.411   .     A
C628   H656    1.073   .     S
C629   H651    1.083   .     S
C629   C1347   1.398   1_554 S
C630   H652    1.084   .     S
C630   C1348   1.394   .     S
C631   C164    1.331   1_565 S
C631   H189    1.087   1_565 S
C633   O667    1.304   .     A
C633   C635    1.480   .     S
C633   O665    1.306   .     A
C634   O666    1.301   .     A
C634   O668    1.302   .     A
C634   C636    1.466   .     S
C635   C639    1.412   .     A
C635   C641    1.397   .     A
C636   C640    1.408   .     A
C636   C642    1.394   .     A
C637   C645    1.416   .     A
C637   C639    1.413   .     A
C638   C640    1.414   .     A
C638   C646    1.413   .     A
C638   O530    1.385   1_655 S
C640   N669    1.443   .     S
C641   H654    1.075   .     S
C641   C643    1.403   .     A
C642   H653    1.076   .     S
C642   C644    1.404   .     A
C643   C645    1.415   .     A
C643   C647    1.427   .     A
C644   C648    1.431   .     A
C644   C646    1.421   .     A
C645   C1331   1.398   .     S
C646   C1332   1.394   1_554 S
C647   C1350   1.422   .     S
C648   C1349   1.422   1_554 S
Cu649  O664    1.949   .     S
Cu649  O661    1.950   .     S
Cu649  O668    1.919   .     S
Cu649  O665    1.933   .     S
Cu649  Cu650   2.702   .     S
Cu649  N660    2.030   .     S
Cu650  O663    1.949   .     S
Cu650  O667    1.919   .     S
Cu650  O662    1.950   .     S
Cu650  O666    1.933   .     S
Cu650  N659    2.030   .     S
H658   C164    1.087   1_565 S
N659   N504    1.283   1_655 S
N659   N541    1.385   1_655 S
N669   H670    1.046   .     S
N669   H515    1.041   1_655 S
N672   H674    1.043   .     S
N672   H673    1.043   .     S
N672   C483    1.440   1_655 S
O675   C676    1.421   .     S
O675   C481    1.386   1_655 S
C676   H522    1.118   1_655 S
H677   C208    1.107   1_565 S
C679   H681    1.109   .     S
C679   C682    1.528   .     S
C679   C208    1.533   1_565 S
C679   H212    1.109   1_565 S
C682   H684    1.110   .     S
C682   H683    1.109   .     S
C682   H217    1.110   1_565 S
O686   C687    1.412   .     S
C687   H689    1.117   .     S
C687   C690    1.530   .     S
C687   H688    1.112   .     S
C690   H692    1.111   .     S
C690   C693    1.521   .     S
C690   H691    1.112   .     S
C693   H696    1.105   .     S
C693   H694    1.111   .     S
C693   H227    1.110   1_565 S
N697   H698    1.044   .     S
H699   N541    1.044   1_655 S
N700   H701    1.044   .     S
N700   N504    1.385   1_655 S
N700   H546    1.045   1_655 S
C703   O739    1.294   .     A
C703   C709    1.428   .     S
C703   O741    1.292   .     A
C704   O740    1.294   .     A
C704   C710    1.428   .     S
C704   O742    1.292   .     A
C705   C726    1.415   .     A
C705   H733    1.076   .     S
C705   C707    1.389   .     A
C706   C708    1.383   .     A
C706   C725    1.411   .     A
C706   H734    1.073   .     S
C707   H729    1.083   .     S
C708   H730    1.084   .     S
C708   C22     1.394   1_556 S
C709   C944    1.331   .     S
C709   H969    1.087   .     S
C710   C1177   1.331   1_545 S
C710   H1204   1.087   1_545 S
C711   O745    1.304   .     A
C711   C713    1.480   .     S
C711   O743    1.306   .     A
C712   O744    1.301   .     A
C712   O746    1.302   .     A
C712   C714    1.466   .     S
C713   C717    1.412   .     A
C713   C719    1.397   .     A
C714   C718    1.408   .     A
C714   C720    1.394   .     A
C715   C723    1.416   .     A
C715   C717    1.413   .     A
C715   O909    1.386   1_455 S
C716   C718    1.414   .     A
C716   C724    1.413   .     A
C716   O842    1.385   .     S
C717   N906    1.440   1_455 S
C718   N747    1.443   .     S
C719   H732    1.075   .     S
C719   C721    1.403   .     A
C720   H731    1.076   .     S
C720   C722    1.404   .     A
C721   C723    1.415   .     A
C721   C725    1.427   .     A
C722   C726    1.431   .     A
C722   C724    1.421   .     A
C723   C5      1.398   1_556 S
C725   C24     1.422   1_556 S
Cu727  O742    1.949   .     S
Cu727  O739    1.950   .     S
Cu727  O746    1.919   .     S
Cu727  O743    1.933   .     S
Cu727  Cu728   2.702   .     S
Cu727  N738    2.030   .     S
Cu728  O741    1.949   .     S
Cu728  O745    1.919   .     S
Cu728  O740    1.950   .     S
Cu728  O744    1.933   .     S
Cu728  N737    2.030   .     S
H735   C1177   1.087   1_545 S
H736   C944    1.087   .     S
N737   N816    1.283   .     S
N737   N853    1.385   .     S
N738   N893    1.283   1_455 S
N738   N934    1.385   1_455 S
N747   H748    1.046   .     S
N747   H827    1.041   .     S
H749   N903    1.041   1_455 S
N750   H752    1.043   .     S
N750   H751    1.043   .     S
N750   C795    1.440   .     S
O753   C754    1.421   .     S
O753   C793    1.386   .     S
C754   H1223   1.107   1_545 S
C754   H834    1.118   .     S
C754   C1225   1.533   1_545 S
H755   C988    1.107   .     S
H756   C910    1.118   1_455 S
C757   H759    1.109   .     S
C757   C760    1.528   .     S
C757   C988    1.533   .     S
C757   H992    1.109   .     S
H758   C1225   1.109   1_545 S
C760   H762    1.110   .     S
C760   H761    1.109   .     S
C760   H997    1.110   .     S
H763   C1228   1.110   1_545 S
O764   C765    1.412   .     S
O764   C872    1.385   1_455 S
C765   H767    1.117   .     S
C765   C768    1.530   .     S
C765   H766    1.112   .     S
C768   H770    1.111   .     S
C768   C771    1.521   .     S
C768   H769    1.112   .     S
C771   H774    1.105   .     S
C771   H772    1.111   .     S
C771   H1007   1.110   .     S
H773   C1239   1.110   1_545 S
N775   H776    1.044   .     S
N775   N893    1.385   1_455 S
N775   H933    1.044   1_455 S
H777   N853    1.044   .     S
N778   H779    1.044   .     S
N778   N816    1.385   .     S
N778   H858    1.045   .     S
H780   N934    1.045   1_455 S
C781   O817    1.294   .     A
C781   C787    1.428   .     S
C781   O819    1.292   .     A
C782   O818    1.294   .     A
C782   C788    1.428   .     S
C782   O820    1.292   .     A
C783   C804    1.415   .     A
C783   H811    1.076   .     S
C783   C785    1.389   .     A
C784   C786    1.383   .     A
C784   C803    1.411   .     A
C784   H812    1.073   .     S
C785   H807    1.083   .     S
C786   H808    1.084   .     S
C786   C100    1.394   1_556 S
C787   C1022   1.331   .     S
C787   H1047   1.087   .     S
C788   C1255   1.331   1_545 S
C788   H1282   1.087   1_545 S
C789   O823    1.304   .     A
C789   C791    1.480   .     S
C789   O821    1.306   .     A
C790   O822    1.301   .     A
C790   O824    1.302   .     A
C790   C792    1.466   .     S
C791   C795    1.412   .     A
C791   C797    1.397   .     A
C792   C796    1.408   .     A
C792   C798    1.394   .     A
C793   C801    1.416   .     A
C793   C795    1.413   .     A
C794   C796    1.414   .     A
C794   C802    1.413   .     A
C794   O920    1.385   .     S
C796   N825    1.443   .     S
C797   H810    1.075   .     S
C797   C799    1.403   .     A
C798   H809    1.076   .     S
C798   C800    1.404   .     A
C799   C801    1.415   .     A
C799   C803    1.427   .     A
C800   C804    1.431   .     A
C800   C802    1.421   .     A
C801   C83     1.398   1_556 S
C803   C102    1.422   1_556 S
Cu805  O820    1.949   .     S
Cu805  O817    1.950   .     S
Cu805  O824    1.919   .     S
Cu805  O821    1.933   .     S
Cu805  Cu806   2.702   .     S
Cu805  N816    2.030   .     S
Cu806  O819    1.949   .     S
Cu806  O823    1.919   .     S
Cu806  O818    1.950   .     S
Cu806  O822    1.933   .     S
Cu806  N815    2.030   .     S
H813   C1255   1.087   1_545 S
H814   C1022   1.087   .     S
N815   N894    1.283   .     S
N815   N931    1.385   .     S
N825   H826    1.046   .     S
N825   H905    1.041   .     S
N828   H830    1.043   .     S
N828   H829    1.043   .     S
N828   C873    1.440   .     S
O831   C832    1.421   .     S
O831   C871    1.386   .     S
C832   H1301   1.107   1_545 S
C832   H912    1.118   .     S
C832   C1303   1.533   1_545 S
H833   C1066   1.107   .     S
C835   H837    1.109   .     S
C835   C838    1.528   .     S
C835   C1066   1.533   .     S
C835   H1070   1.109   .     S
H836   C1303   1.109   1_545 S
C838   H840    1.110   .     S
C838   H839    1.109   .     S
C838   H1075   1.110   .     S
H841   C1306   1.110   1_545 S
O842   C843    1.412   .     S
C843   H845    1.117   .     S
C843   C846    1.530   .     S
C843   H844    1.112   .     S
C846   H848    1.111   .     S
C846   C849    1.521   .     S
C846   H847    1.112   .     S
C849   H852    1.105   .     S
C849   H850    1.111   .     S
C849   H1085   1.110   .     S
H851   C1317   1.110   1_545 S
N853   H854    1.044   .     S
H855   N931    1.044   .     S
N856   H857    1.044   .     S
N856   N894    1.385   .     S
N856   H936    1.045   .     S
C859   O895    1.294   .     A
C859   C865    1.428   .     S
C859   O897    1.292   .     A
C860   O896    1.294   .     A
C860   C866    1.428   .     S
C860   O898    1.292   .     A
C861   C882    1.415   .     A
C861   H889    1.076   .     S
C861   C863    1.389   .     A
C862   C864    1.383   .     A
C862   C881    1.411   .     A
C862   H890    1.073   .     S
C863   H885    1.083   .     S
C864   H886    1.084   .     S
C864   C178    1.394   1_556 S
C865   C1100   1.331   .     S
C865   H1125   1.087   .     S
C866   C1333   1.331   1_545 S
C866   H1360   1.087   1_545 S
C867   O901    1.304   .     A
C867   C869    1.480   .     S
C867   O899    1.306   .     A
C868   O900    1.301   .     A
C868   O902    1.302   .     A
C868   C870    1.466   .     S
C869   C873    1.412   .     A
C869   C875    1.397   .     A
C870   C874    1.408   .     A
C870   C876    1.394   .     A
C871   C879    1.416   .     A
C871   C873    1.413   .     A
C872   C874    1.414   .     A
C872   C880    1.413   .     A
C872   O764    1.385   1_655 S
C874   N903    1.443   .     S
C875   H888    1.075   .     S
C875   C877    1.403   .     A
C876   H887    1.076   .     S
C876   C878    1.404   .     A
C877   C879    1.415   .     A
C877   C881    1.427   .     A
C878   C882    1.431   .     A
C878   C880    1.421   .     A
C879   C161    1.398   1_556 S
C881   C180    1.422   1_556 S
Cu883  O898    1.949   .     S
Cu883  O895    1.950   .     S
Cu883  O902    1.919   .     S
Cu883  O899    1.933   .     S
Cu883  Cu884   2.702   .     S
Cu883  N894    2.030   .     S
Cu884  O897    1.949   .     S
Cu884  O901    1.919   .     S
Cu884  O896    1.950   .     S
Cu884  O900    1.933   .     S
Cu884  N893    2.030   .     S
H891   C1333   1.087   1_545 S
H892   C1100   1.087   .     S
N893   N738    1.283   1_655 S
N893   N775    1.385   1_655 S
N903   H904    1.046   .     S
N903   H749    1.041   1_655 S
N906   H908    1.043   .     S
N906   H907    1.043   .     S
N906   C717    1.440   1_655 S
O909   C910    1.421   .     S
O909   C715    1.386   1_655 S
C910   H1379   1.107   1_545 S
C910   H756    1.118   1_655 S
C910   C1381   1.533   1_545 S
H911   C1144   1.107   .     S
C913   H915    1.109   .     S
C913   C916    1.528   .     S
C913   C1144   1.533   .     S
C913   H1148   1.109   .     S
H914   C1381   1.109   1_545 S
C916   H918    1.110   .     S
C916   H917    1.109   .     S
C916   H1153   1.110   .     S
H919   C1384   1.110   1_545 S
O920   C921    1.412   .     S
C921   H923    1.117   .     S
C921   C924    1.530   .     S
C921   H922    1.112   .     S
C924   H926    1.111   .     S
C924   C927    1.521   .     S
C924   H925    1.112   .     S
C927   H930    1.105   .     S
C927   H928    1.111   .     S
C927   H1163   1.110   .     S
H929   C1395   1.110   1_545 S
N931   H932    1.044   .     S
H933   N775    1.044   1_655 S
N934   H935    1.044   .     S
N934   N738    1.385   1_655 S
N934   H780    1.045   1_655 S
C937   O973    1.294   .     A
C937   C943    1.428   .     S
C937   O975    1.292   .     A
C938   O974    1.294   .     A
C938   C944    1.428   .     S
C938   O976    1.292   .     A
C939   C960    1.415   .     A
C939   H967    1.076   .     S
C939   C941    1.389   .     A
C940   C942    1.383   .     A
C940   C959    1.411   .     A
C940   H968    1.073   .     S
C941   H963    1.083   .     S
C942   H964    1.084   .     S
C942   C256    1.394   1_556 S
C943   C1178   1.331   .     S
C943   H1203   1.087   .     S
C945   O979    1.304   .     A
C945   C947    1.480   .     S
C945   O977    1.306   .     A
C946   O978    1.301   .     A
C946   O980    1.302   .     A
C946   C948    1.466   .     S
C947   C951    1.412   .     A
C947   C953    1.397   .     A
C948   C952    1.408   .     A
C948   C954    1.394   .     A
C949   C957    1.416   .     A
C949   C951    1.413   .     A
C949   O1143   1.386   1_455 S
C950   C952    1.414   .     A
C950   C958    1.413   .     A
C950   O1076   1.385   .     S
C951   N1140   1.440   1_455 S
C952   N981    1.443   .     S
C953   H966    1.075   .     S
C953   C955    1.403   .     A
C954   H965    1.076   .     S
C954   C956    1.404   .     A
C955   C957    1.415   .     A
C955   C959    1.427   .     A
C956   C960    1.431   .     A
C956   C958    1.421   .     A
C957   C239    1.398   1_556 S
C959   C258    1.422   1_556 S
Cu961  O976    1.949   .     S
Cu961  O973    1.950   .     S
Cu961  O980    1.919   .     S
Cu961  O977    1.933   .     S
Cu961  Cu962   2.702   .     S
Cu961  N972    2.030   .     S
Cu962  O975    1.949   .     S
Cu962  O979    1.919   .     S
Cu962  O974    1.950   .     S
Cu962  O978    1.933   .     S
Cu962  N971    2.030   .     S
H970   C1178   1.087   .     S
N971   N1050   1.283   .     S
N971   N1087   1.385   .     S
N972   N1127   1.283   1_455 S
N972   N1168   1.385   1_455 S
N981   H982    1.046   .     S
N981   H1061   1.041   .     S
H983   N1137   1.041   1_455 S
N984   H986    1.043   .     S
N984   H985    1.043   .     S
N984   C1029   1.440   .     S
O987   C988    1.421   .     S
O987   C1027   1.386   .     S
C988   H1068   1.118   .     S
H989   C1222   1.107   .     S
H990   C1144   1.118   1_455 S
C991   H993    1.109   .     S
C991   C994    1.528   .     S
C991   C1222   1.533   .     S
C991   H1226   1.109   .     S
C994   H996    1.110   .     S
C994   H995    1.109   .     S
C994   H1231   1.110   .     S
O998   C999    1.412   .     S
O998   C1106   1.385   1_455 S
C999   H1001   1.117   .     S
C999   C1002   1.530   .     S
C999   H1000   1.112   .     S
C1002  H1004   1.111   .     S
C1002  C1005   1.521   .     S
C1002  H1003   1.112   .     S
C1005  H1008   1.105   .     S
C1005  H1006   1.111   .     S
C1005  H1241   1.110   .     S
N1009  H1010   1.044   .     S
N1009  N1127   1.385   1_455 S
N1009  H1167   1.044   1_455 S
H1011  N1087   1.044   .     S
N1012  H1013   1.044   .     S
N1012  N1050   1.385   .     S
N1012  H1092   1.045   .     S
H1014  N1168   1.045   1_455 S
C1015  O1051   1.294   .     A
C1015  C1021   1.428   .     S
C1015  O1053   1.292   .     A
C1016  O1052   1.294   .     A
C1016  C1022   1.428   .     S
C1016  O1054   1.292   .     A
C1017  C1038   1.415   .     A
C1017  H1045   1.076   .     S
C1017  C1019   1.389   .     A
C1018  C1020   1.383   .     A
C1018  C1037   1.411   .     A
C1018  H1046   1.073   .     S
C1019  H1041   1.083   .     S
C1020  H1042   1.084   .     S
C1020  C334    1.394   1_556 S
C1021  C1256   1.331   .     S
C1021  H1281   1.087   .     S
C1023  O1057   1.304   .     A
C1023  C1025   1.480   .     S
C1023  O1055   1.306   .     A
C1024  O1056   1.301   .     A
C1024  O1058   1.302   .     A
C1024  C1026   1.466   .     S
C1025  C1029   1.412   .     A
C1025  C1031   1.397   .     A
C1026  C1030   1.408   .     A
C1026  C1032   1.394   .     A
C1027  C1035   1.416   .     A
C1027  C1029   1.413   .     A
C1028  C1030   1.414   .     A
C1028  C1036   1.413   .     A
C1028  O1154   1.385   .     S
C1030  N1059   1.443   .     S
C1031  H1044   1.075   .     S
C1031  C1033   1.403   .     A
C1032  H1043   1.076   .     S
C1032  C1034   1.404   .     A
C1033  C1035   1.415   .     A
C1033  C1037   1.427   .     A
C1034  C1038   1.431   .     A
C1034  C1036   1.421   .     A
C1035  C317    1.398   1_556 S
C1037  C336    1.422   1_556 S
Cu1039 O1054   1.949   .     S
Cu1039 O1051   1.950   .     S
Cu1039 O1058   1.919   .     S
Cu1039 O1055   1.933   .     S
Cu1039 Cu1040  2.702   .     S
Cu1039 N1050   2.030   .     S
Cu1040 O1053   1.949   .     S
Cu1040 O1057   1.919   .     S
Cu1040 O1052   1.950   .     S
Cu1040 O1056   1.933   .     S
Cu1040 N1049   2.030   .     S
H1048  C1256   1.087   .     S
N1049  N1128   1.283   .     S
N1049  N1165   1.385   .     S
N1059  H1060   1.046   .     S
N1059  H1139   1.041   .     S
N1062  H1064   1.043   .     S
N1062  H1063   1.043   .     S
N1062  C1107   1.440   .     S
O1065  C1066   1.421   .     S
O1065  C1105   1.386   .     S
C1066  H1146   1.118   .     S
H1067  C1300   1.107   .     S
C1069  H1071   1.109   .     S
C1069  C1072   1.528   .     S
C1069  C1300   1.533   .     S
C1069  H1304   1.109   .     S
C1072  H1074   1.110   .     S
C1072  H1073   1.109   .     S
C1072  H1309   1.110   .     S
O1076  C1077   1.412   .     S
C1077  H1079   1.117   .     S
C1077  C1080   1.530   .     S
C1077  H1078   1.112   .     S
C1080  H1082   1.111   .     S
C1080  C1083   1.521   .     S
C1080  H1081   1.112   .     S
C1083  H1086   1.105   .     S
C1083  H1084   1.111   .     S
C1083  H1319   1.110   .     S
N1087  H1088   1.044   .     S
H1089  N1165   1.044   .     S
N1090  H1091   1.044   .     S
N1090  N1128   1.385   .     S
N1090  H1170   1.045   .     S
C1093  O1129   1.294   .     A
C1093  C1099   1.428   .     S
C1093  O1131   1.292   .     A
C1094  O1130   1.294   .     A
C1094  C1100   1.428   .     S
C1094  O1132   1.292   .     A
C1095  C1116   1.415   .     A
C1095  H1123   1.076   .     S
C1095  C1097   1.389   .     A
C1096  C1098   1.383   .     A
C1096  C1115   1.411   .     A
C1096  H1124   1.073   .     S
C1097  H1119   1.083   .     S
C1098  H1120   1.084   .     S
C1098  C412    1.394   1_556 S
C1099  C1334   1.331   .     S
C1099  H1359   1.087   .     S
C1101  O1135   1.304   .     A
C1101  C1103   1.480   .     S
C1101  O1133   1.306   .     A
C1102  O1134   1.301   .     A
C1102  O1136   1.302   .     A
C1102  C1104   1.466   .     S
C1103  C1107   1.412   .     A
C1103  C1109   1.397   .     A
C1104  C1108   1.408   .     A
C1104  C1110   1.394   .     A
C1105  C1113   1.416   .     A
C1105  C1107   1.413   .     A
C1106  C1108   1.414   .     A
C1106  C1114   1.413   .     A
C1106  O998    1.385   1_655 S
C1108  N1137   1.443   .     S
C1109  H1122   1.075   .     S
C1109  C1111   1.403   .     A
C1110  H1121   1.076   .     S
C1110  C1112   1.404   .     A
C1111  C1113   1.415   .     A
C1111  C1115   1.427   .     A
C1112  C1116   1.431   .     A
C1112  C1114   1.421   .     A
C1113  C395    1.398   1_556 S
C1115  C414    1.422   1_556 S
Cu1117 O1132   1.949   .     S
Cu1117 O1129   1.950   .     S
Cu1117 O1136   1.919   .     S
Cu1117 O1133   1.933   .     S
Cu1117 Cu1118  2.702   .     S
Cu1117 N1128   2.030   .     S
Cu1118 O1131   1.949   .     S
Cu1118 O1135   1.919   .     S
Cu1118 O1130   1.950   .     S
Cu1118 O1134   1.933   .     S
Cu1118 N1127   2.030   .     S
H1126  C1334   1.087   .     S
N1127  N972    1.283   1_655 S
N1127  N1009   1.385   1_655 S
N1137  H1138   1.046   .     S
N1137  H983    1.041   1_655 S
N1140  H1142   1.043   .     S
N1140  H1141   1.043   .     S
N1140  C951    1.440   1_655 S
O1143  C1144   1.421   .     S
O1143  C949    1.386   1_655 S
C1144  H990    1.118   1_655 S
H1145  C1378   1.107   .     S
C1147  H1149   1.109   .     S
C1147  C1150   1.528   .     S
C1147  C1378   1.533   .     S
C1147  H1382   1.109   .     S
C1150  H1152   1.110   .     S
C1150  H1151   1.109   .     S
C1150  H1387   1.110   .     S
O1154  C1155   1.412   .     S
C1155  H1157   1.117   .     S
C1155  C1158   1.530   .     S
C1155  H1156   1.112   .     S
C1158  H1160   1.111   .     S
C1158  C1161   1.521   .     S
C1158  H1159   1.112   .     S
C1161  H1164   1.105   .     S
C1161  H1162   1.111   .     S
C1161  H1397   1.110   .     S
N1165  H1166   1.044   .     S
H1167  N1009   1.044   1_655 S
N1168  H1169   1.044   .     S
N1168  N972    1.385   1_655 S
N1168  H1014   1.045   1_655 S
C1171  O1207   1.294   .     A
C1171  C1177   1.428   .     S
C1171  O1209   1.292   .     A
C1172  O1208   1.294   .     A
C1172  C1178   1.428   .     S
C1172  O1210   1.292   .     A
C1173  C1194   1.415   .     A
C1173  H1201   1.076   .     S
C1173  C1175   1.389   .     A
C1174  C1176   1.383   .     A
C1174  C1193   1.411   .     A
C1174  H1202   1.073   .     S
C1175  H1197   1.083   .     S
C1176  H1198   1.084   .     S
C1176  C490    1.394   1_556 S
C1177  C710    1.331   1_565 S
C1177  H735    1.087   1_565 S
C1179  O1213   1.304   .     A
C1179  C1181   1.480   .     S
C1179  O1211   1.306   .     A
C1180  O1212   1.301   .     A
C1180  O1214   1.302   .     A
C1180  C1182   1.466   .     S
C1181  C1185   1.412   .     A
C1181  C1187   1.397   .     A
C1182  C1186   1.408   .     A
C1182  C1188   1.394   .     A
C1183  C1191   1.416   .     A
C1183  C1185   1.413   .     A
C1183  O1377   1.386   1_455 S
C1184  C1186   1.414   .     A
C1184  C1192   1.413   .     A
C1184  O1310   1.385   .     S
C1185  N1374   1.440   1_455 S
C1186  N1215   1.443   .     S
C1187  H1200   1.075   .     S
C1187  C1189   1.403   .     A
C1188  H1199   1.076   .     S
C1188  C1190   1.404   .     A
C1189  C1191   1.415   .     A
C1189  C1193   1.427   .     A
C1190  C1194   1.431   .     A
C1190  C1192   1.421   .     A
C1191  C473    1.398   1_556 S
C1193  C492    1.422   1_556 S
Cu1195 O1210   1.949   .     S
Cu1195 O1207   1.950   .     S
Cu1195 O1214   1.919   .     S
Cu1195 O1211   1.933   .     S
Cu1195 Cu1196  2.702   .     S
Cu1195 N1206   2.030   .     S
Cu1196 O1209   1.949   .     S
Cu1196 O1213   1.919   .     S
Cu1196 O1208   1.950   .     S
Cu1196 O1212   1.933   .     S
Cu1196 N1205   2.030   .     S
H1204  C710    1.087   1_565 S
N1205  N1284   1.283   .     S
N1205  N1321   1.385   .     S
N1206  N1361   1.283   1_455 S
N1206  N1402   1.385   1_455 S
N1215  H1216   1.046   .     S
N1215  H1295   1.041   .     S
H1217  N1371   1.041   1_455 S
N1218  H1220   1.043   .     S
N1218  H1219   1.043   .     S
N1218  C1263   1.440   .     S
O1221  C1222   1.421   .     S
O1221  C1261   1.386   .     S
C1222  H1302   1.118   .     S
H1223  C754    1.107   1_565 S
H1224  C1378   1.118   1_455 S
C1225  H1227   1.109   .     S
C1225  C1228   1.528   .     S
C1225  C754    1.533   1_565 S
C1225  H758    1.109   1_565 S
C1228  H1230   1.110   .     S
C1228  H1229   1.109   .     S
C1228  H763    1.110   1_565 S
O1232  C1233   1.412   .     S
O1232  C1340   1.385   1_455 S
C1233  H1235   1.117   .     S
C1233  C1236   1.530   .     S
C1233  H1234   1.112   .     S
C1236  H1238   1.111   .     S
C1236  C1239   1.521   .     S
C1236  H1237   1.112   .     S
C1239  H1242   1.105   .     S
C1239  H1240   1.111   .     S
C1239  H773    1.110   1_565 S
N1243  H1244   1.044   .     S
N1243  N1361   1.385   1_455 S
N1243  H1401   1.044   1_455 S
H1245  N1321   1.044   .     S
N1246  H1247   1.044   .     S
N1246  N1284   1.385   .     S
N1246  H1326   1.045   .     S
H1248  N1402   1.045   1_455 S
C1249  O1285   1.294   .     A
C1249  C1255   1.428   .     S
C1249  O1287   1.292   .     A
C1250  O1286   1.294   .     A
C1250  C1256   1.428   .     S
C1250  O1288   1.292   .     A
C1251  C1272   1.415   .     A
C1251  H1279   1.076   .     S
C1251  C1253   1.389   .     A
C1252  C1254   1.383   .     A
C1252  C1271   1.411   .     A
C1252  H1280   1.073   .     S
C1253  H1275   1.083   .     S
C1254  H1276   1.084   .     S
C1254  C568    1.394   1_556 S
C1255  C788    1.331   1_565 S
C1255  H813    1.087   1_565 S
C1257  O1291   1.304   .     A
C1257  C1259   1.480   .     S
C1257  O1289   1.306   .     A
C1258  O1290   1.301   .     A
C1258  O1292   1.302   .     A
C1258  C1260   1.466   .     S
C1259  C1263   1.412   .     A
C1259  C1265   1.397   .     A
C1260  C1264   1.408   .     A
C1260  C1266   1.394   .     A
C1261  C1269   1.416   .     A
C1261  C1263   1.413   .     A
C1262  C1264   1.414   .     A
C1262  C1270   1.413   .     A
C1262  O1388   1.385   .     S
C1264  N1293   1.443   .     S
C1265  H1278   1.075   .     S
C1265  C1267   1.403   .     A
C1266  H1277   1.076   .     S
C1266  C1268   1.404   .     A
C1267  C1269   1.415   .     A
C1267  C1271   1.427   .     A
C1268  C1272   1.431   .     A
C1268  C1270   1.421   .     A
C1269  C551    1.398   1_556 S
C1271  C570    1.422   1_556 S
Cu1273 O1288   1.949   .     S
Cu1273 O1285   1.950   .     S
Cu1273 O1292   1.919   .     S
Cu1273 O1289   1.933   .     S
Cu1273 Cu1274  2.702   .     S
Cu1273 N1284   2.030   .     S
Cu1274 O1287   1.949   .     S
Cu1274 O1291   1.919   .     S
Cu1274 O1286   1.950   .     S
Cu1274 O1290   1.933   .     S
Cu1274 N1283   2.030   .     S
H1282  C788    1.087   1_565 S
N1283  N1362   1.283   .     S
N1283  N1399   1.385   .     S
N1293  H1294   1.046   .     S
N1293  H1373   1.041   .     S
N1296  H1298   1.043   .     S
N1296  H1297   1.043   .     S
N1296  C1341   1.440   .     S
O1299  C1300   1.421   .     S
O1299  C1339   1.386   .     S
C1300  H1380   1.118   .     S
H1301  C832    1.107   1_565 S
C1303  H1305   1.109   .     S
C1303  C1306   1.528   .     S
C1303  C832    1.533   1_565 S
C1303  H836    1.109   1_565 S
C1306  H1308   1.110   .     S
C1306  H1307   1.109   .     S
C1306  H841    1.110   1_565 S
O1310  C1311   1.412   .     S
C1311  H1313   1.117   .     S
C1311  C1314   1.530   .     S
C1311  H1312   1.112   .     S
C1314  H1316   1.111   .     S
C1314  C1317   1.521   .     S
C1314  H1315   1.112   .     S
C1317  H1320   1.105   .     S
C1317  H1318   1.111   .     S
C1317  H851    1.110   1_565 S
N1321  H1322   1.044   .     S
H1323  N1399   1.044   .     S
N1324  H1325   1.044   .     S
N1324  N1362   1.385   .     S
N1324  H1404   1.045   .     S
C1327  O1363   1.294   .     A
C1327  C1333   1.428   .     S
C1327  O1365   1.292   .     A
C1328  O1364   1.294   .     A
C1328  C1334   1.428   .     S
C1328  O1366   1.292   .     A
C1329  C1350   1.415   .     A
C1329  H1357   1.076   .     S
C1329  C1331   1.389   .     A
C1330  C1332   1.383   .     A
C1330  C1349   1.411   .     A
C1330  H1358   1.073   .     S
C1331  H1353   1.083   .     S
C1332  H1354   1.084   .     S
C1332  C646    1.394   1_556 S
C1333  C866    1.331   1_565 S
C1333  H891    1.087   1_565 S
C1335  O1369   1.304   .     A
C1335  C1337   1.480   .     S
C1335  O1367   1.306   .     A
C1336  O1368   1.301   .     A
C1336  O1370   1.302   .     A
C1336  C1338   1.466   .     S
C1337  C1341   1.412   .     A
C1337  C1343   1.397   .     A
C1338  C1342   1.408   .     A
C1338  C1344   1.394   .     A
C1339  C1347   1.416   .     A
C1339  C1341   1.413   .     A
C1340  C1342   1.414   .     A
C1340  C1348   1.413   .     A
C1340  O1232   1.385   1_655 S
C1342  N1371   1.443   .     S
C1343  H1356   1.075   .     S
C1343  C1345   1.403   .     A
C1344  H1355   1.076   .     S
C1344  C1346   1.404   .     A
C1345  C1347   1.415   .     A
C1345  C1349   1.427   .     A
C1346  C1350   1.431   .     A
C1346  C1348   1.421   .     A
C1347  C629    1.398   1_556 S
C1349  C648    1.422   1_556 S
Cu1351 O1366   1.949   .     S
Cu1351 O1363   1.950   .     S
Cu1351 O1370   1.919   .     S
Cu1351 O1367   1.933   .     S
Cu1351 Cu1352  2.702   .     S
Cu1351 N1362   2.030   .     S
Cu1352 O1365   1.949   .     S
Cu1352 O1369   1.919   .     S
Cu1352 O1364   1.950   .     S
Cu1352 O1368   1.933   .     S
Cu1352 N1361   2.030   .     S
H1360  C866    1.087   1_565 S
N1361  N1206   1.283   1_655 S
N1361  N1243   1.385   1_655 S
N1371  H1372   1.046   .     S
N1371  H1217   1.041   1_655 S
N1374  H1376   1.043   .     S
N1374  H1375   1.043   .     S
N1374  C1185   1.440   1_655 S
O1377  C1378   1.421   .     S
O1377  C1183   1.386   1_655 S
C1378  H1224   1.118   1_655 S
H1379  C910    1.107   1_565 S
C1381  H1383   1.109   .     S
C1381  C1384   1.528   .     S
C1381  C910    1.533   1_565 S
C1381  H914    1.109   1_565 S
C1384  H1386   1.110   .     S
C1384  H1385   1.109   .     S
C1384  H919    1.110   1_565 S
O1388  C1389   1.412   .     S
C1389  H1391   1.117   .     S
C1389  C1392   1.530   .     S
C1389  H1390   1.112   .     S
C1392  H1394   1.111   .     S
C1392  C1395   1.521   .     S
C1392  H1393   1.112   .     S
C1395  H1398   1.105   .     S
C1395  H1396   1.111   .     S
C1395  H929    1.110   1_565 S
N1399  H1400   1.044   .     S
H1401  N1243   1.044   1_655 S
N1402  H1403   1.044   .     S
N1402  N1206   1.385   1_655 S
N1402  H1248   1.045   1_655 S
