data_str_m3_o1_o10_pcu_sym.5
_audit_creation_date              2020-01-03
_audit_creation_method            'Materials Studio'
_symmetry_space_group_name_H-M    'P1'
_symmetry_Int_Tables_number       1
_symmetry_cell_setting            triclinic
loop_
_symmetry_equiv_pos_as_xyz
  x,y,z
_cell_length_a                    25.7639
_cell_length_b                    32.1334
_cell_length_c                    29.6593
_cell_angle_alpha                 89.6303
_cell_angle_beta                  98.3391
_cell_angle_gamma                 90.7337
loop_
_atom_site_label
_atom_site_type_symbol
_atom_site_fract_x
_atom_site_fract_y
_atom_site_fract_z
_atom_site_U_iso_or_equiv
_atom_site_adp_type
_atom_site_occupancy
Br1    Br    0.24528   0.23189   0.06199   0.00000  Uiso   1.00
Br2    Br    0.08805   0.10144   0.27134   0.00000  Uiso   1.00
C3     C     0.16652   0.08667   0.16672   0.00000  Uiso   1.00
C4     C     0.17760   0.02118   0.20812   0.00000  Uiso   1.00
C5     C     0.16691   0.29083   0.16658   0.00000  Uiso   1.00
C6     C     0.16642   0.04250   0.16676   0.00000  Uiso   1.00
C7     C     0.19877   0.19331   0.02731   0.00000  Uiso   1.00
C8     C     0.13457   0.14002   0.30603   0.00000  Uiso   1.00
C9     C     0.19859   0.19317   0.31289   0.00000  Uiso   1.00
C10    C     0.13474   0.14016   0.02044   0.00000  Uiso   1.00
C11    C     0.16681   0.24666   0.16661   0.00000  Uiso   1.00
C12    C     0.06712   0.16658   0.15478   0.00000  Uiso   1.00
C13    C     0.26622   0.16676   0.17855   0.00000  Uiso   1.00
C14    C     0.01211   0.16624   0.14838   0.00000  Uiso   1.00
C15    C     0.32122   0.16709   0.18496   0.00000  Uiso   1.00
C16    C     0.15544   0.02145   0.12530   0.00000  Uiso   1.00
C17    C     0.17789   0.31189   0.20803   0.00000  Uiso   1.00
C18    C     0.15573   0.31215   0.12521   0.00000  Uiso   1.00
H19    H     0.32502   0.16517   0.11362   0.00000  Uiso   1.00
H20    H     0.00831   0.16817   0.21971   0.00000  Uiso   1.00
H21    H     0.14637   0.03779   0.09309   0.00000  Uiso   1.00
H22    H     0.18697   0.29555   0.24024   0.00000  Uiso   1.00
H23    H     0.14683   0.29602   0.09299   0.00000  Uiso   1.00
H24    H     0.18650   0.03731   0.24034   0.00000  Uiso   1.00
H25    H     0.22407   0.21433   0.29757   0.00000  Uiso   1.00
H26    H     0.10926   0.11900   0.03576   0.00000  Uiso   1.00
N27    N     0.16665   0.16666   0.28573   0.00000  Uiso   1.00
N28    N     0.16668   0.16668   0.04760   0.00000  Uiso   1.00
O29    O     0.16666   0.10558   0.20487   0.00000  Uiso   1.00
O30    O     0.16667   0.22775   0.12846   0.00000  Uiso   1.00
O31    O     0.16666   0.10559   0.12843   0.00000  Uiso   1.00
O32    O     0.16667   0.22774   0.20490   0.00000  Uiso   1.00
O33    O     0.09058   0.16666   0.19595   0.00000  Uiso   1.00
O34    O     0.24275   0.16667   0.13739   0.00000  Uiso   1.00
O35    O     0.09058   0.16667   0.11950   0.00000  Uiso   1.00
O36    O     0.24275   0.16666   0.21383   0.00000  Uiso   1.00
Zn37   Zn    0.16667   0.16666   0.21771   0.00000  Uiso   1.00
Zn38   Zn    0.16667   0.16667   0.11563   0.00000  Uiso   1.00
Br39   Br    0.57861   0.23189   0.06199   0.00000  Uiso   1.00
Br40   Br    0.42139   0.10144   0.27134   0.00000  Uiso   1.00
C41    C     0.49986   0.08667   0.16672   0.00000  Uiso   1.00
C42    C     0.51094   0.02118   0.20812   0.00000  Uiso   1.00
C43    C     0.50025   0.29083   0.16658   0.00000  Uiso   1.00
C44    C     0.49975   0.04250   0.16676   0.00000  Uiso   1.00
C45    C     0.53210   0.19331   0.02731   0.00000  Uiso   1.00
C46    C     0.46790   0.14002   0.30603   0.00000  Uiso   1.00
C47    C     0.53192   0.19317   0.31289   0.00000  Uiso   1.00
C48    C     0.46808   0.14016   0.02044   0.00000  Uiso   1.00
C49    C     0.50014   0.24666   0.16661   0.00000  Uiso   1.00
C50    C     0.40045   0.16658   0.15478   0.00000  Uiso   1.00
C51    C     0.59955   0.16676   0.17855   0.00000  Uiso   1.00
C52    C     0.34544   0.16624   0.14838   0.00000  Uiso   1.00
C53    C     0.65456   0.16709   0.18496   0.00000  Uiso   1.00
C54    C     0.48878   0.02145   0.12530   0.00000  Uiso   1.00
C55    C     0.51122   0.31189   0.20803   0.00000  Uiso   1.00
C56    C     0.48906   0.31215   0.12521   0.00000  Uiso   1.00
H57    H     0.65836   0.16517   0.11362   0.00000  Uiso   1.00
H58    H     0.34164   0.16817   0.21971   0.00000  Uiso   1.00
H59    H     0.47970   0.03779   0.09309   0.00000  Uiso   1.00
H60    H     0.52030   0.29555   0.24024   0.00000  Uiso   1.00
H61    H     0.48016   0.29602   0.09299   0.00000  Uiso   1.00
H62    H     0.51984   0.03731   0.24034   0.00000  Uiso   1.00
H63    H     0.55740   0.21433   0.29757   0.00000  Uiso   1.00
H64    H     0.44260   0.11900   0.03576   0.00000  Uiso   1.00
N65    N     0.49999   0.16666   0.28573   0.00000  Uiso   1.00
N66    N     0.50001   0.16668   0.04760   0.00000  Uiso   1.00
O67    O     0.50000   0.10558   0.20487   0.00000  Uiso   1.00
O68    O     0.50000   0.22775   0.12846   0.00000  Uiso   1.00
O69    O     0.50000   0.10559   0.12843   0.00000  Uiso   1.00
O70    O     0.50000   0.22774   0.20490   0.00000  Uiso   1.00
O71    O     0.42392   0.16666   0.19595   0.00000  Uiso   1.00
O72    O     0.57608   0.16667   0.13739   0.00000  Uiso   1.00
O73    O     0.42392   0.16667   0.11950   0.00000  Uiso   1.00
O74    O     0.57608   0.16666   0.21383   0.00000  Uiso   1.00
Zn75   Zn    0.50000   0.16666   0.21771   0.00000  Uiso   1.00
Zn76   Zn    0.50000   0.16667   0.11563   0.00000  Uiso   1.00
Br77   Br    0.91195   0.23189   0.06199   0.00000  Uiso   1.00
Br78   Br    0.75472   0.10144   0.27134   0.00000  Uiso   1.00
C79    C     0.83319   0.08667   0.16672   0.00000  Uiso   1.00
C80    C     0.84427   0.02118   0.20812   0.00000  Uiso   1.00
C81    C     0.83358   0.29083   0.16658   0.00000  Uiso   1.00
C82    C     0.83309   0.04250   0.16676   0.00000  Uiso   1.00
C83    C     0.86543   0.19331   0.02731   0.00000  Uiso   1.00
C84    C     0.80123   0.14002   0.30603   0.00000  Uiso   1.00
C85    C     0.86526   0.19317   0.31289   0.00000  Uiso   1.00
C86    C     0.80141   0.14016   0.02044   0.00000  Uiso   1.00
C87    C     0.83348   0.24666   0.16661   0.00000  Uiso   1.00
C88    C     0.73378   0.16658   0.15478   0.00000  Uiso   1.00
C89    C     0.93288   0.16676   0.17855   0.00000  Uiso   1.00
C90    C     0.67878   0.16624   0.14838   0.00000  Uiso   1.00
C91    C     0.98789   0.16709   0.18496   0.00000  Uiso   1.00
C92    C     0.82211   0.02145   0.12530   0.00000  Uiso   1.00
C93    C     0.84456   0.31189   0.20803   0.00000  Uiso   1.00
C94    C     0.82240   0.31215   0.12521   0.00000  Uiso   1.00
H95    H     0.99169   0.16517   0.11362   0.00000  Uiso   1.00
H96    H     0.67497   0.16817   0.21971   0.00000  Uiso   1.00
H97    H     0.81303   0.03779   0.09309   0.00000  Uiso   1.00
H98    H     0.85363   0.29555   0.24024   0.00000  Uiso   1.00
H99    H     0.81349   0.29602   0.09299   0.00000  Uiso   1.00
H100   H     0.85317   0.03731   0.24034   0.00000  Uiso   1.00
H101   H     0.89074   0.21433   0.29757   0.00000  Uiso   1.00
H102   H     0.77593   0.11900   0.03576   0.00000  Uiso   1.00
N103   N     0.83332   0.16666   0.28573   0.00000  Uiso   1.00
N104   N     0.83335   0.16668   0.04760   0.00000  Uiso   1.00
O105   O     0.83333   0.10558   0.20487   0.00000  Uiso   1.00
O106   O     0.83334   0.22775   0.12846   0.00000  Uiso   1.00
O107   O     0.83333   0.10559   0.12843   0.00000  Uiso   1.00
O108   O     0.83334   0.22774   0.20490   0.00000  Uiso   1.00
O109   O     0.75725   0.16666   0.19595   0.00000  Uiso   1.00
O110   O     0.90942   0.16667   0.13739   0.00000  Uiso   1.00
O111   O     0.75725   0.16667   0.11950   0.00000  Uiso   1.00
O112   O     0.90942   0.16666   0.21383   0.00000  Uiso   1.00
Zn113  Zn    0.83333   0.16666   0.21771   0.00000  Uiso   1.00
Zn114  Zn    0.83333   0.16667   0.11563   0.00000  Uiso   1.00
Br115  Br    0.24528   0.56523   0.06199   0.00000  Uiso   1.00
Br116  Br    0.08805   0.43477   0.27134   0.00000  Uiso   1.00
C117   C     0.16652   0.42001   0.16672   0.00000  Uiso   1.00
C118   C     0.17760   0.35451   0.20812   0.00000  Uiso   1.00
C119   C     0.16691   0.62417   0.16658   0.00000  Uiso   1.00
C120   C     0.16642   0.37583   0.16676   0.00000  Uiso   1.00
C121   C     0.19877   0.52664   0.02731   0.00000  Uiso   1.00
C122   C     0.13457   0.47336   0.30603   0.00000  Uiso   1.00
C123   C     0.19859   0.52651   0.31289   0.00000  Uiso   1.00
C124   C     0.13474   0.47349   0.02044   0.00000  Uiso   1.00
C125   C     0.16681   0.57999   0.16661   0.00000  Uiso   1.00
C126   C     0.06712   0.49991   0.15478   0.00000  Uiso   1.00
C127   C     0.26622   0.50009   0.17855   0.00000  Uiso   1.00
C128   C     0.01211   0.49958   0.14838   0.00000  Uiso   1.00
C129   C     0.32122   0.50042   0.18496   0.00000  Uiso   1.00
C130   C     0.15544   0.35478   0.12530   0.00000  Uiso   1.00
C131   C     0.17789   0.64522   0.20803   0.00000  Uiso   1.00
C132   C     0.15573   0.64549   0.12521   0.00000  Uiso   1.00
H133   H     0.32502   0.49850   0.11362   0.00000  Uiso   1.00
H134   H     0.00831   0.50150   0.21971   0.00000  Uiso   1.00
H135   H     0.14637   0.37112   0.09309   0.00000  Uiso   1.00
H136   H     0.18697   0.62888   0.24024   0.00000  Uiso   1.00
H137   H     0.14683   0.62935   0.09299   0.00000  Uiso   1.00
H138   H     0.18650   0.37065   0.24034   0.00000  Uiso   1.00
H139   H     0.22407   0.54767   0.29757   0.00000  Uiso   1.00
H140   H     0.10926   0.45233   0.03576   0.00000  Uiso   1.00
N141   N     0.16665   0.49999   0.28573   0.00000  Uiso   1.00
N142   N     0.16668   0.50001   0.04760   0.00000  Uiso   1.00
O143   O     0.16666   0.43892   0.20487   0.00000  Uiso   1.00
O144   O     0.16667   0.56108   0.12846   0.00000  Uiso   1.00
O145   O     0.16666   0.43893   0.12843   0.00000  Uiso   1.00
O146   O     0.16667   0.56107   0.20490   0.00000  Uiso   1.00
O147   O     0.09058   0.50000   0.19595   0.00000  Uiso   1.00
O148   O     0.24275   0.50000   0.13739   0.00000  Uiso   1.00
O149   O     0.09058   0.50000   0.11950   0.00000  Uiso   1.00
O150   O     0.24275   0.50000   0.21383   0.00000  Uiso   1.00
Zn151  Zn    0.16667   0.49999   0.21771   0.00000  Uiso   1.00
Zn152  Zn    0.16667   0.50001   0.11563   0.00000  Uiso   1.00
Br153  Br    0.57861   0.56523   0.06199   0.00000  Uiso   1.00
Br154  Br    0.42139   0.43477   0.27134   0.00000  Uiso   1.00
C155   C     0.49986   0.42001   0.16672   0.00000  Uiso   1.00
C156   C     0.51094   0.35451   0.20812   0.00000  Uiso   1.00
C157   C     0.50025   0.62417   0.16658   0.00000  Uiso   1.00
C158   C     0.49975   0.37583   0.16676   0.00000  Uiso   1.00
C159   C     0.53210   0.52664   0.02731   0.00000  Uiso   1.00
C160   C     0.46790   0.47336   0.30603   0.00000  Uiso   1.00
C161   C     0.53192   0.52651   0.31289   0.00000  Uiso   1.00
C162   C     0.46808   0.47349   0.02044   0.00000  Uiso   1.00
C163   C     0.50014   0.57999   0.16661   0.00000  Uiso   1.00
C164   C     0.40045   0.49991   0.15478   0.00000  Uiso   1.00
C165   C     0.59955   0.50009   0.17855   0.00000  Uiso   1.00
C166   C     0.34544   0.49958   0.14838   0.00000  Uiso   1.00
C167   C     0.65456   0.50042   0.18496   0.00000  Uiso   1.00
C168   C     0.48878   0.35478   0.12530   0.00000  Uiso   1.00
C169   C     0.51122   0.64522   0.20803   0.00000  Uiso   1.00
C170   C     0.48906   0.64549   0.12521   0.00000  Uiso   1.00
H171   H     0.65836   0.49850   0.11362   0.00000  Uiso   1.00
H172   H     0.34164   0.50150   0.21971   0.00000  Uiso   1.00
H173   H     0.47970   0.37112   0.09309   0.00000  Uiso   1.00
H174   H     0.52030   0.62888   0.24024   0.00000  Uiso   1.00
H175   H     0.48016   0.62935   0.09299   0.00000  Uiso   1.00
H176   H     0.51984   0.37065   0.24034   0.00000  Uiso   1.00
H177   H     0.55740   0.54767   0.29757   0.00000  Uiso   1.00
H178   H     0.44260   0.45233   0.03576   0.00000  Uiso   1.00
N179   N     0.49999   0.49999   0.28573   0.00000  Uiso   1.00
N180   N     0.50001   0.50001   0.04760   0.00000  Uiso   1.00
O181   O     0.50000   0.43892   0.20487   0.00000  Uiso   1.00
O182   O     0.50000   0.56108   0.12846   0.00000  Uiso   1.00
O183   O     0.50000   0.43893   0.12843   0.00000  Uiso   1.00
O184   O     0.50000   0.56107   0.20490   0.00000  Uiso   1.00
O185   O     0.42392   0.50000   0.19595   0.00000  Uiso   1.00
O186   O     0.57608   0.50000   0.13739   0.00000  Uiso   1.00
O187   O     0.42392   0.50000   0.11950   0.00000  Uiso   1.00
O188   O     0.57608   0.50000   0.21383   0.00000  Uiso   1.00
Zn189  Zn    0.50000   0.49999   0.21771   0.00000  Uiso   1.00
Zn190  Zn    0.50000   0.50001   0.11563   0.00000  Uiso   1.00
Br191  Br    0.91195   0.56523   0.06199   0.00000  Uiso   1.00
Br192  Br    0.75472   0.43477   0.27134   0.00000  Uiso   1.00
C193   C     0.83319   0.42001   0.16672   0.00000  Uiso   1.00
C194   C     0.84427   0.35451   0.20812   0.00000  Uiso   1.00
C195   C     0.83358   0.62417   0.16658   0.00000  Uiso   1.00
C196   C     0.83309   0.37583   0.16676   0.00000  Uiso   1.00
C197   C     0.86543   0.52664   0.02731   0.00000  Uiso   1.00
C198   C     0.80123   0.47336   0.30603   0.00000  Uiso   1.00
C199   C     0.86526   0.52651   0.31289   0.00000  Uiso   1.00
C200   C     0.80141   0.47349   0.02044   0.00000  Uiso   1.00
C201   C     0.83348   0.57999   0.16661   0.00000  Uiso   1.00
C202   C     0.73378   0.49991   0.15478   0.00000  Uiso   1.00
C203   C     0.93288   0.50009   0.17855   0.00000  Uiso   1.00
C204   C     0.67878   0.49958   0.14838   0.00000  Uiso   1.00
C205   C     0.98789   0.50042   0.18496   0.00000  Uiso   1.00
C206   C     0.82211   0.35478   0.12530   0.00000  Uiso   1.00
C207   C     0.84456   0.64522   0.20803   0.00000  Uiso   1.00
C208   C     0.82240   0.64549   0.12521   0.00000  Uiso   1.00
H209   H     0.99169   0.49850   0.11362   0.00000  Uiso   1.00
H210   H     0.67497   0.50150   0.21971   0.00000  Uiso   1.00
H211   H     0.81303   0.37112   0.09309   0.00000  Uiso   1.00
H212   H     0.85363   0.62888   0.24024   0.00000  Uiso   1.00
H213   H     0.81349   0.62935   0.09299   0.00000  Uiso   1.00
H214   H     0.85317   0.37065   0.24034   0.00000  Uiso   1.00
H215   H     0.89074   0.54767   0.29757   0.00000  Uiso   1.00
H216   H     0.77593   0.45233   0.03576   0.00000  Uiso   1.00
N217   N     0.83332   0.49999   0.28573   0.00000  Uiso   1.00
N218   N     0.83335   0.50001   0.04760   0.00000  Uiso   1.00
O219   O     0.83333   0.43892   0.20487   0.00000  Uiso   1.00
O220   O     0.83334   0.56108   0.12846   0.00000  Uiso   1.00
O221   O     0.83333   0.43893   0.12843   0.00000  Uiso   1.00
O222   O     0.83334   0.56107   0.20490   0.00000  Uiso   1.00
O223   O     0.75725   0.50000   0.19595   0.00000  Uiso   1.00
O224   O     0.90942   0.50000   0.13739   0.00000  Uiso   1.00
O225   O     0.75725   0.50000   0.11950   0.00000  Uiso   1.00
O226   O     0.90942   0.50000   0.21383   0.00000  Uiso   1.00
Zn227  Zn    0.83333   0.49999   0.21771   0.00000  Uiso   1.00
Zn228  Zn    0.83333   0.50001   0.11563   0.00000  Uiso   1.00
Br229  Br    0.24528   0.89856   0.06199   0.00000  Uiso   1.00
Br230  Br    0.08805   0.76811   0.27134   0.00000  Uiso   1.00
C231   C     0.16652   0.75334   0.16672   0.00000  Uiso   1.00
C232   C     0.17760   0.68785   0.20812   0.00000  Uiso   1.00
C233   C     0.16691   0.95750   0.16658   0.00000  Uiso   1.00
C234   C     0.16642   0.70916   0.16676   0.00000  Uiso   1.00
C235   C     0.19877   0.85998   0.02731   0.00000  Uiso   1.00
C236   C     0.13457   0.80669   0.30603   0.00000  Uiso   1.00
C237   C     0.19859   0.85984   0.31289   0.00000  Uiso   1.00
C238   C     0.13474   0.80683   0.02044   0.00000  Uiso   1.00
C239   C     0.16681   0.91333   0.16661   0.00000  Uiso   1.00
C240   C     0.06712   0.83324   0.15478   0.00000  Uiso   1.00
C241   C     0.26622   0.83342   0.17855   0.00000  Uiso   1.00
C242   C     0.01211   0.83291   0.14838   0.00000  Uiso   1.00
C243   C     0.32122   0.83376   0.18496   0.00000  Uiso   1.00
C244   C     0.15544   0.68811   0.12530   0.00000  Uiso   1.00
C245   C     0.17789   0.97855   0.20803   0.00000  Uiso   1.00
C246   C     0.15573   0.97882   0.12521   0.00000  Uiso   1.00
H247   H     0.32502   0.83183   0.11362   0.00000  Uiso   1.00
H248   H     0.00831   0.83483   0.21971   0.00000  Uiso   1.00
H249   H     0.14637   0.70445   0.09309   0.00000  Uiso   1.00
H250   H     0.18697   0.96221   0.24024   0.00000  Uiso   1.00
H251   H     0.14683   0.96269   0.09299   0.00000  Uiso   1.00
H252   H     0.18650   0.70398   0.24034   0.00000  Uiso   1.00
H253   H     0.22407   0.88100   0.29757   0.00000  Uiso   1.00
H254   H     0.10926   0.78567   0.03576   0.00000  Uiso   1.00
N255   N     0.16665   0.83332   0.28573   0.00000  Uiso   1.00
N256   N     0.16668   0.83334   0.04760   0.00000  Uiso   1.00
O257   O     0.16666   0.77225   0.20487   0.00000  Uiso   1.00
O258   O     0.16667   0.89442   0.12846   0.00000  Uiso   1.00
O259   O     0.16666   0.77226   0.12843   0.00000  Uiso   1.00
O260   O     0.16667   0.89441   0.20490   0.00000  Uiso   1.00
O261   O     0.09058   0.83333   0.19595   0.00000  Uiso   1.00
O262   O     0.24275   0.83334   0.13739   0.00000  Uiso   1.00
O263   O     0.09058   0.83334   0.11950   0.00000  Uiso   1.00
O264   O     0.24275   0.83333   0.21383   0.00000  Uiso   1.00
Zn265  Zn    0.16667   0.83333   0.21771   0.00000  Uiso   1.00
Zn266  Zn    0.16667   0.83334   0.11563   0.00000  Uiso   1.00
Br267  Br    0.57861   0.89856   0.06199   0.00000  Uiso   1.00
Br268  Br    0.42139   0.76811   0.27134   0.00000  Uiso   1.00
C269   C     0.49986   0.75334   0.16672   0.00000  Uiso   1.00
C270   C     0.51094   0.68785   0.20812   0.00000  Uiso   1.00
C271   C     0.50025   0.95750   0.16658   0.00000  Uiso   1.00
C272   C     0.49975   0.70916   0.16676   0.00000  Uiso   1.00
C273   C     0.53210   0.85998   0.02731   0.00000  Uiso   1.00
C274   C     0.46790   0.80669   0.30603   0.00000  Uiso   1.00
C275   C     0.53192   0.85984   0.31289   0.00000  Uiso   1.00
C276   C     0.46808   0.80683   0.02044   0.00000  Uiso   1.00
C277   C     0.50014   0.91333   0.16661   0.00000  Uiso   1.00
C278   C     0.40045   0.83324   0.15478   0.00000  Uiso   1.00
C279   C     0.59955   0.83342   0.17855   0.00000  Uiso   1.00
C280   C     0.34544   0.83291   0.14838   0.00000  Uiso   1.00
C281   C     0.65456   0.83376   0.18496   0.00000  Uiso   1.00
C282   C     0.48878   0.68811   0.12530   0.00000  Uiso   1.00
C283   C     0.51122   0.97855   0.20803   0.00000  Uiso   1.00
C284   C     0.48906   0.97882   0.12521   0.00000  Uiso   1.00
H285   H     0.65836   0.83183   0.11362   0.00000  Uiso   1.00
H286   H     0.34164   0.83483   0.21971   0.00000  Uiso   1.00
H287   H     0.47970   0.70445   0.09309   0.00000  Uiso   1.00
H288   H     0.52030   0.96221   0.24024   0.00000  Uiso   1.00
H289   H     0.48016   0.96269   0.09299   0.00000  Uiso   1.00
H290   H     0.51984   0.70398   0.24034   0.00000  Uiso   1.00
H291   H     0.55740   0.88100   0.29757   0.00000  Uiso   1.00
H292   H     0.44260   0.78567   0.03576   0.00000  Uiso   1.00
N293   N     0.49999   0.83332   0.28573   0.00000  Uiso   1.00
N294   N     0.50001   0.83334   0.04760   0.00000  Uiso   1.00
O295   O     0.50000   0.77225   0.20487   0.00000  Uiso   1.00
O296   O     0.50000   0.89442   0.12846   0.00000  Uiso   1.00
O297   O     0.50000   0.77226   0.12843   0.00000  Uiso   1.00
O298   O     0.50000   0.89441   0.20490   0.00000  Uiso   1.00
O299   O     0.42392   0.83333   0.19595   0.00000  Uiso   1.00
O300   O     0.57608   0.83334   0.13739   0.00000  Uiso   1.00
O301   O     0.42392   0.83334   0.11950   0.00000  Uiso   1.00
O302   O     0.57608   0.83333   0.21383   0.00000  Uiso   1.00
Zn303  Zn    0.50000   0.83333   0.21771   0.00000  Uiso   1.00
Zn304  Zn    0.50000   0.83334   0.11563   0.00000  Uiso   1.00
Br305  Br    0.91195   0.89856   0.06199   0.00000  Uiso   1.00
Br306  Br    0.75472   0.76811   0.27134   0.00000  Uiso   1.00
C307   C     0.83319   0.75334   0.16672   0.00000  Uiso   1.00
C308   C     0.84427   0.68785   0.20812   0.00000  Uiso   1.00
C309   C     0.83358   0.95750   0.16658   0.00000  Uiso   1.00
C310   C     0.83309   0.70916   0.16676   0.00000  Uiso   1.00
C311   C     0.86543   0.85998   0.02731   0.00000  Uiso   1.00
C312   C     0.80123   0.80669   0.30603   0.00000  Uiso   1.00
C313   C     0.86526   0.85984   0.31289   0.00000  Uiso   1.00
C314   C     0.80141   0.80683   0.02044   0.00000  Uiso   1.00
C315   C     0.83348   0.91333   0.16661   0.00000  Uiso   1.00
C316   C     0.73378   0.83324   0.15478   0.00000  Uiso   1.00
C317   C     0.93288   0.83342   0.17855   0.00000  Uiso   1.00
C318   C     0.67878   0.83291   0.14838   0.00000  Uiso   1.00
C319   C     0.98789   0.83376   0.18496   0.00000  Uiso   1.00
C320   C     0.82211   0.68811   0.12530   0.00000  Uiso   1.00
C321   C     0.84456   0.97855   0.20803   0.00000  Uiso   1.00
C322   C     0.82240   0.97882   0.12521   0.00000  Uiso   1.00
H323   H     0.99169   0.83183   0.11362   0.00000  Uiso   1.00
H324   H     0.67497   0.83483   0.21971   0.00000  Uiso   1.00
H325   H     0.81303   0.70445   0.09309   0.00000  Uiso   1.00
H326   H     0.85363   0.96221   0.24024   0.00000  Uiso   1.00
H327   H     0.81349   0.96269   0.09299   0.00000  Uiso   1.00
H328   H     0.85317   0.70398   0.24034   0.00000  Uiso   1.00
H329   H     0.89074   0.88100   0.29757   0.00000  Uiso   1.00
H330   H     0.77593   0.78567   0.03576   0.00000  Uiso   1.00
N331   N     0.83332   0.83332   0.28573   0.00000  Uiso   1.00
N332   N     0.83335   0.83334   0.04760   0.00000  Uiso   1.00
O333   O     0.83333   0.77225   0.20487   0.00000  Uiso   1.00
O334   O     0.83334   0.89442   0.12846   0.00000  Uiso   1.00
O335   O     0.83333   0.77226   0.12843   0.00000  Uiso   1.00
O336   O     0.83334   0.89441   0.20490   0.00000  Uiso   1.00
O337   O     0.75725   0.83333   0.19595   0.00000  Uiso   1.00
O338   O     0.90942   0.83334   0.13739   0.00000  Uiso   1.00
O339   O     0.75725   0.83334   0.11950   0.00000  Uiso   1.00
O340   O     0.90942   0.83333   0.21383   0.00000  Uiso   1.00
Zn341  Zn    0.83333   0.83333   0.21771   0.00000  Uiso   1.00
Zn342  Zn    0.83333   0.83334   0.11563   0.00000  Uiso   1.00
Br343  Br    0.24528   0.23189   0.39533   0.00000  Uiso   1.00
Br344  Br    0.08805   0.10144   0.60467   0.00000  Uiso   1.00
C345   C     0.16652   0.08667   0.50005   0.00000  Uiso   1.00
C346   C     0.17760   0.02118   0.54146   0.00000  Uiso   1.00
C347   C     0.16691   0.29083   0.49991   0.00000  Uiso   1.00
C348   C     0.16642   0.04250   0.50009   0.00000  Uiso   1.00
C349   C     0.19877   0.19331   0.36064   0.00000  Uiso   1.00
C350   C     0.13457   0.14002   0.63936   0.00000  Uiso   1.00
C351   C     0.19859   0.19317   0.64622   0.00000  Uiso   1.00
C352   C     0.13474   0.14016   0.35378   0.00000  Uiso   1.00
C353   C     0.16681   0.24666   0.49995   0.00000  Uiso   1.00
C354   C     0.06712   0.16658   0.48811   0.00000  Uiso   1.00
C355   C     0.26622   0.16676   0.51189   0.00000  Uiso   1.00
C356   C     0.01211   0.16624   0.48171   0.00000  Uiso   1.00
C357   C     0.32122   0.16709   0.51829   0.00000  Uiso   1.00
C358   C     0.15544   0.02145   0.45863   0.00000  Uiso   1.00
C359   C     0.17789   0.31189   0.54137   0.00000  Uiso   1.00
C360   C     0.15573   0.31215   0.45854   0.00000  Uiso   1.00
H361   H     0.32502   0.16517   0.44695   0.00000  Uiso   1.00
H362   H     0.00831   0.16817   0.55305   0.00000  Uiso   1.00
H363   H     0.14637   0.03779   0.42643   0.00000  Uiso   1.00
H364   H     0.18697   0.29555   0.57357   0.00000  Uiso   1.00
H365   H     0.14683   0.29602   0.42632   0.00000  Uiso   1.00
H366   H     0.18650   0.03731   0.57368   0.00000  Uiso   1.00
H367   H     0.22407   0.21433   0.63090   0.00000  Uiso   1.00
H368   H     0.10926   0.11900   0.36909   0.00000  Uiso   1.00
N369   N     0.16665   0.16666   0.61907   0.00000  Uiso   1.00
N370   N     0.16668   0.16668   0.38093   0.00000  Uiso   1.00
O371   O     0.16666   0.10558   0.53821   0.00000  Uiso   1.00
O372   O     0.16667   0.22775   0.46179   0.00000  Uiso   1.00
O373   O     0.16666   0.10559   0.46176   0.00000  Uiso   1.00
O374   O     0.16667   0.22774   0.53824   0.00000  Uiso   1.00
O375   O     0.09058   0.16666   0.52928   0.00000  Uiso   1.00
O376   O     0.24275   0.16667   0.47072   0.00000  Uiso   1.00
O377   O     0.09058   0.16667   0.45284   0.00000  Uiso   1.00
O378   O     0.24275   0.16666   0.54716   0.00000  Uiso   1.00
Zn379  Zn    0.16667   0.16666   0.55104   0.00000  Uiso   1.00
Zn380  Zn    0.16667   0.16667   0.44896   0.00000  Uiso   1.00
Br381  Br    0.57861   0.23189   0.39533   0.00000  Uiso   1.00
Br382  Br    0.42139   0.10144   0.60467   0.00000  Uiso   1.00
C383   C     0.49986   0.08667   0.50005   0.00000  Uiso   1.00
C384   C     0.51094   0.02118   0.54146   0.00000  Uiso   1.00
C385   C     0.50025   0.29083   0.49991   0.00000  Uiso   1.00
C386   C     0.49975   0.04250   0.50009   0.00000  Uiso   1.00
C387   C     0.53210   0.19331   0.36064   0.00000  Uiso   1.00
C388   C     0.46790   0.14002   0.63936   0.00000  Uiso   1.00
C389   C     0.53192   0.19317   0.64622   0.00000  Uiso   1.00
C390   C     0.46808   0.14016   0.35378   0.00000  Uiso   1.00
C391   C     0.50014   0.24666   0.49995   0.00000  Uiso   1.00
C392   C     0.40045   0.16658   0.48811   0.00000  Uiso   1.00
C393   C     0.59955   0.16676   0.51189   0.00000  Uiso   1.00
C394   C     0.34544   0.16624   0.48171   0.00000  Uiso   1.00
C395   C     0.65456   0.16709   0.51829   0.00000  Uiso   1.00
C396   C     0.48878   0.02145   0.45863   0.00000  Uiso   1.00
C397   C     0.51122   0.31189   0.54137   0.00000  Uiso   1.00
C398   C     0.48906   0.31215   0.45854   0.00000  Uiso   1.00
H399   H     0.65836   0.16517   0.44695   0.00000  Uiso   1.00
H400   H     0.34164   0.16817   0.55305   0.00000  Uiso   1.00
H401   H     0.47970   0.03779   0.42643   0.00000  Uiso   1.00
H402   H     0.52030   0.29555   0.57357   0.00000  Uiso   1.00
H403   H     0.48016   0.29602   0.42632   0.00000  Uiso   1.00
H404   H     0.51984   0.03731   0.57368   0.00000  Uiso   1.00
H405   H     0.55740   0.21433   0.63090   0.00000  Uiso   1.00
H406   H     0.44260   0.11900   0.36909   0.00000  Uiso   1.00
N407   N     0.49999   0.16666   0.61907   0.00000  Uiso   1.00
N408   N     0.50001   0.16668   0.38093   0.00000  Uiso   1.00
O409   O     0.50000   0.10558   0.53821   0.00000  Uiso   1.00
O410   O     0.50000   0.22775   0.46179   0.00000  Uiso   1.00
O411   O     0.50000   0.10559   0.46176   0.00000  Uiso   1.00
O412   O     0.50000   0.22774   0.53824   0.00000  Uiso   1.00
O413   O     0.42392   0.16666   0.52928   0.00000  Uiso   1.00
O414   O     0.57608   0.16667   0.47072   0.00000  Uiso   1.00
O415   O     0.42392   0.16667   0.45284   0.00000  Uiso   1.00
O416   O     0.57608   0.16666   0.54716   0.00000  Uiso   1.00
Zn417  Zn    0.50000   0.16666   0.55104   0.00000  Uiso   1.00
Zn418  Zn    0.50000   0.16667   0.44896   0.00000  Uiso   1.00
Br419  Br    0.91195   0.23189   0.39533   0.00000  Uiso   1.00
Br420  Br    0.75472   0.10144   0.60467   0.00000  Uiso   1.00
C421   C     0.83319   0.08667   0.50005   0.00000  Uiso   1.00
C422   C     0.84427   0.02118   0.54146   0.00000  Uiso   1.00
C423   C     0.83358   0.29083   0.49991   0.00000  Uiso   1.00
C424   C     0.83309   0.04250   0.50009   0.00000  Uiso   1.00
C425   C     0.86543   0.19331   0.36064   0.00000  Uiso   1.00
C426   C     0.80123   0.14002   0.63936   0.00000  Uiso   1.00
C427   C     0.86526   0.19317   0.64622   0.00000  Uiso   1.00
C428   C     0.80141   0.14016   0.35378   0.00000  Uiso   1.00
C429   C     0.83348   0.24666   0.49995   0.00000  Uiso   1.00
C430   C     0.73378   0.16658   0.48811   0.00000  Uiso   1.00
C431   C     0.93288   0.16676   0.51189   0.00000  Uiso   1.00
C432   C     0.67878   0.16624   0.48171   0.00000  Uiso   1.00
C433   C     0.98789   0.16709   0.51829   0.00000  Uiso   1.00
C434   C     0.82211   0.02145   0.45863   0.00000  Uiso   1.00
C435   C     0.84456   0.31189   0.54137   0.00000  Uiso   1.00
C436   C     0.82240   0.31215   0.45854   0.00000  Uiso   1.00
H437   H     0.99169   0.16517   0.44695   0.00000  Uiso   1.00
H438   H     0.67497   0.16817   0.55305   0.00000  Uiso   1.00
H439   H     0.81303   0.03779   0.42643   0.00000  Uiso   1.00
H440   H     0.85363   0.29555   0.57357   0.00000  Uiso   1.00
H441   H     0.81349   0.29602   0.42632   0.00000  Uiso   1.00
H442   H     0.85317   0.03731   0.57368   0.00000  Uiso   1.00
H443   H     0.89074   0.21433   0.63090   0.00000  Uiso   1.00
H444   H     0.77593   0.11900   0.36909   0.00000  Uiso   1.00
N445   N     0.83332   0.16666   0.61907   0.00000  Uiso   1.00
N446   N     0.83335   0.16668   0.38093   0.00000  Uiso   1.00
O447   O     0.83333   0.10558   0.53821   0.00000  Uiso   1.00
O448   O     0.83334   0.22775   0.46179   0.00000  Uiso   1.00
O449   O     0.83333   0.10559   0.46176   0.00000  Uiso   1.00
O450   O     0.83334   0.22774   0.53824   0.00000  Uiso   1.00
O451   O     0.75725   0.16666   0.52928   0.00000  Uiso   1.00
O452   O     0.90942   0.16667   0.47072   0.00000  Uiso   1.00
O453   O     0.75725   0.16667   0.45284   0.00000  Uiso   1.00
O454   O     0.90942   0.16666   0.54716   0.00000  Uiso   1.00
Zn455  Zn    0.83333   0.16666   0.55104   0.00000  Uiso   1.00
Zn456  Zn    0.83333   0.16667   0.44896   0.00000  Uiso   1.00
Br457  Br    0.24528   0.56523   0.39533   0.00000  Uiso   1.00
Br458  Br    0.08805   0.43477   0.60467   0.00000  Uiso   1.00
C459   C     0.16652   0.42001   0.50005   0.00000  Uiso   1.00
C460   C     0.17760   0.35451   0.54146   0.00000  Uiso   1.00
C461   C     0.16691   0.62417   0.49991   0.00000  Uiso   1.00
C462   C     0.16642   0.37583   0.50009   0.00000  Uiso   1.00
C463   C     0.19877   0.52664   0.36064   0.00000  Uiso   1.00
C464   C     0.13457   0.47336   0.63936   0.00000  Uiso   1.00
C465   C     0.19859   0.52651   0.64622   0.00000  Uiso   1.00
C466   C     0.13474   0.47349   0.35378   0.00000  Uiso   1.00
C467   C     0.16681   0.57999   0.49995   0.00000  Uiso   1.00
C468   C     0.06712   0.49991   0.48811   0.00000  Uiso   1.00
C469   C     0.26622   0.50009   0.51189   0.00000  Uiso   1.00
C470   C     0.01211   0.49958   0.48171   0.00000  Uiso   1.00
C471   C     0.32122   0.50042   0.51829   0.00000  Uiso   1.00
C472   C     0.15544   0.35478   0.45863   0.00000  Uiso   1.00
C473   C     0.17789   0.64522   0.54137   0.00000  Uiso   1.00
C474   C     0.15573   0.64549   0.45854   0.00000  Uiso   1.00
H475   H     0.32502   0.49850   0.44695   0.00000  Uiso   1.00
H476   H     0.00831   0.50150   0.55305   0.00000  Uiso   1.00
H477   H     0.14637   0.37112   0.42643   0.00000  Uiso   1.00
H478   H     0.18697   0.62888   0.57357   0.00000  Uiso   1.00
H479   H     0.14683   0.62935   0.42632   0.00000  Uiso   1.00
H480   H     0.18650   0.37065   0.57368   0.00000  Uiso   1.00
H481   H     0.22407   0.54767   0.63090   0.00000  Uiso   1.00
H482   H     0.10926   0.45233   0.36909   0.00000  Uiso   1.00
N483   N     0.16665   0.49999   0.61907   0.00000  Uiso   1.00
N484   N     0.16668   0.50001   0.38093   0.00000  Uiso   1.00
O485   O     0.16666   0.43892   0.53821   0.00000  Uiso   1.00
O486   O     0.16667   0.56108   0.46179   0.00000  Uiso   1.00
O487   O     0.16666   0.43893   0.46176   0.00000  Uiso   1.00
O488   O     0.16667   0.56107   0.53824   0.00000  Uiso   1.00
O489   O     0.09058   0.50000   0.52928   0.00000  Uiso   1.00
O490   O     0.24275   0.50000   0.47072   0.00000  Uiso   1.00
O491   O     0.09058   0.50000   0.45284   0.00000  Uiso   1.00
O492   O     0.24275   0.50000   0.54716   0.00000  Uiso   1.00
Zn493  Zn    0.16667   0.49999   0.55104   0.00000  Uiso   1.00
Zn494  Zn    0.16667   0.50001   0.44896   0.00000  Uiso   1.00
Br495  Br    0.57861   0.56523   0.39533   0.00000  Uiso   1.00
Br496  Br    0.42139   0.43477   0.60467   0.00000  Uiso   1.00
C497   C     0.49986   0.42001   0.50005   0.00000  Uiso   1.00
C498   C     0.51094   0.35451   0.54146   0.00000  Uiso   1.00
C499   C     0.50025   0.62417   0.49991   0.00000  Uiso   1.00
C500   C     0.49975   0.37583   0.50009   0.00000  Uiso   1.00
C501   C     0.53210   0.52664   0.36064   0.00000  Uiso   1.00
C502   C     0.46790   0.47336   0.63936   0.00000  Uiso   1.00
C503   C     0.53192   0.52651   0.64622   0.00000  Uiso   1.00
C504   C     0.46808   0.47349   0.35378   0.00000  Uiso   1.00
C505   C     0.50014   0.57999   0.49995   0.00000  Uiso   1.00
C506   C     0.40045   0.49991   0.48811   0.00000  Uiso   1.00
C507   C     0.59955   0.50009   0.51189   0.00000  Uiso   1.00
C508   C     0.34544   0.49958   0.48171   0.00000  Uiso   1.00
C509   C     0.65456   0.50042   0.51829   0.00000  Uiso   1.00
C510   C     0.48878   0.35478   0.45863   0.00000  Uiso   1.00
C511   C     0.51122   0.64522   0.54137   0.00000  Uiso   1.00
C512   C     0.48906   0.64549   0.45854   0.00000  Uiso   1.00
H513   H     0.65836   0.49850   0.44695   0.00000  Uiso   1.00
H514   H     0.34164   0.50150   0.55305   0.00000  Uiso   1.00
H515   H     0.47970   0.37112   0.42643   0.00000  Uiso   1.00
H516   H     0.52030   0.62888   0.57357   0.00000  Uiso   1.00
H517   H     0.48016   0.62935   0.42632   0.00000  Uiso   1.00
H518   H     0.51984   0.37065   0.57368   0.00000  Uiso   1.00
H519   H     0.55740   0.54767   0.63090   0.00000  Uiso   1.00
H520   H     0.44260   0.45233   0.36909   0.00000  Uiso   1.00
N521   N     0.49999   0.49999   0.61907   0.00000  Uiso   1.00
N522   N     0.50001   0.50001   0.38093   0.00000  Uiso   1.00
O523   O     0.50000   0.43892   0.53821   0.00000  Uiso   1.00
O524   O     0.50000   0.56108   0.46179   0.00000  Uiso   1.00
O525   O     0.50000   0.43893   0.46176   0.00000  Uiso   1.00
O526   O     0.50000   0.56107   0.53824   0.00000  Uiso   1.00
O527   O     0.42392   0.50000   0.52928   0.00000  Uiso   1.00
O528   O     0.57608   0.50000   0.47072   0.00000  Uiso   1.00
O529   O     0.42392   0.50000   0.45284   0.00000  Uiso   1.00
O530   O     0.57608   0.50000   0.54716   0.00000  Uiso   1.00
Zn531  Zn    0.50000   0.49999   0.55104   0.00000  Uiso   1.00
Zn532  Zn    0.50000   0.50001   0.44896   0.00000  Uiso   1.00
Br533  Br    0.91195   0.56523   0.39533   0.00000  Uiso   1.00
Br534  Br    0.75472   0.43477   0.60467   0.00000  Uiso   1.00
C535   C     0.83319   0.42001   0.50005   0.00000  Uiso   1.00
C536   C     0.84427   0.35451   0.54146   0.00000  Uiso   1.00
C537   C     0.83358   0.62417   0.49991   0.00000  Uiso   1.00
C538   C     0.83309   0.37583   0.50009   0.00000  Uiso   1.00
C539   C     0.86543   0.52664   0.36064   0.00000  Uiso   1.00
C540   C     0.80123   0.47336   0.63936   0.00000  Uiso   1.00
C541   C     0.86526   0.52651   0.64622   0.00000  Uiso   1.00
C542   C     0.80141   0.47349   0.35378   0.00000  Uiso   1.00
C543   C     0.83348   0.57999   0.49995   0.00000  Uiso   1.00
C544   C     0.73378   0.49991   0.48811   0.00000  Uiso   1.00
C545   C     0.93288   0.50009   0.51189   0.00000  Uiso   1.00
C546   C     0.67878   0.49958   0.48171   0.00000  Uiso   1.00
C547   C     0.98789   0.50042   0.51829   0.00000  Uiso   1.00
C548   C     0.82211   0.35478   0.45863   0.00000  Uiso   1.00
C549   C     0.84456   0.64522   0.54137   0.00000  Uiso   1.00
C550   C     0.82240   0.64549   0.45854   0.00000  Uiso   1.00
H551   H     0.99169   0.49850   0.44695   0.00000  Uiso   1.00
H552   H     0.67497   0.50150   0.55305   0.00000  Uiso   1.00
H553   H     0.81303   0.37112   0.42643   0.00000  Uiso   1.00
H554   H     0.85363   0.62888   0.57357   0.00000  Uiso   1.00
H555   H     0.81349   0.62935   0.42632   0.00000  Uiso   1.00
H556   H     0.85317   0.37065   0.57368   0.00000  Uiso   1.00
H557   H     0.89074   0.54767   0.63090   0.00000  Uiso   1.00
H558   H     0.77593   0.45233   0.36909   0.00000  Uiso   1.00
N559   N     0.83332   0.49999   0.61907   0.00000  Uiso   1.00
N560   N     0.83335   0.50001   0.38093   0.00000  Uiso   1.00
O561   O     0.83333   0.43892   0.53821   0.00000  Uiso   1.00
O562   O     0.83334   0.56108   0.46179   0.00000  Uiso   1.00
O563   O     0.83333   0.43893   0.46176   0.00000  Uiso   1.00
O564   O     0.83334   0.56107   0.53824   0.00000  Uiso   1.00
O565   O     0.75725   0.50000   0.52928   0.00000  Uiso   1.00
O566   O     0.90942   0.50000   0.47072   0.00000  Uiso   1.00
O567   O     0.75725   0.50000   0.45284   0.00000  Uiso   1.00
O568   O     0.90942   0.50000   0.54716   0.00000  Uiso   1.00
Zn569  Zn    0.83333   0.49999   0.55104   0.00000  Uiso   1.00
Zn570  Zn    0.83333   0.50001   0.44896   0.00000  Uiso   1.00
Br571  Br    0.24528   0.89856   0.39533   0.00000  Uiso   1.00
Br572  Br    0.08805   0.76811   0.60467   0.00000  Uiso   1.00
C573   C     0.16652   0.75334   0.50005   0.00000  Uiso   1.00
C574   C     0.17760   0.68785   0.54146   0.00000  Uiso   1.00
C575   C     0.16691   0.95750   0.49991   0.00000  Uiso   1.00
C576   C     0.16642   0.70916   0.50009   0.00000  Uiso   1.00
C577   C     0.19877   0.85998   0.36064   0.00000  Uiso   1.00
C578   C     0.13457   0.80669   0.63936   0.00000  Uiso   1.00
C579   C     0.19859   0.85984   0.64622   0.00000  Uiso   1.00
C580   C     0.13474   0.80683   0.35378   0.00000  Uiso   1.00
C581   C     0.16681   0.91333   0.49995   0.00000  Uiso   1.00
C582   C     0.06712   0.83324   0.48811   0.00000  Uiso   1.00
C583   C     0.26622   0.83342   0.51189   0.00000  Uiso   1.00
C584   C     0.01211   0.83291   0.48171   0.00000  Uiso   1.00
C585   C     0.32122   0.83376   0.51829   0.00000  Uiso   1.00
C586   C     0.15544   0.68811   0.45863   0.00000  Uiso   1.00
C587   C     0.17789   0.97855   0.54137   0.00000  Uiso   1.00
C588   C     0.15573   0.97882   0.45854   0.00000  Uiso   1.00
H589   H     0.32502   0.83183   0.44695   0.00000  Uiso   1.00
H590   H     0.00831   0.83483   0.55305   0.00000  Uiso   1.00
H591   H     0.14637   0.70445   0.42643   0.00000  Uiso   1.00
H592   H     0.18697   0.96221   0.57357   0.00000  Uiso   1.00
H593   H     0.14683   0.96269   0.42632   0.00000  Uiso   1.00
H594   H     0.18650   0.70398   0.57368   0.00000  Uiso   1.00
H595   H     0.22407   0.88100   0.63090   0.00000  Uiso   1.00
H596   H     0.10926   0.78567   0.36909   0.00000  Uiso   1.00
N597   N     0.16665   0.83332   0.61907   0.00000  Uiso   1.00
N598   N     0.16668   0.83334   0.38093   0.00000  Uiso   1.00
O599   O     0.16666   0.77225   0.53821   0.00000  Uiso   1.00
O600   O     0.16667   0.89442   0.46179   0.00000  Uiso   1.00
O601   O     0.16666   0.77226   0.46176   0.00000  Uiso   1.00
O602   O     0.16667   0.89441   0.53824   0.00000  Uiso   1.00
O603   O     0.09058   0.83333   0.52928   0.00000  Uiso   1.00
O604   O     0.24275   0.83334   0.47072   0.00000  Uiso   1.00
O605   O     0.09058   0.83334   0.45284   0.00000  Uiso   1.00
O606   O     0.24275   0.83333   0.54716   0.00000  Uiso   1.00
Zn607  Zn    0.16667   0.83333   0.55104   0.00000  Uiso   1.00
Zn608  Zn    0.16667   0.83334   0.44896   0.00000  Uiso   1.00
Br609  Br    0.57861   0.89856   0.39533   0.00000  Uiso   1.00
Br610  Br    0.42139   0.76811   0.60467   0.00000  Uiso   1.00
C611   C     0.49986   0.75334   0.50005   0.00000  Uiso   1.00
C612   C     0.51094   0.68785   0.54146   0.00000  Uiso   1.00
C613   C     0.50025   0.95750   0.49991   0.00000  Uiso   1.00
C614   C     0.49975   0.70916   0.50009   0.00000  Uiso   1.00
C615   C     0.53210   0.85998   0.36064   0.00000  Uiso   1.00
C616   C     0.46790   0.80669   0.63936   0.00000  Uiso   1.00
C617   C     0.53192   0.85984   0.64622   0.00000  Uiso   1.00
C618   C     0.46808   0.80683   0.35378   0.00000  Uiso   1.00
C619   C     0.50014   0.91333   0.49995   0.00000  Uiso   1.00
C620   C     0.40045   0.83324   0.48811   0.00000  Uiso   1.00
C621   C     0.59955   0.83342   0.51189   0.00000  Uiso   1.00
C622   C     0.34544   0.83291   0.48171   0.00000  Uiso   1.00
C623   C     0.65456   0.83376   0.51829   0.00000  Uiso   1.00
C624   C     0.48878   0.68811   0.45863   0.00000  Uiso   1.00
C625   C     0.51122   0.97855   0.54137   0.00000  Uiso   1.00
C626   C     0.48906   0.97882   0.45854   0.00000  Uiso   1.00
H627   H     0.65836   0.83183   0.44695   0.00000  Uiso   1.00
H628   H     0.34164   0.83483   0.55305   0.00000  Uiso   1.00
H629   H     0.47970   0.70445   0.42643   0.00000  Uiso   1.00
H630   H     0.52030   0.96221   0.57357   0.00000  Uiso   1.00
H631   H     0.48016   0.96269   0.42632   0.00000  Uiso   1.00
H632   H     0.51984   0.70398   0.57368   0.00000  Uiso   1.00
H633   H     0.55740   0.88100   0.63090   0.00000  Uiso   1.00
H634   H     0.44260   0.78567   0.36909   0.00000  Uiso   1.00
N635   N     0.49999   0.83332   0.61907   0.00000  Uiso   1.00
N636   N     0.50001   0.83334   0.38093   0.00000  Uiso   1.00
O637   O     0.50000   0.77225   0.53821   0.00000  Uiso   1.00
O638   O     0.50000   0.89442   0.46179   0.00000  Uiso   1.00
O639   O     0.50000   0.77226   0.46176   0.00000  Uiso   1.00
O640   O     0.50000   0.89441   0.53824   0.00000  Uiso   1.00
O641   O     0.42392   0.83333   0.52928   0.00000  Uiso   1.00
O642   O     0.57608   0.83334   0.47072   0.00000  Uiso   1.00
O643   O     0.42392   0.83334   0.45284   0.00000  Uiso   1.00
O644   O     0.57608   0.83333   0.54716   0.00000  Uiso   1.00
Zn645  Zn    0.50000   0.83333   0.55104   0.00000  Uiso   1.00
Zn646  Zn    0.50000   0.83334   0.44896   0.00000  Uiso   1.00
Br647  Br    0.91195   0.89856   0.39533   0.00000  Uiso   1.00
Br648  Br    0.75472   0.76811   0.60467   0.00000  Uiso   1.00
C649   C     0.83319   0.75334   0.50005   0.00000  Uiso   1.00
C650   C     0.84427   0.68785   0.54146   0.00000  Uiso   1.00
C651   C     0.83358   0.95750   0.49991   0.00000  Uiso   1.00
C652   C     0.83309   0.70916   0.50009   0.00000  Uiso   1.00
C653   C     0.86543   0.85998   0.36064   0.00000  Uiso   1.00
C654   C     0.80123   0.80669   0.63936   0.00000  Uiso   1.00
C655   C     0.86526   0.85984   0.64622   0.00000  Uiso   1.00
C656   C     0.80141   0.80683   0.35378   0.00000  Uiso   1.00
C657   C     0.83348   0.91333   0.49995   0.00000  Uiso   1.00
C658   C     0.73378   0.83324   0.48811   0.00000  Uiso   1.00
C659   C     0.93288   0.83342   0.51189   0.00000  Uiso   1.00
C660   C     0.67878   0.83291   0.48171   0.00000  Uiso   1.00
C661   C     0.98789   0.83376   0.51829   0.00000  Uiso   1.00
C662   C     0.82211   0.68811   0.45863   0.00000  Uiso   1.00
C663   C     0.84456   0.97855   0.54137   0.00000  Uiso   1.00
C664   C     0.82240   0.97882   0.45854   0.00000  Uiso   1.00
H665   H     0.99169   0.83183   0.44695   0.00000  Uiso   1.00
H666   H     0.67497   0.83483   0.55305   0.00000  Uiso   1.00
H667   H     0.81303   0.70445   0.42643   0.00000  Uiso   1.00
H668   H     0.85363   0.96221   0.57357   0.00000  Uiso   1.00
H669   H     0.81349   0.96269   0.42632   0.00000  Uiso   1.00
H670   H     0.85317   0.70398   0.57368   0.00000  Uiso   1.00
H671   H     0.89074   0.88100   0.63090   0.00000  Uiso   1.00
H672   H     0.77593   0.78567   0.36909   0.00000  Uiso   1.00
N673   N     0.83332   0.83332   0.61907   0.00000  Uiso   1.00
N674   N     0.83335   0.83334   0.38093   0.00000  Uiso   1.00
O675   O     0.83333   0.77225   0.53821   0.00000  Uiso   1.00
O676   O     0.83334   0.89442   0.46179   0.00000  Uiso   1.00
O677   O     0.83333   0.77226   0.46176   0.00000  Uiso   1.00
O678   O     0.83334   0.89441   0.53824   0.00000  Uiso   1.00
O679   O     0.75725   0.83333   0.52928   0.00000  Uiso   1.00
O680   O     0.90942   0.83334   0.47072   0.00000  Uiso   1.00
O681   O     0.75725   0.83334   0.45284   0.00000  Uiso   1.00
O682   O     0.90942   0.83333   0.54716   0.00000  Uiso   1.00
Zn683  Zn    0.83333   0.83333   0.55104   0.00000  Uiso   1.00
Zn684  Zn    0.83333   0.83334   0.44896   0.00000  Uiso   1.00
Br685  Br    0.24528   0.23189   0.72866   0.00000  Uiso   1.00
Br686  Br    0.08805   0.10144   0.93801   0.00000  Uiso   1.00
C687   C     0.16652   0.08667   0.83339   0.00000  Uiso   1.00
C688   C     0.17760   0.02118   0.87479   0.00000  Uiso   1.00
C689   C     0.16691   0.29083   0.83324   0.00000  Uiso   1.00
C690   C     0.16642   0.04250   0.83342   0.00000  Uiso   1.00
C691   C     0.19877   0.19331   0.69397   0.00000  Uiso   1.00
C692   C     0.13457   0.14002   0.97269   0.00000  Uiso   1.00
C693   C     0.19859   0.19317   0.97956   0.00000  Uiso   1.00
C694   C     0.13474   0.14016   0.68711   0.00000  Uiso   1.00
C695   C     0.16681   0.24666   0.83328   0.00000  Uiso   1.00
C696   C     0.06712   0.16658   0.82145   0.00000  Uiso   1.00
C697   C     0.26622   0.16676   0.84522   0.00000  Uiso   1.00
C698   C     0.01211   0.16624   0.81504   0.00000  Uiso   1.00
C699   C     0.32122   0.16709   0.85162   0.00000  Uiso   1.00
C700   C     0.15544   0.02145   0.79197   0.00000  Uiso   1.00
C701   C     0.17789   0.31189   0.87470   0.00000  Uiso   1.00
C702   C     0.15573   0.31215   0.79188   0.00000  Uiso   1.00
H703   H     0.32502   0.16517   0.78029   0.00000  Uiso   1.00
H704   H     0.00831   0.16817   0.88638   0.00000  Uiso   1.00
H705   H     0.14637   0.03779   0.75976   0.00000  Uiso   1.00
H706   H     0.18697   0.29555   0.90690   0.00000  Uiso   1.00
H707   H     0.14683   0.29602   0.75966   0.00000  Uiso   1.00
H708   H     0.18650   0.03731   0.90701   0.00000  Uiso   1.00
H709   H     0.22407   0.21433   0.96424   0.00000  Uiso   1.00
H710   H     0.10926   0.11900   0.70243   0.00000  Uiso   1.00
N711   N     0.16665   0.16666   0.95240   0.00000  Uiso   1.00
N712   N     0.16668   0.16668   0.71427   0.00000  Uiso   1.00
O713   O     0.16666   0.10558   0.87154   0.00000  Uiso   1.00
O714   O     0.16667   0.22775   0.79513   0.00000  Uiso   1.00
O715   O     0.16666   0.10559   0.79510   0.00000  Uiso   1.00
O716   O     0.16667   0.22774   0.87157   0.00000  Uiso   1.00
O717   O     0.09058   0.16666   0.86261   0.00000  Uiso   1.00
O718   O     0.24275   0.16667   0.80405   0.00000  Uiso   1.00
O719   O     0.09058   0.16667   0.78617   0.00000  Uiso   1.00
O720   O     0.24275   0.16666   0.88050   0.00000  Uiso   1.00
Zn721  Zn    0.16667   0.16666   0.88437   0.00000  Uiso   1.00
Zn722  Zn    0.16667   0.16667   0.78229   0.00000  Uiso   1.00
Br723  Br    0.57861   0.23189   0.72866   0.00000  Uiso   1.00
Br724  Br    0.42139   0.10144   0.93801   0.00000  Uiso   1.00
C725   C     0.49986   0.08667   0.83339   0.00000  Uiso   1.00
C726   C     0.51094   0.02118   0.87479   0.00000  Uiso   1.00
C727   C     0.50025   0.29083   0.83324   0.00000  Uiso   1.00
C728   C     0.49975   0.04250   0.83342   0.00000  Uiso   1.00
C729   C     0.53210   0.19331   0.69397   0.00000  Uiso   1.00
C730   C     0.46790   0.14002   0.97269   0.00000  Uiso   1.00
C731   C     0.53192   0.19317   0.97956   0.00000  Uiso   1.00
C732   C     0.46808   0.14016   0.68711   0.00000  Uiso   1.00
C733   C     0.50014   0.24666   0.83328   0.00000  Uiso   1.00
C734   C     0.40045   0.16658   0.82145   0.00000  Uiso   1.00
C735   C     0.59955   0.16676   0.84522   0.00000  Uiso   1.00
C736   C     0.34544   0.16624   0.81504   0.00000  Uiso   1.00
C737   C     0.65456   0.16709   0.85162   0.00000  Uiso   1.00
C738   C     0.48878   0.02145   0.79197   0.00000  Uiso   1.00
C739   C     0.51122   0.31189   0.87470   0.00000  Uiso   1.00
C740   C     0.48906   0.31215   0.79188   0.00000  Uiso   1.00
H741   H     0.65836   0.16517   0.78029   0.00000  Uiso   1.00
H742   H     0.34164   0.16817   0.88638   0.00000  Uiso   1.00
H743   H     0.47970   0.03779   0.75976   0.00000  Uiso   1.00
H744   H     0.52030   0.29555   0.90690   0.00000  Uiso   1.00
H745   H     0.48016   0.29602   0.75966   0.00000  Uiso   1.00
H746   H     0.51984   0.03731   0.90701   0.00000  Uiso   1.00
H747   H     0.55740   0.21433   0.96424   0.00000  Uiso   1.00
H748   H     0.44260   0.11900   0.70243   0.00000  Uiso   1.00
N749   N     0.49999   0.16666   0.95240   0.00000  Uiso   1.00
N750   N     0.50001   0.16668   0.71427   0.00000  Uiso   1.00
O751   O     0.50000   0.10558   0.87154   0.00000  Uiso   1.00
O752   O     0.50000   0.22775   0.79513   0.00000  Uiso   1.00
O753   O     0.50000   0.10559   0.79510   0.00000  Uiso   1.00
O754   O     0.50000   0.22774   0.87157   0.00000  Uiso   1.00
O755   O     0.42392   0.16666   0.86261   0.00000  Uiso   1.00
O756   O     0.57608   0.16667   0.80405   0.00000  Uiso   1.00
O757   O     0.42392   0.16667   0.78617   0.00000  Uiso   1.00
O758   O     0.57608   0.16666   0.88050   0.00000  Uiso   1.00
Zn759  Zn    0.50000   0.16666   0.88437   0.00000  Uiso   1.00
Zn760  Zn    0.50000   0.16667   0.78229   0.00000  Uiso   1.00
Br761  Br    0.91195   0.23189   0.72866   0.00000  Uiso   1.00
Br762  Br    0.75472   0.10144   0.93801   0.00000  Uiso   1.00
C763   C     0.83319   0.08667   0.83339   0.00000  Uiso   1.00
C764   C     0.84427   0.02118   0.87479   0.00000  Uiso   1.00
C765   C     0.83358   0.29083   0.83324   0.00000  Uiso   1.00
C766   C     0.83309   0.04250   0.83342   0.00000  Uiso   1.00
C767   C     0.86543   0.19331   0.69397   0.00000  Uiso   1.00
C768   C     0.80123   0.14002   0.97269   0.00000  Uiso   1.00
C769   C     0.86526   0.19317   0.97956   0.00000  Uiso   1.00
C770   C     0.80141   0.14016   0.68711   0.00000  Uiso   1.00
C771   C     0.83348   0.24666   0.83328   0.00000  Uiso   1.00
C772   C     0.73378   0.16658   0.82145   0.00000  Uiso   1.00
C773   C     0.93288   0.16676   0.84522   0.00000  Uiso   1.00
C774   C     0.67878   0.16624   0.81504   0.00000  Uiso   1.00
C775   C     0.98789   0.16709   0.85162   0.00000  Uiso   1.00
C776   C     0.82211   0.02145   0.79197   0.00000  Uiso   1.00
C777   C     0.84456   0.31189   0.87470   0.00000  Uiso   1.00
C778   C     0.82240   0.31215   0.79188   0.00000  Uiso   1.00
H779   H     0.99169   0.16517   0.78029   0.00000  Uiso   1.00
H780   H     0.67497   0.16817   0.88638   0.00000  Uiso   1.00
H781   H     0.81303   0.03779   0.75976   0.00000  Uiso   1.00
H782   H     0.85363   0.29555   0.90690   0.00000  Uiso   1.00
H783   H     0.81349   0.29602   0.75966   0.00000  Uiso   1.00
H784   H     0.85317   0.03731   0.90701   0.00000  Uiso   1.00
H785   H     0.89074   0.21433   0.96424   0.00000  Uiso   1.00
H786   H     0.77593   0.11900   0.70243   0.00000  Uiso   1.00
N787   N     0.83332   0.16666   0.95240   0.00000  Uiso   1.00
N788   N     0.83335   0.16668   0.71427   0.00000  Uiso   1.00
O789   O     0.83333   0.10558   0.87154   0.00000  Uiso   1.00
O790   O     0.83334   0.22775   0.79513   0.00000  Uiso   1.00
O791   O     0.83333   0.10559   0.79510   0.00000  Uiso   1.00
O792   O     0.83334   0.22774   0.87157   0.00000  Uiso   1.00
O793   O     0.75725   0.16666   0.86261   0.00000  Uiso   1.00
O794   O     0.90942   0.16667   0.80405   0.00000  Uiso   1.00
O795   O     0.75725   0.16667   0.78617   0.00000  Uiso   1.00
O796   O     0.90942   0.16666   0.88050   0.00000  Uiso   1.00
Zn797  Zn    0.83333   0.16666   0.88437   0.00000  Uiso   1.00
Zn798  Zn    0.83333   0.16667   0.78229   0.00000  Uiso   1.00
Br799  Br    0.24528   0.56523   0.72866   0.00000  Uiso   1.00
Br800  Br    0.08805   0.43477   0.93801   0.00000  Uiso   1.00
C801   C     0.16652   0.42001   0.83339   0.00000  Uiso   1.00
C802   C     0.17760   0.35451   0.87479   0.00000  Uiso   1.00
C803   C     0.16691   0.62417   0.83324   0.00000  Uiso   1.00
C804   C     0.16642   0.37583   0.83342   0.00000  Uiso   1.00
C805   C     0.19877   0.52664   0.69397   0.00000  Uiso   1.00
C806   C     0.13457   0.47336   0.97269   0.00000  Uiso   1.00
C807   C     0.19859   0.52651   0.97956   0.00000  Uiso   1.00
C808   C     0.13474   0.47349   0.68711   0.00000  Uiso   1.00
C809   C     0.16681   0.57999   0.83328   0.00000  Uiso   1.00
C810   C     0.06712   0.49991   0.82145   0.00000  Uiso   1.00
C811   C     0.26622   0.50009   0.84522   0.00000  Uiso   1.00
C812   C     0.01211   0.49958   0.81504   0.00000  Uiso   1.00
C813   C     0.32122   0.50042   0.85162   0.00000  Uiso   1.00
C814   C     0.15544   0.35478   0.79197   0.00000  Uiso   1.00
C815   C     0.17789   0.64522   0.87470   0.00000  Uiso   1.00
C816   C     0.15573   0.64549   0.79188   0.00000  Uiso   1.00
H817   H     0.32502   0.49850   0.78029   0.00000  Uiso   1.00
H818   H     0.00831   0.50150   0.88638   0.00000  Uiso   1.00
H819   H     0.14637   0.37112   0.75976   0.00000  Uiso   1.00
H820   H     0.18697   0.62888   0.90690   0.00000  Uiso   1.00
H821   H     0.14683   0.62935   0.75966   0.00000  Uiso   1.00
H822   H     0.18650   0.37065   0.90701   0.00000  Uiso   1.00
H823   H     0.22407   0.54767   0.96424   0.00000  Uiso   1.00
H824   H     0.10926   0.45233   0.70243   0.00000  Uiso   1.00
N825   N     0.16665   0.49999   0.95240   0.00000  Uiso   1.00
N826   N     0.16668   0.50001   0.71427   0.00000  Uiso   1.00
O827   O     0.16666   0.43892   0.87154   0.00000  Uiso   1.00
O828   O     0.16667   0.56108   0.79513   0.00000  Uiso   1.00
O829   O     0.16666   0.43893   0.79510   0.00000  Uiso   1.00
O830   O     0.16667   0.56107   0.87157   0.00000  Uiso   1.00
O831   O     0.09058   0.50000   0.86261   0.00000  Uiso   1.00
O832   O     0.24275   0.50000   0.80405   0.00000  Uiso   1.00
O833   O     0.09058   0.50000   0.78617   0.00000  Uiso   1.00
O834   O     0.24275   0.50000   0.88050   0.00000  Uiso   1.00
Zn835  Zn    0.16667   0.49999   0.88437   0.00000  Uiso   1.00
Zn836  Zn    0.16667   0.50001   0.78229   0.00000  Uiso   1.00
Br837  Br    0.57861   0.56523   0.72866   0.00000  Uiso   1.00
Br838  Br    0.42139   0.43477   0.93801   0.00000  Uiso   1.00
C839   C     0.49986   0.42001   0.83339   0.00000  Uiso   1.00
C840   C     0.51094   0.35451   0.87479   0.00000  Uiso   1.00
C841   C     0.50025   0.62417   0.83324   0.00000  Uiso   1.00
C842   C     0.49975   0.37583   0.83342   0.00000  Uiso   1.00
C843   C     0.53210   0.52664   0.69397   0.00000  Uiso   1.00
C844   C     0.46790   0.47336   0.97269   0.00000  Uiso   1.00
C845   C     0.53192   0.52651   0.97956   0.00000  Uiso   1.00
C846   C     0.46808   0.47349   0.68711   0.00000  Uiso   1.00
C847   C     0.50014   0.57999   0.83328   0.00000  Uiso   1.00
C848   C     0.40045   0.49991   0.82145   0.00000  Uiso   1.00
C849   C     0.59955   0.50009   0.84522   0.00000  Uiso   1.00
C850   C     0.34544   0.49958   0.81504   0.00000  Uiso   1.00
C851   C     0.65456   0.50042   0.85162   0.00000  Uiso   1.00
C852   C     0.48878   0.35478   0.79197   0.00000  Uiso   1.00
C853   C     0.51122   0.64522   0.87470   0.00000  Uiso   1.00
C854   C     0.48906   0.64549   0.79188   0.00000  Uiso   1.00
H855   H     0.65836   0.49850   0.78029   0.00000  Uiso   1.00
H856   H     0.34164   0.50150   0.88638   0.00000  Uiso   1.00
H857   H     0.47970   0.37112   0.75976   0.00000  Uiso   1.00
H858   H     0.52030   0.62888   0.90690   0.00000  Uiso   1.00
H859   H     0.48016   0.62935   0.75966   0.00000  Uiso   1.00
H860   H     0.51984   0.37065   0.90701   0.00000  Uiso   1.00
H861   H     0.55740   0.54767   0.96424   0.00000  Uiso   1.00
H862   H     0.44260   0.45233   0.70243   0.00000  Uiso   1.00
N863   N     0.49999   0.49999   0.95240   0.00000  Uiso   1.00
N864   N     0.50001   0.50001   0.71427   0.00000  Uiso   1.00
O865   O     0.50000   0.43892   0.87154   0.00000  Uiso   1.00
O866   O     0.50000   0.56108   0.79513   0.00000  Uiso   1.00
O867   O     0.50000   0.43893   0.79510   0.00000  Uiso   1.00
O868   O     0.50000   0.56107   0.87157   0.00000  Uiso   1.00
O869   O     0.42392   0.50000   0.86261   0.00000  Uiso   1.00
O870   O     0.57608   0.50000   0.80405   0.00000  Uiso   1.00
O871   O     0.42392   0.50000   0.78617   0.00000  Uiso   1.00
O872   O     0.57608   0.50000   0.88050   0.00000  Uiso   1.00
Zn873  Zn    0.50000   0.49999   0.88437   0.00000  Uiso   1.00
Zn874  Zn    0.50000   0.50001   0.78229   0.00000  Uiso   1.00
Br875  Br    0.91195   0.56523   0.72866   0.00000  Uiso   1.00
Br876  Br    0.75472   0.43477   0.93801   0.00000  Uiso   1.00
C877   C     0.83319   0.42001   0.83339   0.00000  Uiso   1.00
C878   C     0.84427   0.35451   0.87479   0.00000  Uiso   1.00
C879   C     0.83358   0.62417   0.83324   0.00000  Uiso   1.00
C880   C     0.83309   0.37583   0.83342   0.00000  Uiso   1.00
C881   C     0.86543   0.52664   0.69397   0.00000  Uiso   1.00
C882   C     0.80123   0.47336   0.97269   0.00000  Uiso   1.00
C883   C     0.86526   0.52651   0.97956   0.00000  Uiso   1.00
C884   C     0.80141   0.47349   0.68711   0.00000  Uiso   1.00
C885   C     0.83348   0.57999   0.83328   0.00000  Uiso   1.00
C886   C     0.73378   0.49991   0.82145   0.00000  Uiso   1.00
C887   C     0.93288   0.50009   0.84522   0.00000  Uiso   1.00
C888   C     0.67878   0.49958   0.81504   0.00000  Uiso   1.00
C889   C     0.98789   0.50042   0.85162   0.00000  Uiso   1.00
C890   C     0.82211   0.35478   0.79197   0.00000  Uiso   1.00
C891   C     0.84456   0.64522   0.87470   0.00000  Uiso   1.00
C892   C     0.82240   0.64549   0.79188   0.00000  Uiso   1.00
H893   H     0.99169   0.49850   0.78029   0.00000  Uiso   1.00
H894   H     0.67497   0.50150   0.88638   0.00000  Uiso   1.00
H895   H     0.81303   0.37112   0.75976   0.00000  Uiso   1.00
H896   H     0.85363   0.62888   0.90690   0.00000  Uiso   1.00
H897   H     0.81349   0.62935   0.75966   0.00000  Uiso   1.00
H898   H     0.85317   0.37065   0.90701   0.00000  Uiso   1.00
H899   H     0.89074   0.54767   0.96424   0.00000  Uiso   1.00
H900   H     0.77593   0.45233   0.70243   0.00000  Uiso   1.00
N901   N     0.83332   0.49999   0.95240   0.00000  Uiso   1.00
N902   N     0.83335   0.50001   0.71427   0.00000  Uiso   1.00
O903   O     0.83333   0.43892   0.87154   0.00000  Uiso   1.00
O904   O     0.83334   0.56108   0.79513   0.00000  Uiso   1.00
O905   O     0.83333   0.43893   0.79510   0.00000  Uiso   1.00
O906   O     0.83334   0.56107   0.87157   0.00000  Uiso   1.00
O907   O     0.75725   0.50000   0.86261   0.00000  Uiso   1.00
O908   O     0.90942   0.50000   0.80405   0.00000  Uiso   1.00
O909   O     0.75725   0.50000   0.78617   0.00000  Uiso   1.00
O910   O     0.90942   0.50000   0.88050   0.00000  Uiso   1.00
Zn911  Zn    0.83333   0.49999   0.88437   0.00000  Uiso   1.00
Zn912  Zn    0.83333   0.50001   0.78229   0.00000  Uiso   1.00
Br913  Br    0.24528   0.89856   0.72866   0.00000  Uiso   1.00
Br914  Br    0.08805   0.76811   0.93801   0.00000  Uiso   1.00
C915   C     0.16652   0.75334   0.83339   0.00000  Uiso   1.00
C916   C     0.17760   0.68785   0.87479   0.00000  Uiso   1.00
C917   C     0.16691   0.95750   0.83324   0.00000  Uiso   1.00
C918   C     0.16642   0.70916   0.83342   0.00000  Uiso   1.00
C919   C     0.19877   0.85998   0.69397   0.00000  Uiso   1.00
C920   C     0.13457   0.80669   0.97269   0.00000  Uiso   1.00
C921   C     0.19859   0.85984   0.97956   0.00000  Uiso   1.00
C922   C     0.13474   0.80683   0.68711   0.00000  Uiso   1.00
C923   C     0.16681   0.91333   0.83328   0.00000  Uiso   1.00
C924   C     0.06712   0.83324   0.82145   0.00000  Uiso   1.00
C925   C     0.26622   0.83342   0.84522   0.00000  Uiso   1.00
C926   C     0.01211   0.83291   0.81504   0.00000  Uiso   1.00
C927   C     0.32122   0.83376   0.85162   0.00000  Uiso   1.00
C928   C     0.15544   0.68811   0.79197   0.00000  Uiso   1.00
C929   C     0.17789   0.97855   0.87470   0.00000  Uiso   1.00
C930   C     0.15573   0.97882   0.79188   0.00000  Uiso   1.00
H931   H     0.32502   0.83183   0.78029   0.00000  Uiso   1.00
H932   H     0.00831   0.83483   0.88638   0.00000  Uiso   1.00
H933   H     0.14637   0.70445   0.75976   0.00000  Uiso   1.00
H934   H     0.18697   0.96221   0.90690   0.00000  Uiso   1.00
H935   H     0.14683   0.96269   0.75966   0.00000  Uiso   1.00
H936   H     0.18650   0.70398   0.90701   0.00000  Uiso   1.00
H937   H     0.22407   0.88100   0.96424   0.00000  Uiso   1.00
H938   H     0.10926   0.78567   0.70243   0.00000  Uiso   1.00
N939   N     0.16665   0.83332   0.95240   0.00000  Uiso   1.00
N940   N     0.16668   0.83334   0.71427   0.00000  Uiso   1.00
O941   O     0.16666   0.77225   0.87154   0.00000  Uiso   1.00
O942   O     0.16667   0.89442   0.79513   0.00000  Uiso   1.00
O943   O     0.16666   0.77226   0.79510   0.00000  Uiso   1.00
O944   O     0.16667   0.89441   0.87157   0.00000  Uiso   1.00
O945   O     0.09058   0.83333   0.86261   0.00000  Uiso   1.00
O946   O     0.24275   0.83334   0.80405   0.00000  Uiso   1.00
O947   O     0.09058   0.83334   0.78617   0.00000  Uiso   1.00
O948   O     0.24275   0.83333   0.88050   0.00000  Uiso   1.00
Zn949  Zn    0.16667   0.83333   0.88437   0.00000  Uiso   1.00
Zn950  Zn    0.16667   0.83334   0.78229   0.00000  Uiso   1.00
Br951  Br    0.57861   0.89856   0.72866   0.00000  Uiso   1.00
Br952  Br    0.42139   0.76811   0.93801   0.00000  Uiso   1.00
C953   C     0.49986   0.75334   0.83339   0.00000  Uiso   1.00
C954   C     0.51094   0.68785   0.87479   0.00000  Uiso   1.00
C955   C     0.50025   0.95750   0.83324   0.00000  Uiso   1.00
C956   C     0.49975   0.70916   0.83342   0.00000  Uiso   1.00
C957   C     0.53210   0.85998   0.69397   0.00000  Uiso   1.00
C958   C     0.46790   0.80669   0.97269   0.00000  Uiso   1.00
C959   C     0.53192   0.85984   0.97956   0.00000  Uiso   1.00
C960   C     0.46808   0.80683   0.68711   0.00000  Uiso   1.00
C961   C     0.50014   0.91333   0.83328   0.00000  Uiso   1.00
C962   C     0.40045   0.83324   0.82145   0.00000  Uiso   1.00
C963   C     0.59955   0.83342   0.84522   0.00000  Uiso   1.00
C964   C     0.34544   0.83291   0.81504   0.00000  Uiso   1.00
C965   C     0.65456   0.83376   0.85162   0.00000  Uiso   1.00
C966   C     0.48878   0.68811   0.79197   0.00000  Uiso   1.00
C967   C     0.51122   0.97855   0.87470   0.00000  Uiso   1.00
C968   C     0.48906   0.97882   0.79188   0.00000  Uiso   1.00
H969   H     0.65836   0.83183   0.78029   0.00000  Uiso   1.00
H970   H     0.34164   0.83483   0.88638   0.00000  Uiso   1.00
H971   H     0.47970   0.70445   0.75976   0.00000  Uiso   1.00
H972   H     0.52030   0.96221   0.90690   0.00000  Uiso   1.00
H973   H     0.48016   0.96269   0.75966   0.00000  Uiso   1.00
H974   H     0.51984   0.70398   0.90701   0.00000  Uiso   1.00
H975   H     0.55740   0.88100   0.96424   0.00000  Uiso   1.00
H976   H     0.44260   0.78567   0.70243   0.00000  Uiso   1.00
N977   N     0.49999   0.83332   0.95240   0.00000  Uiso   1.00
N978   N     0.50001   0.83334   0.71427   0.00000  Uiso   1.00
O979   O     0.50000   0.77225   0.87154   0.00000  Uiso   1.00
O980   O     0.50000   0.89442   0.79513   0.00000  Uiso   1.00
O981   O     0.50000   0.77226   0.79510   0.00000  Uiso   1.00
O982   O     0.50000   0.89441   0.87157   0.00000  Uiso   1.00
O983   O     0.42392   0.83333   0.86261   0.00000  Uiso   1.00
O984   O     0.57608   0.83334   0.80405   0.00000  Uiso   1.00
O985   O     0.42392   0.83334   0.78617   0.00000  Uiso   1.00
O986   O     0.57608   0.83333   0.88050   0.00000  Uiso   1.00
Zn987  Zn    0.50000   0.83333   0.88437   0.00000  Uiso   1.00
Zn988  Zn    0.50000   0.83334   0.78229   0.00000  Uiso   1.00
Br989  Br    0.91195   0.89856   0.72866   0.00000  Uiso   1.00
Br990  Br    0.75472   0.76811   0.93801   0.00000  Uiso   1.00
C991   C     0.83319   0.75334   0.83339   0.00000  Uiso   1.00
C992   C     0.84427   0.68785   0.87479   0.00000  Uiso   1.00
C993   C     0.83358   0.95750   0.83324   0.00000  Uiso   1.00
C994   C     0.83309   0.70916   0.83342   0.00000  Uiso   1.00
C995   C     0.86543   0.85998   0.69397   0.00000  Uiso   1.00
C996   C     0.80123   0.80669   0.97269   0.00000  Uiso   1.00
C997   C     0.86526   0.85984   0.97956   0.00000  Uiso   1.00
C998   C     0.80141   0.80683   0.68711   0.00000  Uiso   1.00
C999   C     0.83348   0.91333   0.83328   0.00000  Uiso   1.00
C1000  C     0.73378   0.83324   0.82145   0.00000  Uiso   1.00
C1001  C     0.93288   0.83342   0.84522   0.00000  Uiso   1.00
C1002  C     0.67878   0.83291   0.81504   0.00000  Uiso   1.00
C1003  C     0.98789   0.83376   0.85162   0.00000  Uiso   1.00
C1004  C     0.82211   0.68811   0.79197   0.00000  Uiso   1.00
C1005  C     0.84456   0.97855   0.87470   0.00000  Uiso   1.00
C1006  C     0.82240   0.97882   0.79188   0.00000  Uiso   1.00
H1007  H     0.99169   0.83183   0.78029   0.00000  Uiso   1.00
H1008  H     0.67497   0.83483   0.88638   0.00000  Uiso   1.00
H1009  H     0.81303   0.70445   0.75976   0.00000  Uiso   1.00
H1010  H     0.85363   0.96221   0.90690   0.00000  Uiso   1.00
H1011  H     0.81349   0.96269   0.75966   0.00000  Uiso   1.00
H1012  H     0.85317   0.70398   0.90701   0.00000  Uiso   1.00
H1013  H     0.89074   0.88100   0.96424   0.00000  Uiso   1.00
H1014  H     0.77593   0.78567   0.70243   0.00000  Uiso   1.00
N1015  N     0.83332   0.83332   0.95240   0.00000  Uiso   1.00
N1016  N     0.83335   0.83334   0.71427   0.00000  Uiso   1.00
O1017  O     0.83333   0.77225   0.87154   0.00000  Uiso   1.00
O1018  O     0.83334   0.89442   0.79513   0.00000  Uiso   1.00
O1019  O     0.83333   0.77226   0.79510   0.00000  Uiso   1.00
O1020  O     0.83334   0.89441   0.87157   0.00000  Uiso   1.00
O1021  O     0.75725   0.83333   0.86261   0.00000  Uiso   1.00
O1022  O     0.90942   0.83334   0.80405   0.00000  Uiso   1.00
O1023  O     0.75725   0.83334   0.78617   0.00000  Uiso   1.00
O1024  O     0.90942   0.83333   0.88050   0.00000  Uiso   1.00
Zn1025 Zn    0.83333   0.83333   0.88437   0.00000  Uiso   1.00
Zn1026 Zn    0.83333   0.83334   0.78229   0.00000  Uiso   1.00
loop_
_geom_bond_atom_site_label_1
_geom_bond_atom_site_label_2
_geom_bond_distance
_geom_bond_site_symmetry_2
_ccdc_geom_bond_type
Br1    C7      1.911   .     S
Br2    C8      1.911   .     S
C3     C6      1.419   .     S
C3     O31     1.285   .     A
C3     O29     1.287   .     A
C4     C6      1.396   .     A
C4     H24     1.084   .     S
C4     C245    1.370   1_545 S
C5     C11     1.419   .     S
C5     C17     1.398   .     A
C5     C18     1.396   .     A
C6     C16     1.398   .     A
C7     N28     1.378   .     A
C7     C693    1.416   1_554 S
C8     N27     1.378   .     A
C8     C352    1.416   .     S
C9     H25     1.082   .     S
C9     N27     1.360   .     A
C9     C349    1.416   .     S
C10    H26     1.082   .     S
C10    N28     1.360   .     A
C10    C692    1.416   1_554 S
C11    O32     1.285   .     A
C11    O30     1.287   .     A
C12    O35     1.282   .     A
C12    C14     1.402   .     S
C12    O33     1.282   .     A
C13    O34     1.282   .     A
C13    C15     1.402   .     S
C13    O36     1.282   .     A
C14    C91     1.328   1_455 S
C14    H95     1.088   1_455 S
C15    C52     1.328   .     S
C15    H58     1.088   .     S
C16    H21     1.084   .     S
C16    C246    1.370   1_545 S
C17    H22     1.084   .     S
C17    C118    1.370   .     S
C18    H23     1.084   .     S
C18    C130    1.370   .     S
H19    C52     1.088   .     S
H20    C91     1.088   1_455 S
N27    Zn37    2.018   .     S
N28    Zn38    2.018   .     S
O29    Zn37    2.002   .     S
O30    Zn38    2.002   .     S
O31    Zn38    1.997   .     S
O32    Zn37    1.997   .     S
O33    Zn37    1.973   .     S
O34    Zn38    1.973   .     S
O35    Zn38    1.980   .     S
O36    Zn37    1.980   .     S
Br39   C45     1.911   .     S
Br40   C46     1.911   .     S
C41    C44     1.419   .     S
C41    O69     1.285   .     A
C41    O67     1.287   .     A
C42    C44     1.396   .     A
C42    H62     1.084   .     S
C42    C283    1.370   1_545 S
C43    C49     1.419   .     S
C43    C55     1.398   .     A
C43    C56     1.396   .     A
C44    C54     1.398   .     A
C45    N66     1.378   .     A
C45    C731    1.416   1_554 S
C46    N65     1.378   .     A
C46    C390    1.416   .     S
C47    H63     1.082   .     S
C47    N65     1.360   .     A
C47    C387    1.416   .     S
C48    H64     1.082   .     S
C48    N66     1.360   .     A
C48    C730    1.416   1_554 S
C49    O70     1.285   .     A
C49    O68     1.287   .     A
C50    O73     1.282   .     A
C50    C52     1.402   .     S
C50    O71     1.282   .     A
C51    O72     1.282   .     A
C51    C53     1.402   .     S
C51    O74     1.282   .     A
C53    C90     1.328   .     S
C53    H96     1.088   .     S
C54    H59     1.084   .     S
C54    C284    1.370   1_545 S
C55    H60     1.084   .     S
C55    C156    1.370   .     S
C56    H61     1.084   .     S
C56    C168    1.370   .     S
H57    C90     1.088   .     S
N65    Zn75    2.018   .     S
N66    Zn76    2.018   .     S
O67    Zn75    2.002   .     S
O68    Zn76    2.002   .     S
O69    Zn76    1.997   .     S
O70    Zn75    1.997   .     S
O71    Zn75    1.973   .     S
O72    Zn76    1.973   .     S
O73    Zn76    1.980   .     S
O74    Zn75    1.980   .     S
Br77   C83     1.911   .     S
Br78   C84     1.911   .     S
C79    C82     1.419   .     S
C79    O107    1.285   .     A
C79    O105    1.287   .     A
C80    C82     1.396   .     A
C80    H100    1.084   .     S
C80    C321    1.370   1_545 S
C81    C87     1.419   .     S
C81    C93     1.398   .     A
C81    C94     1.396   .     A
C82    C92     1.398   .     A
C83    N104    1.378   .     A
C83    C769    1.416   1_554 S
C84    N103    1.378   .     A
C84    C428    1.416   .     S
C85    H101    1.082   .     S
C85    N103    1.360   .     A
C85    C425    1.416   .     S
C86    H102    1.082   .     S
C86    N104    1.360   .     A
C86    C768    1.416   1_554 S
C87    O108    1.285   .     A
C87    O106    1.287   .     A
C88    O111    1.282   .     A
C88    C90     1.402   .     S
C88    O109    1.282   .     A
C89    O110    1.282   .     A
C89    C91     1.402   .     S
C89    O112    1.282   .     A
C91    C14     1.328   1_655 S
C91    H20     1.088   1_655 S
C92    H97     1.084   .     S
C92    C322    1.370   1_545 S
C93    H98     1.084   .     S
C93    C194    1.370   .     S
C94    H99     1.084   .     S
C94    C206    1.370   .     S
H95    C14     1.088   1_655 S
N103   Zn113   2.018   .     S
N104   Zn114   2.018   .     S
O105   Zn113   2.002   .     S
O106   Zn114   2.002   .     S
O107   Zn114   1.997   .     S
O108   Zn113   1.997   .     S
O109   Zn113   1.973   .     S
O110   Zn114   1.973   .     S
O111   Zn114   1.980   .     S
O112   Zn113   1.980   .     S
Br115  C121    1.911   .     S
Br116  C122    1.911   .     S
C117   C120    1.419   .     S
C117   O145    1.285   .     A
C117   O143    1.287   .     A
C118   C120    1.396   .     A
C118   H138    1.084   .     S
C119   C125    1.419   .     S
C119   C131    1.398   .     A
C119   C132    1.396   .     A
C120   C130    1.398   .     A
C121   N142    1.378   .     A
C121   C807    1.416   1_554 S
C122   N141    1.378   .     A
C122   C466    1.416   .     S
C123   H139    1.082   .     S
C123   N141    1.360   .     A
C123   C463    1.416   .     S
C124   H140    1.082   .     S
C124   N142    1.360   .     A
C124   C806    1.416   1_554 S
C125   O146    1.285   .     A
C125   O144    1.287   .     A
C126   O149    1.282   .     A
C126   C128    1.402   .     S
C126   O147    1.282   .     A
C127   O148    1.282   .     A
C127   C129    1.402   .     S
C127   O150    1.282   .     A
C128   C205    1.328   1_455 S
C128   H209    1.088   1_455 S
C129   C166    1.328   .     S
C129   H172    1.088   .     S
C130   H135    1.084   .     S
C131   H136    1.084   .     S
C131   C232    1.370   .     S
C132   H137    1.084   .     S
C132   C244    1.370   .     S
H133   C166    1.088   .     S
H134   C205    1.088   1_455 S
N141   Zn151   2.018   .     S
N142   Zn152   2.018   .     S
O143   Zn151   2.002   .     S
O144   Zn152   2.002   .     S
O145   Zn152   1.997   .     S
O146   Zn151   1.997   .     S
O147   Zn151   1.973   .     S
O148   Zn152   1.973   .     S
O149   Zn152   1.980   .     S
O150   Zn151   1.980   .     S
Br153  C159    1.911   .     S
Br154  C160    1.911   .     S
C155   C158    1.419   .     S
C155   O183    1.285   .     A
C155   O181    1.287   .     A
C156   C158    1.396   .     A
C156   H176    1.084   .     S
C157   C163    1.419   .     S
C157   C169    1.398   .     A
C157   C170    1.396   .     A
C158   C168    1.398   .     A
C159   N180    1.378   .     A
C159   C845    1.416   1_554 S
C160   N179    1.378   .     A
C160   C504    1.416   .     S
C161   H177    1.082   .     S
C161   N179    1.360   .     A
C161   C501    1.416   .     S
C162   H178    1.082   .     S
C162   N180    1.360   .     A
C162   C844    1.416   1_554 S
C163   O184    1.285   .     A
C163   O182    1.287   .     A
C164   O187    1.282   .     A
C164   C166    1.402   .     S
C164   O185    1.282   .     A
C165   O186    1.282   .     A
C165   C167    1.402   .     S
C165   O188    1.282   .     A
C167   C204    1.328   .     S
C167   H210    1.088   .     S
C168   H173    1.084   .     S
C169   H174    1.084   .     S
C169   C270    1.370   .     S
C170   H175    1.084   .     S
C170   C282    1.370   .     S
H171   C204    1.088   .     S
N179   Zn189   2.018   .     S
N180   Zn190   2.018   .     S
O181   Zn189   2.002   .     S
O182   Zn190   2.002   .     S
O183   Zn190   1.997   .     S
O184   Zn189   1.997   .     S
O185   Zn189   1.973   .     S
O186   Zn190   1.973   .     S
O187   Zn190   1.980   .     S
O188   Zn189   1.980   .     S
Br191  C197    1.911   .     S
Br192  C198    1.911   .     S
C193   C196    1.419   .     S
C193   O221    1.285   .     A
C193   O219    1.287   .     A
C194   C196    1.396   .     A
C194   H214    1.084   .     S
C195   C201    1.419   .     S
C195   C207    1.398   .     A
C195   C208    1.396   .     A
C196   C206    1.398   .     A
C197   N218    1.378   .     A
C197   C883    1.416   1_554 S
C198   N217    1.378   .     A
C198   C542    1.416   .     S
C199   H215    1.082   .     S
C199   N217    1.360   .     A
C199   C539    1.416   .     S
C200   H216    1.082   .     S
C200   N218    1.360   .     A
C200   C882    1.416   1_554 S
C201   O222    1.285   .     A
C201   O220    1.287   .     A
C202   O225    1.282   .     A
C202   C204    1.402   .     S
C202   O223    1.282   .     A
C203   O224    1.282   .     A
C203   C205    1.402   .     S
C203   O226    1.282   .     A
C205   C128    1.328   1_655 S
C205   H134    1.088   1_655 S
C206   H211    1.084   .     S
C207   H212    1.084   .     S
C207   C308    1.370   .     S
C208   H213    1.084   .     S
C208   C320    1.370   .     S
H209   C128    1.088   1_655 S
N217   Zn227   2.018   .     S
N218   Zn228   2.018   .     S
O219   Zn227   2.002   .     S
O220   Zn228   2.002   .     S
O221   Zn228   1.997   .     S
O222   Zn227   1.997   .     S
O223   Zn227   1.973   .     S
O224   Zn228   1.973   .     S
O225   Zn228   1.980   .     S
O226   Zn227   1.980   .     S
Br229  C235    1.911   .     S
Br230  C236    1.911   .     S
C231   C234    1.419   .     S
C231   O259    1.285   .     A
C231   O257    1.287   .     A
C232   C234    1.396   .     A
C232   H252    1.084   .     S
C233   C239    1.419   .     S
C233   C245    1.398   .     A
C233   C246    1.396   .     A
C234   C244    1.398   .     A
C235   N256    1.378   .     A
C235   C921    1.416   1_554 S
C236   N255    1.378   .     A
C236   C580    1.416   .     S
C237   H253    1.082   .     S
C237   N255    1.360   .     A
C237   C577    1.416   .     S
C238   H254    1.082   .     S
C238   N256    1.360   .     A
C238   C920    1.416   1_554 S
C239   O260    1.285   .     A
C239   O258    1.287   .     A
C240   O263    1.282   .     A
C240   C242    1.402   .     S
C240   O261    1.282   .     A
C241   O262    1.282   .     A
C241   C243    1.402   .     S
C241   O264    1.282   .     A
C242   C319    1.328   1_455 S
C242   H323    1.088   1_455 S
C243   C280    1.328   .     S
C243   H286    1.088   .     S
C244   H249    1.084   .     S
C245   H250    1.084   .     S
C245   C4      1.370   1_565 S
C246   H251    1.084   .     S
C246   C16     1.370   1_565 S
H247   C280    1.088   .     S
H248   C319    1.088   1_455 S
N255   Zn265   2.018   .     S
N256   Zn266   2.018   .     S
O257   Zn265   2.002   .     S
O258   Zn266   2.002   .     S
O259   Zn266   1.997   .     S
O260   Zn265   1.997   .     S
O261   Zn265   1.973   .     S
O262   Zn266   1.973   .     S
O263   Zn266   1.980   .     S
O264   Zn265   1.980   .     S
Br267  C273    1.911   .     S
Br268  C274    1.911   .     S
C269   C272    1.419   .     S
C269   O297    1.285   .     A
C269   O295    1.287   .     A
C270   C272    1.396   .     A
C270   H290    1.084   .     S
C271   C277    1.419   .     S
C271   C283    1.398   .     A
C271   C284    1.396   .     A
C272   C282    1.398   .     A
C273   N294    1.378   .     A
C273   C959    1.416   1_554 S
C274   N293    1.378   .     A
C274   C618    1.416   .     S
C275   H291    1.082   .     S
C275   N293    1.360   .     A
C275   C615    1.416   .     S
C276   H292    1.082   .     S
C276   N294    1.360   .     A
C276   C958    1.416   1_554 S
C277   O298    1.285   .     A
C277   O296    1.287   .     A
C278   O301    1.282   .     A
C278   C280    1.402   .     S
C278   O299    1.282   .     A
C279   O300    1.282   .     A
C279   C281    1.402   .     S
C279   O302    1.282   .     A
C281   C318    1.328   .     S
C281   H324    1.088   .     S
C282   H287    1.084   .     S
C283   H288    1.084   .     S
C283   C42     1.370   1_565 S
C284   H289    1.084   .     S
C284   C54     1.370   1_565 S
H285   C318    1.088   .     S
N293   Zn303   2.018   .     S
N294   Zn304   2.018   .     S
O295   Zn303   2.002   .     S
O296   Zn304   2.002   .     S
O297   Zn304   1.997   .     S
O298   Zn303   1.997   .     S
O299   Zn303   1.973   .     S
O300   Zn304   1.973   .     S
O301   Zn304   1.980   .     S
O302   Zn303   1.980   .     S
Br305  C311    1.911   .     S
Br306  C312    1.911   .     S
C307   C310    1.419   .     S
C307   O335    1.285   .     A
C307   O333    1.287   .     A
C308   C310    1.396   .     A
C308   H328    1.084   .     S
C309   C315    1.419   .     S
C309   C321    1.398   .     A
C309   C322    1.396   .     A
C310   C320    1.398   .     A
C311   N332    1.378   .     A
C311   C997    1.416   1_554 S
C312   N331    1.378   .     A
C312   C656    1.416   .     S
C313   H329    1.082   .     S
C313   N331    1.360   .     A
C313   C653    1.416   .     S
C314   H330    1.082   .     S
C314   N332    1.360   .     A
C314   C996    1.416   1_554 S
C315   O336    1.285   .     A
C315   O334    1.287   .     A
C316   O339    1.282   .     A
C316   C318    1.402   .     S
C316   O337    1.282   .     A
C317   O338    1.282   .     A
C317   C319    1.402   .     S
C317   O340    1.282   .     A
C319   C242    1.328   1_655 S
C319   H248    1.088   1_655 S
C320   H325    1.084   .     S
C321   H326    1.084   .     S
C321   C80     1.370   1_565 S
C322   H327    1.084   .     S
C322   C92     1.370   1_565 S
H323   C242    1.088   1_655 S
N331   Zn341   2.018   .     S
N332   Zn342   2.018   .     S
O333   Zn341   2.002   .     S
O334   Zn342   2.002   .     S
O335   Zn342   1.997   .     S
O336   Zn341   1.997   .     S
O337   Zn341   1.973   .     S
O338   Zn342   1.973   .     S
O339   Zn342   1.980   .     S
O340   Zn341   1.980   .     S
Br343  C349    1.911   .     S
Br344  C350    1.911   .     S
C345   C348    1.419   .     S
C345   O373    1.285   .     A
C345   O371    1.287   .     A
C346   C348    1.396   .     A
C346   H366    1.084   .     S
C346   C587    1.370   1_545 S
C347   C353    1.419   .     S
C347   C359    1.398   .     A
C347   C360    1.396   .     A
C348   C358    1.398   .     A
C349   N370    1.378   .     A
C350   N369    1.378   .     A
C350   C694    1.416   .     S
C351   H367    1.082   .     S
C351   N369    1.360   .     A
C351   C691    1.416   .     S
C352   H368    1.082   .     S
C352   N370    1.360   .     A
C353   O374    1.285   .     A
C353   O372    1.287   .     A
C354   O377    1.282   .     A
C354   C356    1.402   .     S
C354   O375    1.282   .     A
C355   O376    1.282   .     A
C355   C357    1.402   .     S
C355   O378    1.282   .     A
C356   C433    1.328   1_455 S
C356   H437    1.088   1_455 S
C357   C394    1.328   .     S
C357   H400    1.088   .     S
C358   H363    1.084   .     S
C358   C588    1.370   1_545 S
C359   H364    1.084   .     S
C359   C460    1.370   .     S
C360   H365    1.084   .     S
C360   C472    1.370   .     S
H361   C394    1.088   .     S
H362   C433    1.088   1_455 S
N369   Zn379   2.018   .     S
N370   Zn380   2.018   .     S
O371   Zn379   2.002   .     S
O372   Zn380   2.002   .     S
O373   Zn380   1.997   .     S
O374   Zn379   1.997   .     S
O375   Zn379   1.973   .     S
O376   Zn380   1.973   .     S
O377   Zn380   1.980   .     S
O378   Zn379   1.980   .     S
Br381  C387    1.911   .     S
Br382  C388    1.911   .     S
C383   C386    1.419   .     S
C383   O411    1.285   .     A
C383   O409    1.287   .     A
C384   C386    1.396   .     A
C384   H404    1.084   .     S
C384   C625    1.370   1_545 S
C385   C391    1.419   .     S
C385   C397    1.398   .     A
C385   C398    1.396   .     A
C386   C396    1.398   .     A
C387   N408    1.378   .     A
C388   N407    1.378   .     A
C388   C732    1.416   .     S
C389   H405    1.082   .     S
C389   N407    1.360   .     A
C389   C729    1.416   .     S
C390   H406    1.082   .     S
C390   N408    1.360   .     A
C391   O412    1.285   .     A
C391   O410    1.287   .     A
C392   O415    1.282   .     A
C392   C394    1.402   .     S
C392   O413    1.282   .     A
C393   O414    1.282   .     A
C393   C395    1.402   .     S
C393   O416    1.282   .     A
C395   C432    1.328   .     S
C395   H438    1.088   .     S
C396   H401    1.084   .     S
C396   C626    1.370   1_545 S
C397   H402    1.084   .     S
C397   C498    1.370   .     S
C398   H403    1.084   .     S
C398   C510    1.370   .     S
H399   C432    1.088   .     S
N407   Zn417   2.018   .     S
N408   Zn418   2.018   .     S
O409   Zn417   2.002   .     S
O410   Zn418   2.002   .     S
O411   Zn418   1.997   .     S
O412   Zn417   1.997   .     S
O413   Zn417   1.973   .     S
O414   Zn418   1.973   .     S
O415   Zn418   1.980   .     S
O416   Zn417   1.980   .     S
Br419  C425    1.911   .     S
Br420  C426    1.911   .     S
C421   C424    1.419   .     S
C421   O449    1.285   .     A
C421   O447    1.287   .     A
C422   C424    1.396   .     A
C422   H442    1.084   .     S
C422   C663    1.370   1_545 S
C423   C429    1.419   .     S
C423   C435    1.398   .     A
C423   C436    1.396   .     A
C424   C434    1.398   .     A
C425   N446    1.378   .     A
C426   N445    1.378   .     A
C426   C770    1.416   .     S
C427   H443    1.082   .     S
C427   N445    1.360   .     A
C427   C767    1.416   .     S
C428   H444    1.082   .     S
C428   N446    1.360   .     A
C429   O450    1.285   .     A
C429   O448    1.287   .     A
C430   O453    1.282   .     A
C430   C432    1.402   .     S
C430   O451    1.282   .     A
C431   O452    1.282   .     A
C431   C433    1.402   .     S
C431   O454    1.282   .     A
C433   C356    1.328   1_655 S
C433   H362    1.088   1_655 S
C434   H439    1.084   .     S
C434   C664    1.370   1_545 S
C435   H440    1.084   .     S
C435   C536    1.370   .     S
C436   H441    1.084   .     S
C436   C548    1.370   .     S
H437   C356    1.088   1_655 S
N445   Zn455   2.018   .     S
N446   Zn456   2.018   .     S
O447   Zn455   2.002   .     S
O448   Zn456   2.002   .     S
O449   Zn456   1.997   .     S
O450   Zn455   1.997   .     S
O451   Zn455   1.973   .     S
O452   Zn456   1.973   .     S
O453   Zn456   1.980   .     S
O454   Zn455   1.980   .     S
Br457  C463    1.911   .     S
Br458  C464    1.911   .     S
C459   C462    1.419   .     S
C459   O487    1.285   .     A
C459   O485    1.287   .     A
C460   C462    1.396   .     A
C460   H480    1.084   .     S
C461   C467    1.419   .     S
C461   C473    1.398   .     A
C461   C474    1.396   .     A
C462   C472    1.398   .     A
C463   N484    1.378   .     A
C464   N483    1.378   .     A
C464   C808    1.416   .     S
C465   H481    1.082   .     S
C465   N483    1.360   .     A
C465   C805    1.416   .     S
C466   H482    1.082   .     S
C466   N484    1.360   .     A
C467   O488    1.285   .     A
C467   O486    1.287   .     A
C468   O491    1.282   .     A
C468   C470    1.402   .     S
C468   O489    1.282   .     A
C469   O490    1.282   .     A
C469   C471    1.402   .     S
C469   O492    1.282   .     A
C470   C547    1.328   1_455 S
C470   H551    1.088   1_455 S
C471   C508    1.328   .     S
C471   H514    1.088   .     S
C472   H477    1.084   .     S
C473   H478    1.084   .     S
C473   C574    1.370   .     S
C474   H479    1.084   .     S
C474   C586    1.370   .     S
H475   C508    1.088   .     S
H476   C547    1.088   1_455 S
N483   Zn493   2.018   .     S
N484   Zn494   2.018   .     S
O485   Zn493   2.002   .     S
O486   Zn494   2.002   .     S
O487   Zn494   1.997   .     S
O488   Zn493   1.997   .     S
O489   Zn493   1.973   .     S
O490   Zn494   1.973   .     S
O491   Zn494   1.980   .     S
O492   Zn493   1.980   .     S
Br495  C501    1.911   .     S
Br496  C502    1.911   .     S
C497   C500    1.419   .     S
C497   O525    1.285   .     A
C497   O523    1.287   .     A
C498   C500    1.396   .     A
C498   H518    1.084   .     S
C499   C505    1.419   .     S
C499   C511    1.398   .     A
C499   C512    1.396   .     A
C500   C510    1.398   .     A
C501   N522    1.378   .     A
C502   N521    1.378   .     A
C502   C846    1.416   .     S
C503   H519    1.082   .     S
C503   N521    1.360   .     A
C503   C843    1.416   .     S
C504   H520    1.082   .     S
C504   N522    1.360   .     A
C505   O526    1.285   .     A
C505   O524    1.287   .     A
C506   O529    1.282   .     A
C506   C508    1.402   .     S
C506   O527    1.282   .     A
C507   O528    1.282   .     A
C507   C509    1.402   .     S
C507   O530    1.282   .     A
C509   C546    1.328   .     S
C509   H552    1.088   .     S
C510   H515    1.084   .     S
C511   H516    1.084   .     S
C511   C612    1.370   .     S
C512   H517    1.084   .     S
C512   C624    1.370   .     S
H513   C546    1.088   .     S
N521   Zn531   2.018   .     S
N522   Zn532   2.018   .     S
O523   Zn531   2.002   .     S
O524   Zn532   2.002   .     S
O525   Zn532   1.997   .     S
O526   Zn531   1.997   .     S
O527   Zn531   1.973   .     S
O528   Zn532   1.973   .     S
O529   Zn532   1.980   .     S
O530   Zn531   1.980   .     S
Br533  C539    1.911   .     S
Br534  C540    1.911   .     S
C535   C538    1.419   .     S
C535   O563    1.285   .     A
C535   O561    1.287   .     A
C536   C538    1.396   .     A
C536   H556    1.084   .     S
C537   C543    1.419   .     S
C537   C549    1.398   .     A
C537   C550    1.396   .     A
C538   C548    1.398   .     A
C539   N560    1.378   .     A
C540   N559    1.378   .     A
C540   C884    1.416   .     S
C541   H557    1.082   .     S
C541   N559    1.360   .     A
C541   C881    1.416   .     S
C542   H558    1.082   .     S
C542   N560    1.360   .     A
C543   O564    1.285   .     A
C543   O562    1.287   .     A
C544   O567    1.282   .     A
C544   C546    1.402   .     S
C544   O565    1.282   .     A
C545   O566    1.282   .     A
C545   C547    1.402   .     S
C545   O568    1.282   .     A
C547   C470    1.328   1_655 S
C547   H476    1.088   1_655 S
C548   H553    1.084   .     S
C549   H554    1.084   .     S
C549   C650    1.370   .     S
C550   H555    1.084   .     S
C550   C662    1.370   .     S
H551   C470    1.088   1_655 S
N559   Zn569   2.018   .     S
N560   Zn570   2.018   .     S
O561   Zn569   2.002   .     S
O562   Zn570   2.002   .     S
O563   Zn570   1.997   .     S
O564   Zn569   1.997   .     S
O565   Zn569   1.973   .     S
O566   Zn570   1.973   .     S
O567   Zn570   1.980   .     S
O568   Zn569   1.980   .     S
Br571  C577    1.911   .     S
Br572  C578    1.911   .     S
C573   C576    1.419   .     S
C573   O601    1.285   .     A
C573   O599    1.287   .     A
C574   C576    1.396   .     A
C574   H594    1.084   .     S
C575   C581    1.419   .     S
C575   C587    1.398   .     A
C575   C588    1.396   .     A
C576   C586    1.398   .     A
C577   N598    1.378   .     A
C578   N597    1.378   .     A
C578   C922    1.416   .     S
C579   H595    1.082   .     S
C579   N597    1.360   .     A
C579   C919    1.416   .     S
C580   H596    1.082   .     S
C580   N598    1.360   .     A
C581   O602    1.285   .     A
C581   O600    1.287   .     A
C582   O605    1.282   .     A
C582   C584    1.402   .     S
C582   O603    1.282   .     A
C583   O604    1.282   .     A
C583   C585    1.402   .     S
C583   O606    1.282   .     A
C584   C661    1.328   1_455 S
C584   H665    1.088   1_455 S
C585   C622    1.328   .     S
C585   H628    1.088   .     S
C586   H591    1.084   .     S
C587   H592    1.084   .     S
C587   C346    1.370   1_565 S
C588   H593    1.084   .     S
C588   C358    1.370   1_565 S
H589   C622    1.088   .     S
H590   C661    1.088   1_455 S
N597   Zn607   2.018   .     S
N598   Zn608   2.018   .     S
O599   Zn607   2.002   .     S
O600   Zn608   2.002   .     S
O601   Zn608   1.997   .     S
O602   Zn607   1.997   .     S
O603   Zn607   1.973   .     S
O604   Zn608   1.973   .     S
O605   Zn608   1.980   .     S
O606   Zn607   1.980   .     S
Br609  C615    1.911   .     S
Br610  C616    1.911   .     S
C611   C614    1.419   .     S
C611   O639    1.285   .     A
C611   O637    1.287   .     A
C612   C614    1.396   .     A
C612   H632    1.084   .     S
C613   C619    1.419   .     S
C613   C625    1.398   .     A
C613   C626    1.396   .     A
C614   C624    1.398   .     A
C615   N636    1.378   .     A
C616   N635    1.378   .     A
C616   C960    1.416   .     S
C617   H633    1.082   .     S
C617   N635    1.360   .     A
C617   C957    1.416   .     S
C618   H634    1.082   .     S
C618   N636    1.360   .     A
C619   O640    1.285   .     A
C619   O638    1.287   .     A
C620   O643    1.282   .     A
C620   C622    1.402   .     S
C620   O641    1.282   .     A
C621   O642    1.282   .     A
C621   C623    1.402   .     S
C621   O644    1.282   .     A
C623   C660    1.328   .     S
C623   H666    1.088   .     S
C624   H629    1.084   .     S
C625   H630    1.084   .     S
C625   C384    1.370   1_565 S
C626   H631    1.084   .     S
C626   C396    1.370   1_565 S
H627   C660    1.088   .     S
N635   Zn645   2.018   .     S
N636   Zn646   2.018   .     S
O637   Zn645   2.002   .     S
O638   Zn646   2.002   .     S
O639   Zn646   1.997   .     S
O640   Zn645   1.997   .     S
O641   Zn645   1.973   .     S
O642   Zn646   1.973   .     S
O643   Zn646   1.980   .     S
O644   Zn645   1.980   .     S
Br647  C653    1.911   .     S
Br648  C654    1.911   .     S
C649   C652    1.419   .     S
C649   O677    1.285   .     A
C649   O675    1.287   .     A
C650   C652    1.396   .     A
C650   H670    1.084   .     S
C651   C657    1.419   .     S
C651   C663    1.398   .     A
C651   C664    1.396   .     A
C652   C662    1.398   .     A
C653   N674    1.378   .     A
C654   N673    1.378   .     A
C654   C998    1.416   .     S
C655   H671    1.082   .     S
C655   N673    1.360   .     A
C655   C995    1.416   .     S
C656   H672    1.082   .     S
C656   N674    1.360   .     A
C657   O678    1.285   .     A
C657   O676    1.287   .     A
C658   O681    1.282   .     A
C658   C660    1.402   .     S
C658   O679    1.282   .     A
C659   O680    1.282   .     A
C659   C661    1.402   .     S
C659   O682    1.282   .     A
C661   C584    1.328   1_655 S
C661   H590    1.088   1_655 S
C662   H667    1.084   .     S
C663   H668    1.084   .     S
C663   C422    1.370   1_565 S
C664   H669    1.084   .     S
C664   C434    1.370   1_565 S
H665   C584    1.088   1_655 S
N673   Zn683   2.018   .     S
N674   Zn684   2.018   .     S
O675   Zn683   2.002   .     S
O676   Zn684   2.002   .     S
O677   Zn684   1.997   .     S
O678   Zn683   1.997   .     S
O679   Zn683   1.973   .     S
O680   Zn684   1.973   .     S
O681   Zn684   1.980   .     S
O682   Zn683   1.980   .     S
Br685  C691    1.911   .     S
Br686  C692    1.911   .     S
C687   C690    1.419   .     S
C687   O715    1.285   .     A
C687   O713    1.287   .     A
C688   C690    1.396   .     A
C688   H708    1.084   .     S
C688   C929    1.370   1_545 S
C689   C695    1.419   .     S
C689   C701    1.398   .     A
C689   C702    1.396   .     A
C690   C700    1.398   .     A
C691   N712    1.378   .     A
C692   N711    1.378   .     A
C692   C10     1.416   1_556 S
C693   H709    1.082   .     S
C693   N711    1.360   .     A
C693   C7      1.416   1_556 S
C694   H710    1.082   .     S
C694   N712    1.360   .     A
C695   O716    1.285   .     A
C695   O714    1.287   .     A
C696   O719    1.282   .     A
C696   C698    1.402   .     S
C696   O717    1.282   .     A
C697   O718    1.282   .     A
C697   C699    1.402   .     S
C697   O720    1.282   .     A
C698   C775    1.328   1_455 S
C698   H779    1.088   1_455 S
C699   C736    1.328   .     S
C699   H742    1.088   .     S
C700   H705    1.084   .     S
C700   C930    1.370   1_545 S
C701   H706    1.084   .     S
C701   C802    1.370   .     S
C702   H707    1.084   .     S
C702   C814    1.370   .     S
H703   C736    1.088   .     S
H704   C775    1.088   1_455 S
N711   Zn721   2.018   .     S
N712   Zn722   2.018   .     S
O713   Zn721   2.002   .     S
O714   Zn722   2.002   .     S
O715   Zn722   1.997   .     S
O716   Zn721   1.997   .     S
O717   Zn721   1.973   .     S
O718   Zn722   1.973   .     S
O719   Zn722   1.980   .     S
O720   Zn721   1.980   .     S
Br723  C729    1.911   .     S
Br724  C730    1.911   .     S
C725   C728    1.419   .     S
C725   O753    1.285   .     A
C725   O751    1.287   .     A
C726   C728    1.396   .     A
C726   H746    1.084   .     S
C726   C967    1.370   1_545 S
C727   C733    1.419   .     S
C727   C739    1.398   .     A
C727   C740    1.396   .     A
C728   C738    1.398   .     A
C729   N750    1.378   .     A
C730   N749    1.378   .     A
C730   C48     1.416   1_556 S
C731   H747    1.082   .     S
C731   N749    1.360   .     A
C731   C45     1.416   1_556 S
C732   H748    1.082   .     S
C732   N750    1.360   .     A
C733   O754    1.285   .     A
C733   O752    1.287   .     A
C734   O757    1.282   .     A
C734   C736    1.402   .     S
C734   O755    1.282   .     A
C735   O756    1.282   .     A
C735   C737    1.402   .     S
C735   O758    1.282   .     A
C737   C774    1.328   .     S
C737   H780    1.088   .     S
C738   H743    1.084   .     S
C738   C968    1.370   1_545 S
C739   H744    1.084   .     S
C739   C840    1.370   .     S
C740   H745    1.084   .     S
C740   C852    1.370   .     S
H741   C774    1.088   .     S
N749   Zn759   2.018   .     S
N750   Zn760   2.018   .     S
O751   Zn759   2.002   .     S
O752   Zn760   2.002   .     S
O753   Zn760   1.997   .     S
O754   Zn759   1.997   .     S
O755   Zn759   1.973   .     S
O756   Zn760   1.973   .     S
O757   Zn760   1.980   .     S
O758   Zn759   1.980   .     S
Br761  C767    1.911   .     S
Br762  C768    1.911   .     S
C763   C766    1.419   .     S
C763   O791    1.285   .     A
C763   O789    1.287   .     A
C764   C766    1.396   .     A
C764   H784    1.084   .     S
C764   C1005   1.370   1_545 S
C765   C771    1.419   .     S
C765   C777    1.398   .     A
C765   C778    1.396   .     A
C766   C776    1.398   .     A
C767   N788    1.378   .     A
C768   N787    1.378   .     A
C768   C86     1.416   1_556 S
C769   H785    1.082   .     S
C769   N787    1.360   .     A
C769   C83     1.416   1_556 S
C770   H786    1.082   .     S
C770   N788    1.360   .     A
C771   O792    1.285   .     A
C771   O790    1.287   .     A
C772   O795    1.282   .     A
C772   C774    1.402   .     S
C772   O793    1.282   .     A
C773   O794    1.282   .     A
C773   C775    1.402   .     S
C773   O796    1.282   .     A
C775   C698    1.328   1_655 S
C775   H704    1.088   1_655 S
C776   H781    1.084   .     S
C776   C1006   1.370   1_545 S
C777   H782    1.084   .     S
C777   C878    1.370   .     S
C778   H783    1.084   .     S
C778   C890    1.370   .     S
H779   C698    1.088   1_655 S
N787   Zn797   2.018   .     S
N788   Zn798   2.018   .     S
O789   Zn797   2.002   .     S
O790   Zn798   2.002   .     S
O791   Zn798   1.997   .     S
O792   Zn797   1.997   .     S
O793   Zn797   1.973   .     S
O794   Zn798   1.973   .     S
O795   Zn798   1.980   .     S
O796   Zn797   1.980   .     S
Br799  C805    1.911   .     S
Br800  C806    1.911   .     S
C801   C804    1.419   .     S
C801   O829    1.285   .     A
C801   O827    1.287   .     A
C802   C804    1.396   .     A
C802   H822    1.084   .     S
C803   C809    1.419   .     S
C803   C815    1.398   .     A
C803   C816    1.396   .     A
C804   C814    1.398   .     A
C805   N826    1.378   .     A
C806   N825    1.378   .     A
C806   C124    1.416   1_556 S
C807   H823    1.082   .     S
C807   N825    1.360   .     A
C807   C121    1.416   1_556 S
C808   H824    1.082   .     S
C808   N826    1.360   .     A
C809   O830    1.285   .     A
C809   O828    1.287   .     A
C810   O833    1.282   .     A
C810   C812    1.402   .     S
C810   O831    1.282   .     A
C811   O832    1.282   .     A
C811   C813    1.402   .     S
C811   O834    1.282   .     A
C812   C889    1.328   1_455 S
C812   H893    1.088   1_455 S
C813   C850    1.328   .     S
C813   H856    1.088   .     S
C814   H819    1.084   .     S
C815   H820    1.084   .     S
C815   C916    1.370   .     S
C816   H821    1.084   .     S
C816   C928    1.370   .     S
H817   C850    1.088   .     S
H818   C889    1.088   1_455 S
N825   Zn835   2.018   .     S
N826   Zn836   2.018   .     S
O827   Zn835   2.002   .     S
O828   Zn836   2.002   .     S
O829   Zn836   1.997   .     S
O830   Zn835   1.997   .     S
O831   Zn835   1.973   .     S
O832   Zn836   1.973   .     S
O833   Zn836   1.980   .     S
O834   Zn835   1.980   .     S
Br837  C843    1.911   .     S
Br838  C844    1.911   .     S
C839   C842    1.419   .     S
C839   O867    1.285   .     A
C839   O865    1.287   .     A
C840   C842    1.396   .     A
C840   H860    1.084   .     S
C841   C847    1.419   .     S
C841   C853    1.398   .     A
C841   C854    1.396   .     A
C842   C852    1.398   .     A
C843   N864    1.378   .     A
C844   N863    1.378   .     A
C844   C162    1.416   1_556 S
C845   H861    1.082   .     S
C845   N863    1.360   .     A
C845   C159    1.416   1_556 S
C846   H862    1.082   .     S
C846   N864    1.360   .     A
C847   O868    1.285   .     A
C847   O866    1.287   .     A
C848   O871    1.282   .     A
C848   C850    1.402   .     S
C848   O869    1.282   .     A
C849   O870    1.282   .     A
C849   C851    1.402   .     S
C849   O872    1.282   .     A
C851   C888    1.328   .     S
C851   H894    1.088   .     S
C852   H857    1.084   .     S
C853   H858    1.084   .     S
C853   C954    1.370   .     S
C854   H859    1.084   .     S
C854   C966    1.370   .     S
H855   C888    1.088   .     S
N863   Zn873   2.018   .     S
N864   Zn874   2.018   .     S
O865   Zn873   2.002   .     S
O866   Zn874   2.002   .     S
O867   Zn874   1.997   .     S
O868   Zn873   1.997   .     S
O869   Zn873   1.973   .     S
O870   Zn874   1.973   .     S
O871   Zn874   1.980   .     S
O872   Zn873   1.980   .     S
Br875  C881    1.911   .     S
Br876  C882    1.911   .     S
C877   C880    1.419   .     S
C877   O905    1.285   .     A
C877   O903    1.287   .     A
C878   C880    1.396   .     A
C878   H898    1.084   .     S
C879   C885    1.419   .     S
C879   C891    1.398   .     A
C879   C892    1.396   .     A
C880   C890    1.398   .     A
C881   N902    1.378   .     A
C882   N901    1.378   .     A
C882   C200    1.416   1_556 S
C883   H899    1.082   .     S
C883   N901    1.360   .     A
C883   C197    1.416   1_556 S
C884   H900    1.082   .     S
C884   N902    1.360   .     A
C885   O906    1.285   .     A
C885   O904    1.287   .     A
C886   O909    1.282   .     A
C886   C888    1.402   .     S
C886   O907    1.282   .     A
C887   O908    1.282   .     A
C887   C889    1.402   .     S
C887   O910    1.282   .     A
C889   C812    1.328   1_655 S
C889   H818    1.088   1_655 S
C890   H895    1.084   .     S
C891   H896    1.084   .     S
C891   C992    1.370   .     S
C892   H897    1.084   .     S
C892   C1004   1.370   .     S
H893   C812    1.088   1_655 S
N901   Zn911   2.018   .     S
N902   Zn912   2.018   .     S
O903   Zn911   2.002   .     S
O904   Zn912   2.002   .     S
O905   Zn912   1.997   .     S
O906   Zn911   1.997   .     S
O907   Zn911   1.973   .     S
O908   Zn912   1.973   .     S
O909   Zn912   1.980   .     S
O910   Zn911   1.980   .     S
Br913  C919    1.911   .     S
Br914  C920    1.911   .     S
C915   C918    1.419   .     S
C915   O943    1.285   .     A
C915   O941    1.287   .     A
C916   C918    1.396   .     A
C916   H936    1.084   .     S
C917   C923    1.419   .     S
C917   C929    1.398   .     A
C917   C930    1.396   .     A
C918   C928    1.398   .     A
C919   N940    1.378   .     A
C920   N939    1.378   .     A
C920   C238    1.416   1_556 S
C921   H937    1.082   .     S
C921   N939    1.360   .     A
C921   C235    1.416   1_556 S
C922   H938    1.082   .     S
C922   N940    1.360   .     A
C923   O944    1.285   .     A
C923   O942    1.287   .     A
C924   O947    1.282   .     A
C924   C926    1.402   .     S
C924   O945    1.282   .     A
C925   O946    1.282   .     A
C925   C927    1.402   .     S
C925   O948    1.282   .     A
C926   C1003   1.328   1_455 S
C926   H1007   1.088   1_455 S
C927   C964    1.328   .     S
C927   H970    1.088   .     S
C928   H933    1.084   .     S
C929   H934    1.084   .     S
C929   C688    1.370   1_565 S
C930   H935    1.084   .     S
C930   C700    1.370   1_565 S
H931   C964    1.088   .     S
H932   C1003   1.088   1_455 S
N939   Zn949   2.018   .     S
N940   Zn950   2.018   .     S
O941   Zn949   2.002   .     S
O942   Zn950   2.002   .     S
O943   Zn950   1.997   .     S
O944   Zn949   1.997   .     S
O945   Zn949   1.973   .     S
O946   Zn950   1.973   .     S
O947   Zn950   1.980   .     S
O948   Zn949   1.980   .     S
Br951  C957    1.911   .     S
Br952  C958    1.911   .     S
C953   C956    1.419   .     S
C953   O981    1.285   .     A
C953   O979    1.287   .     A
C954   C956    1.396   .     A
C954   H974    1.084   .     S
C955   C961    1.419   .     S
C955   C967    1.398   .     A
C955   C968    1.396   .     A
C956   C966    1.398   .     A
C957   N978    1.378   .     A
C958   N977    1.378   .     A
C958   C276    1.416   1_556 S
C959   H975    1.082   .     S
C959   N977    1.360   .     A
C959   C273    1.416   1_556 S
C960   H976    1.082   .     S
C960   N978    1.360   .     A
C961   O982    1.285   .     A
C961   O980    1.287   .     A
C962   O985    1.282   .     A
C962   C964    1.402   .     S
C962   O983    1.282   .     A
C963   O984    1.282   .     A
C963   C965    1.402   .     S
C963   O986    1.282   .     A
C965   C1002   1.328   .     S
C965   H1008   1.088   .     S
C966   H971    1.084   .     S
C967   H972    1.084   .     S
C967   C726    1.370   1_565 S
C968   H973    1.084   .     S
C968   C738    1.370   1_565 S
H969   C1002   1.088   .     S
N977   Zn987   2.018   .     S
N978   Zn988   2.018   .     S
O979   Zn987   2.002   .     S
O980   Zn988   2.002   .     S
O981   Zn988   1.997   .     S
O982   Zn987   1.997   .     S
O983   Zn987   1.973   .     S
O984   Zn988   1.973   .     S
O985   Zn988   1.980   .     S
O986   Zn987   1.980   .     S
Br989  C995    1.911   .     S
Br990  C996    1.911   .     S
C991   C994    1.419   .     S
C991   O1019   1.285   .     A
C991   O1017   1.287   .     A
C992   C994    1.396   .     A
C992   H1012   1.084   .     S
C993   C999    1.419   .     S
C993   C1005   1.398   .     A
C993   C1006   1.396   .     A
C994   C1004   1.398   .     A
C995   N1016   1.378   .     A
C996   N1015   1.378   .     A
C996   C314    1.416   1_556 S
C997   H1013   1.082   .     S
C997   N1015   1.360   .     A
C997   C311    1.416   1_556 S
C998   H1014   1.082   .     S
C998   N1016   1.360   .     A
C999   O1020   1.285   .     A
C999   O1018   1.287   .     A
C1000  O1023   1.282   .     A
C1000  C1002   1.402   .     S
C1000  O1021   1.282   .     A
C1001  O1022   1.282   .     A
C1001  C1003   1.402   .     S
C1001  O1024   1.282   .     A
C1003  C926    1.328   1_655 S
C1003  H932    1.088   1_655 S
C1004  H1009   1.084   .     S
C1005  H1010   1.084   .     S
C1005  C764    1.370   1_565 S
C1006  H1011   1.084   .     S
C1006  C776    1.370   1_565 S
H1007  C926    1.088   1_655 S
N1015  Zn1025  2.018   .     S
N1016  Zn1026  2.018   .     S
O1017  Zn1025  2.002   .     S
O1018  Zn1026  2.002   .     S
O1019  Zn1026  1.997   .     S
O1020  Zn1025  1.997   .     S
O1021  Zn1025  1.973   .     S
O1022  Zn1026  1.973   .     S
O1023  Zn1026  1.980   .     S
O1024  Zn1025  1.980   .     S
