data_str_m2_o1_o16_pcu_sym.196
_audit_creation_date              2020-01-03
_audit_creation_method            'Materials Studio'
_symmetry_space_group_name_H-M    'P1'
_symmetry_Int_Tables_number       1
_symmetry_cell_setting            triclinic
loop_
_symmetry_equiv_pos_as_xyz
  x,y,z
_cell_length_a                    28.6339
_cell_length_b                    32.4470
_cell_length_c                    26.8317
_cell_angle_alpha                 90.8095
_cell_angle_beta                  72.1261
_cell_angle_gamma                 90.3393
loop_
_atom_site_label
_atom_site_type_symbol
_atom_site_fract_x
_atom_site_fract_y
_atom_site_fract_z
_atom_site_U_iso_or_equiv
_atom_site_adp_type
_atom_site_occupancy
C1     C     0.16738   0.24587   0.24770   0.00000  Uiso   1.00
C2     C     0.14591   0.16366   0.48902   0.00000  Uiso   1.00
C3     C     0.15584   0.15007   0.43615   0.00000  Uiso   1.00
C4     C     0.18218   0.15827   0.01463   0.00000  Uiso   1.00
C5     C     0.22661   0.13771   0.48822   0.00000  Uiso   1.00
C6     C     0.23356   0.12088   0.43850   0.00000  Uiso   1.00
C7     C     0.19767   0.12495   0.41329   0.00000  Uiso   1.00
C8     C     0.17502   0.17146   0.06654   0.00000  Uiso   1.00
C9     C     0.25337   0.14347   0.06551   0.00000  Uiso   1.00
C10    C     0.12242   0.16057   0.40841   0.00000  Uiso   1.00
C11    C     0.19960   0.31215   0.26688   0.00000  Uiso   1.00
C12    C     0.13994   0.16387   0.35027   0.00000  Uiso   1.00
C13    C     0.19925   0.02141   0.26836   0.00000  Uiso   1.00
C14    C     0.16690   0.04286   0.24847   0.00000  Uiso   1.00
C15    C     0.13599   0.02171   0.22545   0.00000  Uiso   1.00
C16    C     0.13732   0.31222   0.22161   0.00000  Uiso   1.00
C17    C     0.16836   0.29055   0.24445   0.00000  Uiso   1.00
C18    C     0.30124   0.19651   0.27649   0.00000  Uiso   1.00
C19    C     0.01743   0.19647   0.27655   0.00000  Uiso   1.00
C20    C     0.03116   0.13640   0.22370   0.00000  Uiso   1.00
C21    C     0.31512   0.13660   0.22438   0.00000  Uiso   1.00
C22    C     0.16660   0.08743   0.24988   0.00000  Uiso   1.00
C23    C     0.19311   0.16642   0.14987   0.00000  Uiso   1.00
C24    C     0.26246   0.13169   0.01330   0.00000  Uiso   1.00
C25    C     0.20866   0.16196   0.09276   0.00000  Uiso   1.00
C26    C     0.07411   0.17352   0.43736   0.00000  Uiso   1.00
C27    C     0.06375   0.18396   0.49004   0.00000  Uiso   1.00
C28    C     0.09928   0.18077   0.01496   0.00000  Uiso   1.00
Cu29   Cu    0.11978   0.16666   0.25000   0.00000  Uiso   1.00
Cu30   Cu    0.21355   0.16667   0.25000   0.00000  Uiso   1.00
H31    H     0.28004   0.13612   0.08522   0.00000  Uiso   1.00
H32    H     0.22360   0.03753   0.28594   0.00000  Uiso   1.00
H33    H     0.11248   0.03871   0.20824   0.00000  Uiso   1.00
H34    H     0.27672   0.22041   0.29786   0.00000  Uiso   1.00
H35    H     0.03003   0.22028   0.29799   0.00000  Uiso   1.00
H36    H     0.30191   0.11270   0.20354   0.00000  Uiso   1.00
H37    H     0.26610   0.10267   0.42019   0.00000  Uiso   1.00
H38    H     0.29650   0.11599   0.49332   0.00000  Uiso   1.00
H39    H     0.14274   0.18803   0.08862   0.00000  Uiso   1.00
H40    H     0.08764   0.19010   0.05552   0.00000  Uiso   1.00
H41    H     0.02746   0.19466   0.01245   0.00000  Uiso   1.00
H42    H     0.22372   0.29607   0.28423   0.00000  Uiso   1.00
N43    N     0.04931   0.16666   0.24999   0.00000  Uiso   1.00
N44    N     0.28402   0.16669   0.25000   0.00000  Uiso   1.00
O45    O     0.12708   0.22678   0.25001   0.00000  Uiso   1.00
O46    O     0.20627   0.22679   0.25001   0.00000  Uiso   1.00
O47    O     0.10775   0.16665   0.32549   0.00000  Uiso   1.00
O48    O     0.18694   0.16666   0.32549   0.00000  Uiso   1.00
O49    O     0.12706   0.10654   0.25000   0.00000  Uiso   1.00
O50    O     0.20625   0.10655   0.25000   0.00000  Uiso   1.00
O51    O     0.14640   0.16667   0.17451   0.00000  Uiso   1.00
O52    O     0.22559   0.16668   0.17451   0.00000  Uiso   1.00
C53    C     0.10796   0.29197   0.19116   0.00000  Uiso   1.00
O54    O     0.12489   0.26293   0.16174   0.00000  Uiso   1.00
O55    O     0.06159   0.30740   0.19448   0.00000  Uiso   1.00
H56    H     0.04528   0.29133   0.17167   0.00000  Uiso   1.00
O57    O     0.05914   0.10428   0.19665   0.00000  Uiso   1.00
H58    H     0.09288   0.11406   0.18142   0.00000  Uiso   1.00
C59    C     0.03251   0.17526   0.41547   0.00000  Uiso   1.00
O60    O     0.02370   0.14581   0.39081   0.00000  Uiso   1.00
O61    O     0.00146   0.20952   0.42600   0.00000  Uiso   1.00
H62    H     0.30703   0.20664   0.41011   0.00000  Uiso   1.00
O63    O     0.20045   0.10129   0.36919   0.00000  Uiso   1.00
H64    H     0.23170   0.08566   0.35850   0.00000  Uiso   1.00
C65    C     0.50071   0.24587   0.24770   0.00000  Uiso   1.00
C66    C     0.47924   0.16366   0.48902   0.00000  Uiso   1.00
C67    C     0.48917   0.15007   0.43615   0.00000  Uiso   1.00
C68    C     0.51552   0.15827   0.01463   0.00000  Uiso   1.00
C69    C     0.55994   0.13771   0.48822   0.00000  Uiso   1.00
C70    C     0.56689   0.12088   0.43850   0.00000  Uiso   1.00
C71    C     0.53100   0.12495   0.41329   0.00000  Uiso   1.00
C72    C     0.50835   0.17146   0.06654   0.00000  Uiso   1.00
C73    C     0.58670   0.14347   0.06551   0.00000  Uiso   1.00
C74    C     0.45576   0.16057   0.40841   0.00000  Uiso   1.00
C75    C     0.53293   0.31215   0.26688   0.00000  Uiso   1.00
C76    C     0.47328   0.16387   0.35027   0.00000  Uiso   1.00
C77    C     0.53259   0.02141   0.26836   0.00000  Uiso   1.00
C78    C     0.50023   0.04286   0.24847   0.00000  Uiso   1.00
C79    C     0.46933   0.02171   0.22545   0.00000  Uiso   1.00
C80    C     0.47066   0.31222   0.22161   0.00000  Uiso   1.00
C81    C     0.50169   0.29055   0.24445   0.00000  Uiso   1.00
C82    C     0.63457   0.19651   0.27649   0.00000  Uiso   1.00
C83    C     0.35077   0.19647   0.27655   0.00000  Uiso   1.00
C84    C     0.36449   0.13640   0.22370   0.00000  Uiso   1.00
C85    C     0.64845   0.13660   0.22438   0.00000  Uiso   1.00
C86    C     0.49994   0.08743   0.24988   0.00000  Uiso   1.00
C87    C     0.52644   0.16642   0.14987   0.00000  Uiso   1.00
C88    C     0.59579   0.13169   0.01330   0.00000  Uiso   1.00
C89    C     0.54199   0.16196   0.09276   0.00000  Uiso   1.00
C90    C     0.40745   0.17352   0.43736   0.00000  Uiso   1.00
C91    C     0.39708   0.18396   0.49004   0.00000  Uiso   1.00
C92    C     0.43261   0.18077   0.01496   0.00000  Uiso   1.00
Cu93   Cu    0.45311   0.16666   0.25000   0.00000  Uiso   1.00
Cu94   Cu    0.54689   0.16667   0.25000   0.00000  Uiso   1.00
H95    H     0.61337   0.13612   0.08522   0.00000  Uiso   1.00
H96    H     0.55694   0.03753   0.28594   0.00000  Uiso   1.00
H97    H     0.44582   0.03871   0.20824   0.00000  Uiso   1.00
H98    H     0.61006   0.22041   0.29786   0.00000  Uiso   1.00
H99    H     0.36336   0.22028   0.29799   0.00000  Uiso   1.00
H100   H     0.63524   0.11270   0.20354   0.00000  Uiso   1.00
H101   H     0.59943   0.10267   0.42019   0.00000  Uiso   1.00
H102   H     0.62983   0.11599   0.49332   0.00000  Uiso   1.00
H103   H     0.47607   0.18803   0.08862   0.00000  Uiso   1.00
H104   H     0.42097   0.19010   0.05552   0.00000  Uiso   1.00
H105   H     0.36080   0.19466   0.01245   0.00000  Uiso   1.00
H106   H     0.55705   0.29607   0.28423   0.00000  Uiso   1.00
N107   N     0.38265   0.16666   0.24999   0.00000  Uiso   1.00
N108   N     0.61735   0.16669   0.25000   0.00000  Uiso   1.00
O109   O     0.46042   0.22678   0.25001   0.00000  Uiso   1.00
O110   O     0.53961   0.22679   0.25001   0.00000  Uiso   1.00
O111   O     0.44108   0.16665   0.32549   0.00000  Uiso   1.00
O112   O     0.52027   0.16666   0.32549   0.00000  Uiso   1.00
O113   O     0.46039   0.10654   0.25000   0.00000  Uiso   1.00
O114   O     0.53958   0.10655   0.25000   0.00000  Uiso   1.00
O115   O     0.47973   0.16667   0.17451   0.00000  Uiso   1.00
O116   O     0.55892   0.16668   0.17451   0.00000  Uiso   1.00
C117   C     0.44130   0.29197   0.19116   0.00000  Uiso   1.00
O118   O     0.45823   0.26293   0.16174   0.00000  Uiso   1.00
O119   O     0.39492   0.30740   0.19448   0.00000  Uiso   1.00
H120   H     0.37861   0.29133   0.17167   0.00000  Uiso   1.00
O121   O     0.39247   0.10428   0.19665   0.00000  Uiso   1.00
H122   H     0.42621   0.11406   0.18142   0.00000  Uiso   1.00
C123   C     0.36585   0.17526   0.41547   0.00000  Uiso   1.00
O124   O     0.35704   0.14581   0.39081   0.00000  Uiso   1.00
O125   O     0.33479   0.20952   0.42600   0.00000  Uiso   1.00
H126   H     0.64036   0.20664   0.41011   0.00000  Uiso   1.00
O127   O     0.53379   0.10129   0.36919   0.00000  Uiso   1.00
H128   H     0.56503   0.08566   0.35850   0.00000  Uiso   1.00
C129   C     0.83405   0.24587   0.24770   0.00000  Uiso   1.00
C130   C     0.81257   0.16366   0.48902   0.00000  Uiso   1.00
C131   C     0.82251   0.15007   0.43615   0.00000  Uiso   1.00
C132   C     0.84885   0.15827   0.01463   0.00000  Uiso   1.00
C133   C     0.89327   0.13771   0.48822   0.00000  Uiso   1.00
C134   C     0.90023   0.12088   0.43850   0.00000  Uiso   1.00
C135   C     0.86433   0.12495   0.41329   0.00000  Uiso   1.00
C136   C     0.84169   0.17146   0.06654   0.00000  Uiso   1.00
C137   C     0.92003   0.14347   0.06551   0.00000  Uiso   1.00
C138   C     0.78909   0.16057   0.40841   0.00000  Uiso   1.00
C139   C     0.86626   0.31215   0.26688   0.00000  Uiso   1.00
C140   C     0.80661   0.16387   0.35027   0.00000  Uiso   1.00
C141   C     0.86592   0.02141   0.26836   0.00000  Uiso   1.00
C142   C     0.83356   0.04286   0.24847   0.00000  Uiso   1.00
C143   C     0.80266   0.02171   0.22545   0.00000  Uiso   1.00
C144   C     0.80399   0.31222   0.22161   0.00000  Uiso   1.00
C145   C     0.83502   0.29055   0.24445   0.00000  Uiso   1.00
C146   C     0.96790   0.19651   0.27649   0.00000  Uiso   1.00
C147   C     0.68410   0.19647   0.27655   0.00000  Uiso   1.00
C148   C     0.69783   0.13640   0.22370   0.00000  Uiso   1.00
C149   C     0.98178   0.13660   0.22438   0.00000  Uiso   1.00
C150   C     0.83327   0.08743   0.24988   0.00000  Uiso   1.00
C151   C     0.85977   0.16642   0.14987   0.00000  Uiso   1.00
C152   C     0.92912   0.13169   0.01330   0.00000  Uiso   1.00
C153   C     0.87532   0.16196   0.09276   0.00000  Uiso   1.00
C154   C     0.74078   0.17352   0.43736   0.00000  Uiso   1.00
C155   C     0.73041   0.18396   0.49004   0.00000  Uiso   1.00
C156   C     0.76595   0.18077   0.01496   0.00000  Uiso   1.00
Cu157  Cu    0.78645   0.16666   0.25000   0.00000  Uiso   1.00
Cu158  Cu    0.88022   0.16667   0.25000   0.00000  Uiso   1.00
H159   H     0.94671   0.13612   0.08522   0.00000  Uiso   1.00
H160   H     0.89027   0.03753   0.28594   0.00000  Uiso   1.00
H161   H     0.77915   0.03871   0.20824   0.00000  Uiso   1.00
H162   H     0.94339   0.22041   0.29786   0.00000  Uiso   1.00
H163   H     0.69669   0.22028   0.29799   0.00000  Uiso   1.00
H164   H     0.96857   0.11270   0.20354   0.00000  Uiso   1.00
H165   H     0.93276   0.10267   0.42019   0.00000  Uiso   1.00
H166   H     0.96317   0.11599   0.49332   0.00000  Uiso   1.00
H167   H     0.80940   0.18803   0.08862   0.00000  Uiso   1.00
H168   H     0.75431   0.19010   0.05552   0.00000  Uiso   1.00
H169   H     0.69413   0.19466   0.01245   0.00000  Uiso   1.00
H170   H     0.89038   0.29607   0.28423   0.00000  Uiso   1.00
N171   N     0.71598   0.16666   0.24999   0.00000  Uiso   1.00
N172   N     0.95069   0.16669   0.25000   0.00000  Uiso   1.00
O173   O     0.79375   0.22678   0.25001   0.00000  Uiso   1.00
O174   O     0.87294   0.22679   0.25001   0.00000  Uiso   1.00
O175   O     0.77441   0.16665   0.32549   0.00000  Uiso   1.00
O176   O     0.85360   0.16666   0.32549   0.00000  Uiso   1.00
O177   O     0.79373   0.10654   0.25000   0.00000  Uiso   1.00
O178   O     0.87292   0.10655   0.25000   0.00000  Uiso   1.00
O179   O     0.81306   0.16667   0.17451   0.00000  Uiso   1.00
O180   O     0.89225   0.16668   0.17451   0.00000  Uiso   1.00
C181   C     0.77463   0.29197   0.19116   0.00000  Uiso   1.00
O182   O     0.79156   0.26293   0.16174   0.00000  Uiso   1.00
O183   O     0.72826   0.30740   0.19448   0.00000  Uiso   1.00
H184   H     0.71194   0.29133   0.17167   0.00000  Uiso   1.00
O185   O     0.72580   0.10428   0.19665   0.00000  Uiso   1.00
H186   H     0.75955   0.11406   0.18142   0.00000  Uiso   1.00
C187   C     0.69918   0.17526   0.41547   0.00000  Uiso   1.00
O188   O     0.69037   0.14581   0.39081   0.00000  Uiso   1.00
O189   O     0.66812   0.20952   0.42600   0.00000  Uiso   1.00
H190   H     0.97370   0.20664   0.41011   0.00000  Uiso   1.00
O191   O     0.86712   0.10129   0.36919   0.00000  Uiso   1.00
H192   H     0.89836   0.08566   0.35850   0.00000  Uiso   1.00
C193   C     0.16738   0.57921   0.24770   0.00000  Uiso   1.00
C194   C     0.14591   0.49699   0.48902   0.00000  Uiso   1.00
C195   C     0.15584   0.48340   0.43615   0.00000  Uiso   1.00
C196   C     0.18218   0.49160   0.01463   0.00000  Uiso   1.00
C197   C     0.22661   0.47104   0.48822   0.00000  Uiso   1.00
C198   C     0.23356   0.45421   0.43850   0.00000  Uiso   1.00
C199   C     0.19767   0.45828   0.41329   0.00000  Uiso   1.00
C200   C     0.17502   0.50480   0.06654   0.00000  Uiso   1.00
C201   C     0.25337   0.47680   0.06551   0.00000  Uiso   1.00
C202   C     0.12242   0.49390   0.40841   0.00000  Uiso   1.00
C203   C     0.19960   0.64548   0.26688   0.00000  Uiso   1.00
C204   C     0.13994   0.49721   0.35027   0.00000  Uiso   1.00
C205   C     0.19925   0.35474   0.26836   0.00000  Uiso   1.00
C206   C     0.16690   0.37619   0.24847   0.00000  Uiso   1.00
C207   C     0.13599   0.35504   0.22545   0.00000  Uiso   1.00
C208   C     0.13732   0.64556   0.22161   0.00000  Uiso   1.00
C209   C     0.16836   0.62389   0.24445   0.00000  Uiso   1.00
C210   C     0.30124   0.52984   0.27649   0.00000  Uiso   1.00
C211   C     0.01743   0.52980   0.27655   0.00000  Uiso   1.00
C212   C     0.03116   0.46973   0.22370   0.00000  Uiso   1.00
C213   C     0.31512   0.46993   0.22438   0.00000  Uiso   1.00
C214   C     0.16660   0.42076   0.24988   0.00000  Uiso   1.00
C215   C     0.19311   0.49975   0.14987   0.00000  Uiso   1.00
C216   C     0.26246   0.46502   0.01330   0.00000  Uiso   1.00
C217   C     0.20866   0.49529   0.09276   0.00000  Uiso   1.00
C218   C     0.07411   0.50685   0.43736   0.00000  Uiso   1.00
C219   C     0.06375   0.51729   0.49004   0.00000  Uiso   1.00
C220   C     0.09928   0.51410   0.01496   0.00000  Uiso   1.00
Cu221  Cu    0.11978   0.49999   0.25000   0.00000  Uiso   1.00
Cu222  Cu    0.21355   0.50001   0.25000   0.00000  Uiso   1.00
H223   H     0.28004   0.46945   0.08522   0.00000  Uiso   1.00
H224   H     0.22360   0.37087   0.28594   0.00000  Uiso   1.00
H225   H     0.11248   0.37205   0.20824   0.00000  Uiso   1.00
H226   H     0.27672   0.55374   0.29786   0.00000  Uiso   1.00
H227   H     0.03003   0.55362   0.29799   0.00000  Uiso   1.00
H228   H     0.30191   0.44604   0.20354   0.00000  Uiso   1.00
H229   H     0.26610   0.43601   0.42019   0.00000  Uiso   1.00
H230   H     0.29650   0.44933   0.49332   0.00000  Uiso   1.00
H231   H     0.14274   0.52136   0.08862   0.00000  Uiso   1.00
H232   H     0.08764   0.52343   0.05552   0.00000  Uiso   1.00
H233   H     0.02746   0.52799   0.01245   0.00000  Uiso   1.00
H234   H     0.22372   0.62940   0.28423   0.00000  Uiso   1.00
N235   N     0.04931   0.49999   0.24999   0.00000  Uiso   1.00
N236   N     0.28402   0.50002   0.25000   0.00000  Uiso   1.00
O237   O     0.12708   0.56011   0.25001   0.00000  Uiso   1.00
O238   O     0.20627   0.56012   0.25001   0.00000  Uiso   1.00
O239   O     0.10775   0.49998   0.32549   0.00000  Uiso   1.00
O240   O     0.18694   0.49999   0.32549   0.00000  Uiso   1.00
O241   O     0.12706   0.43988   0.25000   0.00000  Uiso   1.00
O242   O     0.20625   0.43989   0.25000   0.00000  Uiso   1.00
O243   O     0.14640   0.50001   0.17451   0.00000  Uiso   1.00
O244   O     0.22559   0.50002   0.17451   0.00000  Uiso   1.00
C245   C     0.10796   0.62531   0.19116   0.00000  Uiso   1.00
O246   O     0.12489   0.59626   0.16174   0.00000  Uiso   1.00
O247   O     0.06159   0.64073   0.19448   0.00000  Uiso   1.00
H248   H     0.04528   0.62466   0.17167   0.00000  Uiso   1.00
O249   O     0.05914   0.43762   0.19665   0.00000  Uiso   1.00
H250   H     0.09288   0.44739   0.18142   0.00000  Uiso   1.00
C251   C     0.03251   0.50859   0.41547   0.00000  Uiso   1.00
O252   O     0.02370   0.47915   0.39081   0.00000  Uiso   1.00
O253   O     0.00146   0.54285   0.42600   0.00000  Uiso   1.00
H254   H     0.30703   0.53998   0.41011   0.00000  Uiso   1.00
O255   O     0.20045   0.43463   0.36919   0.00000  Uiso   1.00
H256   H     0.23170   0.41900   0.35850   0.00000  Uiso   1.00
C257   C     0.50071   0.57921   0.24770   0.00000  Uiso   1.00
C258   C     0.47924   0.49699   0.48902   0.00000  Uiso   1.00
C259   C     0.48917   0.48340   0.43615   0.00000  Uiso   1.00
C260   C     0.51552   0.49160   0.01463   0.00000  Uiso   1.00
C261   C     0.55994   0.47104   0.48822   0.00000  Uiso   1.00
C262   C     0.56689   0.45421   0.43850   0.00000  Uiso   1.00
C263   C     0.53100   0.45828   0.41329   0.00000  Uiso   1.00
C264   C     0.50835   0.50480   0.06654   0.00000  Uiso   1.00
C265   C     0.58670   0.47680   0.06551   0.00000  Uiso   1.00
C266   C     0.45576   0.49390   0.40841   0.00000  Uiso   1.00
C267   C     0.53293   0.64548   0.26688   0.00000  Uiso   1.00
C268   C     0.47328   0.49721   0.35027   0.00000  Uiso   1.00
C269   C     0.53259   0.35474   0.26836   0.00000  Uiso   1.00
C270   C     0.50023   0.37619   0.24847   0.00000  Uiso   1.00
C271   C     0.46933   0.35504   0.22545   0.00000  Uiso   1.00
C272   C     0.47066   0.64556   0.22161   0.00000  Uiso   1.00
C273   C     0.50169   0.62389   0.24445   0.00000  Uiso   1.00
C274   C     0.63457   0.52984   0.27649   0.00000  Uiso   1.00
C275   C     0.35077   0.52980   0.27655   0.00000  Uiso   1.00
C276   C     0.36449   0.46973   0.22370   0.00000  Uiso   1.00
C277   C     0.64845   0.46993   0.22438   0.00000  Uiso   1.00
C278   C     0.49994   0.42076   0.24988   0.00000  Uiso   1.00
C279   C     0.52644   0.49975   0.14987   0.00000  Uiso   1.00
C280   C     0.59579   0.46502   0.01330   0.00000  Uiso   1.00
C281   C     0.54199   0.49529   0.09276   0.00000  Uiso   1.00
C282   C     0.40745   0.50685   0.43736   0.00000  Uiso   1.00
C283   C     0.39708   0.51729   0.49004   0.00000  Uiso   1.00
C284   C     0.43261   0.51410   0.01496   0.00000  Uiso   1.00
Cu285  Cu    0.45311   0.49999   0.25000   0.00000  Uiso   1.00
Cu286  Cu    0.54689   0.50001   0.25000   0.00000  Uiso   1.00
H287   H     0.61337   0.46945   0.08522   0.00000  Uiso   1.00
H288   H     0.55694   0.37087   0.28594   0.00000  Uiso   1.00
H289   H     0.44582   0.37205   0.20824   0.00000  Uiso   1.00
H290   H     0.61006   0.55374   0.29786   0.00000  Uiso   1.00
H291   H     0.36336   0.55362   0.29799   0.00000  Uiso   1.00
H292   H     0.63524   0.44604   0.20354   0.00000  Uiso   1.00
H293   H     0.59943   0.43601   0.42019   0.00000  Uiso   1.00
H294   H     0.62983   0.44933   0.49332   0.00000  Uiso   1.00
H295   H     0.47607   0.52136   0.08862   0.00000  Uiso   1.00
H296   H     0.42097   0.52343   0.05552   0.00000  Uiso   1.00
H297   H     0.36080   0.52799   0.01245   0.00000  Uiso   1.00
H298   H     0.55705   0.62940   0.28423   0.00000  Uiso   1.00
N299   N     0.38265   0.49999   0.24999   0.00000  Uiso   1.00
N300   N     0.61735   0.50002   0.25000   0.00000  Uiso   1.00
O301   O     0.46042   0.56011   0.25001   0.00000  Uiso   1.00
O302   O     0.53961   0.56012   0.25001   0.00000  Uiso   1.00
O303   O     0.44108   0.49998   0.32549   0.00000  Uiso   1.00
O304   O     0.52027   0.49999   0.32549   0.00000  Uiso   1.00
O305   O     0.46039   0.43988   0.25000   0.00000  Uiso   1.00
O306   O     0.53958   0.43989   0.25000   0.00000  Uiso   1.00
O307   O     0.47973   0.50001   0.17451   0.00000  Uiso   1.00
O308   O     0.55892   0.50002   0.17451   0.00000  Uiso   1.00
C309   C     0.44130   0.62531   0.19116   0.00000  Uiso   1.00
O310   O     0.45823   0.59626   0.16174   0.00000  Uiso   1.00
O311   O     0.39492   0.64073   0.19448   0.00000  Uiso   1.00
H312   H     0.37861   0.62466   0.17167   0.00000  Uiso   1.00
O313   O     0.39247   0.43762   0.19665   0.00000  Uiso   1.00
H314   H     0.42621   0.44739   0.18142   0.00000  Uiso   1.00
C315   C     0.36585   0.50859   0.41547   0.00000  Uiso   1.00
O316   O     0.35704   0.47915   0.39081   0.00000  Uiso   1.00
O317   O     0.33479   0.54285   0.42600   0.00000  Uiso   1.00
H318   H     0.64036   0.53998   0.41011   0.00000  Uiso   1.00
O319   O     0.53379   0.43463   0.36919   0.00000  Uiso   1.00
H320   H     0.56503   0.41900   0.35850   0.00000  Uiso   1.00
C321   C     0.83405   0.57921   0.24770   0.00000  Uiso   1.00
C322   C     0.81257   0.49699   0.48902   0.00000  Uiso   1.00
C323   C     0.82251   0.48340   0.43615   0.00000  Uiso   1.00
C324   C     0.84885   0.49160   0.01463   0.00000  Uiso   1.00
C325   C     0.89327   0.47104   0.48822   0.00000  Uiso   1.00
C326   C     0.90023   0.45421   0.43850   0.00000  Uiso   1.00
C327   C     0.86433   0.45828   0.41329   0.00000  Uiso   1.00
C328   C     0.84169   0.50480   0.06654   0.00000  Uiso   1.00
C329   C     0.92003   0.47680   0.06551   0.00000  Uiso   1.00
C330   C     0.78909   0.49390   0.40841   0.00000  Uiso   1.00
C331   C     0.86626   0.64548   0.26688   0.00000  Uiso   1.00
C332   C     0.80661   0.49721   0.35027   0.00000  Uiso   1.00
C333   C     0.86592   0.35474   0.26836   0.00000  Uiso   1.00
C334   C     0.83356   0.37619   0.24847   0.00000  Uiso   1.00
C335   C     0.80266   0.35504   0.22545   0.00000  Uiso   1.00
C336   C     0.80399   0.64556   0.22161   0.00000  Uiso   1.00
C337   C     0.83502   0.62389   0.24445   0.00000  Uiso   1.00
C338   C     0.96790   0.52984   0.27649   0.00000  Uiso   1.00
C339   C     0.68410   0.52980   0.27655   0.00000  Uiso   1.00
C340   C     0.69783   0.46973   0.22370   0.00000  Uiso   1.00
C341   C     0.98178   0.46993   0.22438   0.00000  Uiso   1.00
C342   C     0.83327   0.42076   0.24988   0.00000  Uiso   1.00
C343   C     0.85977   0.49975   0.14987   0.00000  Uiso   1.00
C344   C     0.92912   0.46502   0.01330   0.00000  Uiso   1.00
C345   C     0.87532   0.49529   0.09276   0.00000  Uiso   1.00
C346   C     0.74078   0.50685   0.43736   0.00000  Uiso   1.00
C347   C     0.73041   0.51729   0.49004   0.00000  Uiso   1.00
C348   C     0.76595   0.51410   0.01496   0.00000  Uiso   1.00
Cu349  Cu    0.78645   0.49999   0.25000   0.00000  Uiso   1.00
Cu350  Cu    0.88022   0.50001   0.25000   0.00000  Uiso   1.00
H351   H     0.94671   0.46945   0.08522   0.00000  Uiso   1.00
H352   H     0.89027   0.37087   0.28594   0.00000  Uiso   1.00
H353   H     0.77915   0.37205   0.20824   0.00000  Uiso   1.00
H354   H     0.94339   0.55374   0.29786   0.00000  Uiso   1.00
H355   H     0.69669   0.55362   0.29799   0.00000  Uiso   1.00
H356   H     0.96857   0.44604   0.20354   0.00000  Uiso   1.00
H357   H     0.93276   0.43601   0.42019   0.00000  Uiso   1.00
H358   H     0.96317   0.44933   0.49332   0.00000  Uiso   1.00
H359   H     0.80940   0.52136   0.08862   0.00000  Uiso   1.00
H360   H     0.75431   0.52343   0.05552   0.00000  Uiso   1.00
H361   H     0.69413   0.52799   0.01245   0.00000  Uiso   1.00
H362   H     0.89038   0.62940   0.28423   0.00000  Uiso   1.00
N363   N     0.71598   0.49999   0.24999   0.00000  Uiso   1.00
N364   N     0.95069   0.50002   0.25000   0.00000  Uiso   1.00
O365   O     0.79375   0.56011   0.25001   0.00000  Uiso   1.00
O366   O     0.87294   0.56012   0.25001   0.00000  Uiso   1.00
O367   O     0.77441   0.49998   0.32549   0.00000  Uiso   1.00
O368   O     0.85360   0.49999   0.32549   0.00000  Uiso   1.00
O369   O     0.79373   0.43988   0.25000   0.00000  Uiso   1.00
O370   O     0.87292   0.43989   0.25000   0.00000  Uiso   1.00
O371   O     0.81306   0.50001   0.17451   0.00000  Uiso   1.00
O372   O     0.89225   0.50002   0.17451   0.00000  Uiso   1.00
C373   C     0.77463   0.62531   0.19116   0.00000  Uiso   1.00
O374   O     0.79156   0.59626   0.16174   0.00000  Uiso   1.00
O375   O     0.72826   0.64073   0.19448   0.00000  Uiso   1.00
H376   H     0.71194   0.62466   0.17167   0.00000  Uiso   1.00
O377   O     0.72580   0.43762   0.19665   0.00000  Uiso   1.00
H378   H     0.75955   0.44739   0.18142   0.00000  Uiso   1.00
C379   C     0.69918   0.50859   0.41547   0.00000  Uiso   1.00
O380   O     0.69037   0.47915   0.39081   0.00000  Uiso   1.00
O381   O     0.66812   0.54285   0.42600   0.00000  Uiso   1.00
H382   H     0.97370   0.53998   0.41011   0.00000  Uiso   1.00
O383   O     0.86712   0.43463   0.36919   0.00000  Uiso   1.00
H384   H     0.89836   0.41900   0.35850   0.00000  Uiso   1.00
C385   C     0.16738   0.91254   0.24770   0.00000  Uiso   1.00
C386   C     0.14591   0.83032   0.48902   0.00000  Uiso   1.00
C387   C     0.15584   0.81674   0.43615   0.00000  Uiso   1.00
C388   C     0.18218   0.82494   0.01463   0.00000  Uiso   1.00
C389   C     0.22661   0.80437   0.48822   0.00000  Uiso   1.00
C390   C     0.23356   0.78754   0.43850   0.00000  Uiso   1.00
C391   C     0.19767   0.79162   0.41329   0.00000  Uiso   1.00
C392   C     0.17502   0.83813   0.06654   0.00000  Uiso   1.00
C393   C     0.25337   0.81013   0.06551   0.00000  Uiso   1.00
C394   C     0.12242   0.82724   0.40841   0.00000  Uiso   1.00
C395   C     0.19960   0.97881   0.26688   0.00000  Uiso   1.00
C396   C     0.13994   0.83054   0.35027   0.00000  Uiso   1.00
C397   C     0.19925   0.68808   0.26836   0.00000  Uiso   1.00
C398   C     0.16690   0.70952   0.24847   0.00000  Uiso   1.00
C399   C     0.13599   0.68837   0.22545   0.00000  Uiso   1.00
C400   C     0.13732   0.97889   0.22161   0.00000  Uiso   1.00
C401   C     0.16836   0.95722   0.24445   0.00000  Uiso   1.00
C402   C     0.30124   0.86317   0.27649   0.00000  Uiso   1.00
C403   C     0.01743   0.86314   0.27655   0.00000  Uiso   1.00
C404   C     0.03116   0.80306   0.22370   0.00000  Uiso   1.00
C405   C     0.31512   0.80327   0.22438   0.00000  Uiso   1.00
C406   C     0.16660   0.75409   0.24988   0.00000  Uiso   1.00
C407   C     0.19311   0.83308   0.14987   0.00000  Uiso   1.00
C408   C     0.26246   0.79836   0.01330   0.00000  Uiso   1.00
C409   C     0.20866   0.82862   0.09276   0.00000  Uiso   1.00
C410   C     0.07411   0.84018   0.43736   0.00000  Uiso   1.00
C411   C     0.06375   0.85063   0.49004   0.00000  Uiso   1.00
C412   C     0.09928   0.84743   0.01496   0.00000  Uiso   1.00
Cu413  Cu    0.11978   0.83333   0.25000   0.00000  Uiso   1.00
Cu414  Cu    0.21355   0.83334   0.25000   0.00000  Uiso   1.00
H415   H     0.28004   0.80279   0.08522   0.00000  Uiso   1.00
H416   H     0.22360   0.70420   0.28594   0.00000  Uiso   1.00
H417   H     0.11248   0.70538   0.20824   0.00000  Uiso   1.00
H418   H     0.27672   0.88708   0.29786   0.00000  Uiso   1.00
H419   H     0.03003   0.88695   0.29799   0.00000  Uiso   1.00
H420   H     0.30191   0.77937   0.20354   0.00000  Uiso   1.00
H421   H     0.26610   0.76934   0.42019   0.00000  Uiso   1.00
H422   H     0.29650   0.78266   0.49332   0.00000  Uiso   1.00
H423   H     0.14274   0.85470   0.08862   0.00000  Uiso   1.00
H424   H     0.08764   0.85676   0.05552   0.00000  Uiso   1.00
H425   H     0.02746   0.86132   0.01245   0.00000  Uiso   1.00
H426   H     0.22372   0.96273   0.28423   0.00000  Uiso   1.00
N427   N     0.04931   0.83332   0.24999   0.00000  Uiso   1.00
N428   N     0.28402   0.83335   0.25000   0.00000  Uiso   1.00
O429   O     0.12708   0.89345   0.25001   0.00000  Uiso   1.00
O430   O     0.20627   0.89346   0.25001   0.00000  Uiso   1.00
O431   O     0.10775   0.83332   0.32549   0.00000  Uiso   1.00
O432   O     0.18694   0.83333   0.32549   0.00000  Uiso   1.00
O433   O     0.12706   0.77321   0.25000   0.00000  Uiso   1.00
O434   O     0.20625   0.77322   0.25000   0.00000  Uiso   1.00
O435   O     0.14640   0.83334   0.17451   0.00000  Uiso   1.00
O436   O     0.22559   0.83335   0.17451   0.00000  Uiso   1.00
C437   C     0.10796   0.95864   0.19116   0.00000  Uiso   1.00
O438   O     0.12489   0.92959   0.16174   0.00000  Uiso   1.00
O439   O     0.06159   0.97406   0.19448   0.00000  Uiso   1.00
H440   H     0.04528   0.95799   0.17167   0.00000  Uiso   1.00
O441   O     0.05914   0.77095   0.19665   0.00000  Uiso   1.00
H442   H     0.09288   0.78072   0.18142   0.00000  Uiso   1.00
C443   C     0.03251   0.84193   0.41547   0.00000  Uiso   1.00
O444   O     0.02370   0.81248   0.39081   0.00000  Uiso   1.00
O445   O     0.00146   0.87618   0.42600   0.00000  Uiso   1.00
H446   H     0.30703   0.87331   0.41011   0.00000  Uiso   1.00
O447   O     0.20045   0.76796   0.36919   0.00000  Uiso   1.00
H448   H     0.23170   0.75233   0.35850   0.00000  Uiso   1.00
C449   C     0.50071   0.91254   0.24770   0.00000  Uiso   1.00
C450   C     0.47924   0.83032   0.48902   0.00000  Uiso   1.00
C451   C     0.48917   0.81674   0.43615   0.00000  Uiso   1.00
C452   C     0.51552   0.82494   0.01463   0.00000  Uiso   1.00
C453   C     0.55994   0.80437   0.48822   0.00000  Uiso   1.00
C454   C     0.56689   0.78754   0.43850   0.00000  Uiso   1.00
C455   C     0.53100   0.79162   0.41329   0.00000  Uiso   1.00
C456   C     0.50835   0.83813   0.06654   0.00000  Uiso   1.00
C457   C     0.58670   0.81013   0.06551   0.00000  Uiso   1.00
C458   C     0.45576   0.82724   0.40841   0.00000  Uiso   1.00
C459   C     0.53293   0.97881   0.26688   0.00000  Uiso   1.00
C460   C     0.47328   0.83054   0.35027   0.00000  Uiso   1.00
C461   C     0.53259   0.68808   0.26836   0.00000  Uiso   1.00
C462   C     0.50023   0.70952   0.24847   0.00000  Uiso   1.00
C463   C     0.46933   0.68837   0.22545   0.00000  Uiso   1.00
C464   C     0.47066   0.97889   0.22161   0.00000  Uiso   1.00
C465   C     0.50169   0.95722   0.24445   0.00000  Uiso   1.00
C466   C     0.63457   0.86317   0.27649   0.00000  Uiso   1.00
C467   C     0.35077   0.86314   0.27655   0.00000  Uiso   1.00
C468   C     0.36449   0.80306   0.22370   0.00000  Uiso   1.00
C469   C     0.64845   0.80327   0.22438   0.00000  Uiso   1.00
C470   C     0.49994   0.75409   0.24988   0.00000  Uiso   1.00
C471   C     0.52644   0.83308   0.14987   0.00000  Uiso   1.00
C472   C     0.59579   0.79836   0.01330   0.00000  Uiso   1.00
C473   C     0.54199   0.82862   0.09276   0.00000  Uiso   1.00
C474   C     0.40745   0.84018   0.43736   0.00000  Uiso   1.00
C475   C     0.39708   0.85063   0.49004   0.00000  Uiso   1.00
C476   C     0.43261   0.84743   0.01496   0.00000  Uiso   1.00
Cu477  Cu    0.45311   0.83333   0.25000   0.00000  Uiso   1.00
Cu478  Cu    0.54689   0.83334   0.25000   0.00000  Uiso   1.00
H479   H     0.61337   0.80279   0.08522   0.00000  Uiso   1.00
H480   H     0.55694   0.70420   0.28594   0.00000  Uiso   1.00
H481   H     0.44582   0.70538   0.20824   0.00000  Uiso   1.00
H482   H     0.61006   0.88708   0.29786   0.00000  Uiso   1.00
H483   H     0.36336   0.88695   0.29799   0.00000  Uiso   1.00
H484   H     0.63524   0.77937   0.20354   0.00000  Uiso   1.00
H485   H     0.59943   0.76934   0.42019   0.00000  Uiso   1.00
H486   H     0.62983   0.78266   0.49332   0.00000  Uiso   1.00
H487   H     0.47607   0.85470   0.08862   0.00000  Uiso   1.00
H488   H     0.42097   0.85676   0.05552   0.00000  Uiso   1.00
H489   H     0.36080   0.86132   0.01245   0.00000  Uiso   1.00
H490   H     0.55705   0.96273   0.28423   0.00000  Uiso   1.00
N491   N     0.38265   0.83332   0.24999   0.00000  Uiso   1.00
N492   N     0.61735   0.83335   0.25000   0.00000  Uiso   1.00
O493   O     0.46042   0.89345   0.25001   0.00000  Uiso   1.00
O494   O     0.53961   0.89346   0.25001   0.00000  Uiso   1.00
O495   O     0.44108   0.83332   0.32549   0.00000  Uiso   1.00
O496   O     0.52027   0.83333   0.32549   0.00000  Uiso   1.00
O497   O     0.46039   0.77321   0.25000   0.00000  Uiso   1.00
O498   O     0.53958   0.77322   0.25000   0.00000  Uiso   1.00
O499   O     0.47973   0.83334   0.17451   0.00000  Uiso   1.00
O500   O     0.55892   0.83335   0.17451   0.00000  Uiso   1.00
C501   C     0.44130   0.95864   0.19116   0.00000  Uiso   1.00
O502   O     0.45823   0.92959   0.16174   0.00000  Uiso   1.00
O503   O     0.39492   0.97406   0.19448   0.00000  Uiso   1.00
H504   H     0.37861   0.95799   0.17167   0.00000  Uiso   1.00
O505   O     0.39247   0.77095   0.19665   0.00000  Uiso   1.00
H506   H     0.42621   0.78072   0.18142   0.00000  Uiso   1.00
C507   C     0.36585   0.84193   0.41547   0.00000  Uiso   1.00
O508   O     0.35704   0.81248   0.39081   0.00000  Uiso   1.00
O509   O     0.33479   0.87618   0.42600   0.00000  Uiso   1.00
H510   H     0.64036   0.87331   0.41011   0.00000  Uiso   1.00
O511   O     0.53379   0.76796   0.36919   0.00000  Uiso   1.00
H512   H     0.56503   0.75233   0.35850   0.00000  Uiso   1.00
C513   C     0.83405   0.91254   0.24770   0.00000  Uiso   1.00
C514   C     0.81257   0.83032   0.48902   0.00000  Uiso   1.00
C515   C     0.82251   0.81674   0.43615   0.00000  Uiso   1.00
C516   C     0.84885   0.82494   0.01463   0.00000  Uiso   1.00
C517   C     0.89327   0.80437   0.48822   0.00000  Uiso   1.00
C518   C     0.90023   0.78754   0.43850   0.00000  Uiso   1.00
C519   C     0.86433   0.79162   0.41329   0.00000  Uiso   1.00
C520   C     0.84169   0.83813   0.06654   0.00000  Uiso   1.00
C521   C     0.92003   0.81013   0.06551   0.00000  Uiso   1.00
C522   C     0.78909   0.82724   0.40841   0.00000  Uiso   1.00
C523   C     0.86626   0.97881   0.26688   0.00000  Uiso   1.00
C524   C     0.80661   0.83054   0.35027   0.00000  Uiso   1.00
C525   C     0.86592   0.68808   0.26836   0.00000  Uiso   1.00
C526   C     0.83356   0.70952   0.24847   0.00000  Uiso   1.00
C527   C     0.80266   0.68837   0.22545   0.00000  Uiso   1.00
C528   C     0.80399   0.97889   0.22161   0.00000  Uiso   1.00
C529   C     0.83502   0.95722   0.24445   0.00000  Uiso   1.00
C530   C     0.96790   0.86317   0.27649   0.00000  Uiso   1.00
C531   C     0.68410   0.86314   0.27655   0.00000  Uiso   1.00
C532   C     0.69783   0.80306   0.22370   0.00000  Uiso   1.00
C533   C     0.98178   0.80327   0.22438   0.00000  Uiso   1.00
C534   C     0.83327   0.75409   0.24988   0.00000  Uiso   1.00
C535   C     0.85977   0.83308   0.14987   0.00000  Uiso   1.00
C536   C     0.92912   0.79836   0.01330   0.00000  Uiso   1.00
C537   C     0.87532   0.82862   0.09276   0.00000  Uiso   1.00
C538   C     0.74078   0.84018   0.43736   0.00000  Uiso   1.00
C539   C     0.73041   0.85063   0.49004   0.00000  Uiso   1.00
C540   C     0.76595   0.84743   0.01496   0.00000  Uiso   1.00
Cu541  Cu    0.78645   0.83333   0.25000   0.00000  Uiso   1.00
Cu542  Cu    0.88022   0.83334   0.25000   0.00000  Uiso   1.00
H543   H     0.94671   0.80279   0.08522   0.00000  Uiso   1.00
H544   H     0.89027   0.70420   0.28594   0.00000  Uiso   1.00
H545   H     0.77915   0.70538   0.20824   0.00000  Uiso   1.00
H546   H     0.94339   0.88708   0.29786   0.00000  Uiso   1.00
H547   H     0.69669   0.88695   0.29799   0.00000  Uiso   1.00
H548   H     0.96857   0.77937   0.20354   0.00000  Uiso   1.00
H549   H     0.93276   0.76934   0.42019   0.00000  Uiso   1.00
H550   H     0.96317   0.78266   0.49332   0.00000  Uiso   1.00
H551   H     0.80940   0.85470   0.08862   0.00000  Uiso   1.00
H552   H     0.75431   0.85676   0.05552   0.00000  Uiso   1.00
H553   H     0.69413   0.86132   0.01245   0.00000  Uiso   1.00
H554   H     0.89038   0.96273   0.28423   0.00000  Uiso   1.00
N555   N     0.71598   0.83332   0.24999   0.00000  Uiso   1.00
N556   N     0.95069   0.83335   0.25000   0.00000  Uiso   1.00
O557   O     0.79375   0.89345   0.25001   0.00000  Uiso   1.00
O558   O     0.87294   0.89346   0.25001   0.00000  Uiso   1.00
O559   O     0.77441   0.83332   0.32549   0.00000  Uiso   1.00
O560   O     0.85360   0.83333   0.32549   0.00000  Uiso   1.00
O561   O     0.79373   0.77321   0.25000   0.00000  Uiso   1.00
O562   O     0.87292   0.77322   0.25000   0.00000  Uiso   1.00
O563   O     0.81306   0.83334   0.17451   0.00000  Uiso   1.00
O564   O     0.89225   0.83335   0.17451   0.00000  Uiso   1.00
C565   C     0.77463   0.95864   0.19116   0.00000  Uiso   1.00
O566   O     0.79156   0.92959   0.16174   0.00000  Uiso   1.00
O567   O     0.72826   0.97406   0.19448   0.00000  Uiso   1.00
H568   H     0.71194   0.95799   0.17167   0.00000  Uiso   1.00
O569   O     0.72580   0.77095   0.19665   0.00000  Uiso   1.00
H570   H     0.75955   0.78072   0.18142   0.00000  Uiso   1.00
C571   C     0.69918   0.84193   0.41547   0.00000  Uiso   1.00
O572   O     0.69037   0.81248   0.39081   0.00000  Uiso   1.00
O573   O     0.66812   0.87618   0.42600   0.00000  Uiso   1.00
H574   H     0.97370   0.87331   0.41011   0.00000  Uiso   1.00
O575   O     0.86712   0.76796   0.36919   0.00000  Uiso   1.00
H576   H     0.89836   0.75233   0.35850   0.00000  Uiso   1.00
C577   C     0.16738   0.24587   0.74770   0.00000  Uiso   1.00
C578   C     0.14591   0.16366   0.98902   0.00000  Uiso   1.00
C579   C     0.15584   0.15007   0.93615   0.00000  Uiso   1.00
C580   C     0.18218   0.15827   0.51463   0.00000  Uiso   1.00
C581   C     0.22661   0.13771   0.98822   0.00000  Uiso   1.00
C582   C     0.23356   0.12088   0.93850   0.00000  Uiso   1.00
C583   C     0.19767   0.12495   0.91329   0.00000  Uiso   1.00
C584   C     0.17502   0.17146   0.56654   0.00000  Uiso   1.00
C585   C     0.25337   0.14347   0.56551   0.00000  Uiso   1.00
C586   C     0.12242   0.16057   0.90841   0.00000  Uiso   1.00
C587   C     0.19960   0.31215   0.76688   0.00000  Uiso   1.00
C588   C     0.13994   0.16387   0.85027   0.00000  Uiso   1.00
C589   C     0.19925   0.02141   0.76836   0.00000  Uiso   1.00
C590   C     0.16690   0.04286   0.74847   0.00000  Uiso   1.00
C591   C     0.13599   0.02171   0.72545   0.00000  Uiso   1.00
C592   C     0.13732   0.31222   0.72161   0.00000  Uiso   1.00
C593   C     0.16836   0.29055   0.74445   0.00000  Uiso   1.00
C594   C     0.30124   0.19651   0.77649   0.00000  Uiso   1.00
C595   C     0.01743   0.19647   0.77655   0.00000  Uiso   1.00
C596   C     0.03116   0.13640   0.72370   0.00000  Uiso   1.00
C597   C     0.31512   0.13660   0.72438   0.00000  Uiso   1.00
C598   C     0.16660   0.08743   0.74988   0.00000  Uiso   1.00
C599   C     0.19311   0.16642   0.64987   0.00000  Uiso   1.00
C600   C     0.26246   0.13169   0.51330   0.00000  Uiso   1.00
C601   C     0.20866   0.16196   0.59276   0.00000  Uiso   1.00
C602   C     0.07411   0.17352   0.93736   0.00000  Uiso   1.00
C603   C     0.06375   0.18396   0.99004   0.00000  Uiso   1.00
C604   C     0.09928   0.18077   0.51496   0.00000  Uiso   1.00
Cu605  Cu    0.11978   0.16666   0.75000   0.00000  Uiso   1.00
Cu606  Cu    0.21355   0.16667   0.75000   0.00000  Uiso   1.00
H607   H     0.28004   0.13612   0.58522   0.00000  Uiso   1.00
H608   H     0.22360   0.03753   0.78594   0.00000  Uiso   1.00
H609   H     0.11248   0.03871   0.70824   0.00000  Uiso   1.00
H610   H     0.27672   0.22041   0.79786   0.00000  Uiso   1.00
H611   H     0.03003   0.22028   0.79799   0.00000  Uiso   1.00
H612   H     0.30191   0.11270   0.70354   0.00000  Uiso   1.00
H613   H     0.26610   0.10267   0.92019   0.00000  Uiso   1.00
H614   H     0.29650   0.11599   0.99332   0.00000  Uiso   1.00
H615   H     0.14274   0.18803   0.58862   0.00000  Uiso   1.00
H616   H     0.08764   0.19010   0.55552   0.00000  Uiso   1.00
H617   H     0.02746   0.19466   0.51245   0.00000  Uiso   1.00
H618   H     0.22372   0.29607   0.78423   0.00000  Uiso   1.00
N619   N     0.04931   0.16666   0.74999   0.00000  Uiso   1.00
N620   N     0.28402   0.16669   0.75000   0.00000  Uiso   1.00
O621   O     0.12708   0.22678   0.75001   0.00000  Uiso   1.00
O622   O     0.20627   0.22679   0.75001   0.00000  Uiso   1.00
O623   O     0.10775   0.16665   0.82549   0.00000  Uiso   1.00
O624   O     0.18694   0.16666   0.82549   0.00000  Uiso   1.00
O625   O     0.12706   0.10654   0.75000   0.00000  Uiso   1.00
O626   O     0.20625   0.10655   0.75000   0.00000  Uiso   1.00
O627   O     0.14640   0.16667   0.67451   0.00000  Uiso   1.00
O628   O     0.22559   0.16668   0.67451   0.00000  Uiso   1.00
C629   C     0.10796   0.29197   0.69116   0.00000  Uiso   1.00
O630   O     0.12489   0.26293   0.66174   0.00000  Uiso   1.00
O631   O     0.06159   0.30740   0.69448   0.00000  Uiso   1.00
H632   H     0.04528   0.29133   0.67167   0.00000  Uiso   1.00
O633   O     0.05914   0.10428   0.69665   0.00000  Uiso   1.00
H634   H     0.09288   0.11406   0.68142   0.00000  Uiso   1.00
C635   C     0.03251   0.17526   0.91547   0.00000  Uiso   1.00
O636   O     0.02370   0.14581   0.89081   0.00000  Uiso   1.00
O637   O     0.00146   0.20952   0.92600   0.00000  Uiso   1.00
H638   H     0.30703   0.20664   0.91011   0.00000  Uiso   1.00
O639   O     0.20045   0.10129   0.86919   0.00000  Uiso   1.00
H640   H     0.23170   0.08566   0.85850   0.00000  Uiso   1.00
C641   C     0.50071   0.24587   0.74770   0.00000  Uiso   1.00
C642   C     0.47924   0.16366   0.98902   0.00000  Uiso   1.00
C643   C     0.48917   0.15007   0.93615   0.00000  Uiso   1.00
C644   C     0.51552   0.15827   0.51463   0.00000  Uiso   1.00
C645   C     0.55994   0.13771   0.98822   0.00000  Uiso   1.00
C646   C     0.56689   0.12088   0.93850   0.00000  Uiso   1.00
C647   C     0.53100   0.12495   0.91329   0.00000  Uiso   1.00
C648   C     0.50835   0.17146   0.56654   0.00000  Uiso   1.00
C649   C     0.58670   0.14347   0.56551   0.00000  Uiso   1.00
C650   C     0.45576   0.16057   0.90841   0.00000  Uiso   1.00
C651   C     0.53293   0.31215   0.76688   0.00000  Uiso   1.00
C652   C     0.47328   0.16387   0.85027   0.00000  Uiso   1.00
C653   C     0.53259   0.02141   0.76836   0.00000  Uiso   1.00
C654   C     0.50023   0.04286   0.74847   0.00000  Uiso   1.00
C655   C     0.46933   0.02171   0.72545   0.00000  Uiso   1.00
C656   C     0.47066   0.31222   0.72161   0.00000  Uiso   1.00
C657   C     0.50169   0.29055   0.74445   0.00000  Uiso   1.00
C658   C     0.63457   0.19651   0.77649   0.00000  Uiso   1.00
C659   C     0.35077   0.19647   0.77655   0.00000  Uiso   1.00
C660   C     0.36449   0.13640   0.72370   0.00000  Uiso   1.00
C661   C     0.64845   0.13660   0.72438   0.00000  Uiso   1.00
C662   C     0.49994   0.08743   0.74988   0.00000  Uiso   1.00
C663   C     0.52644   0.16642   0.64987   0.00000  Uiso   1.00
C664   C     0.59579   0.13169   0.51330   0.00000  Uiso   1.00
C665   C     0.54199   0.16196   0.59276   0.00000  Uiso   1.00
C666   C     0.40745   0.17352   0.93736   0.00000  Uiso   1.00
C667   C     0.39708   0.18396   0.99004   0.00000  Uiso   1.00
C668   C     0.43261   0.18077   0.51496   0.00000  Uiso   1.00
Cu669  Cu    0.45311   0.16666   0.75000   0.00000  Uiso   1.00
Cu670  Cu    0.54689   0.16667   0.75000   0.00000  Uiso   1.00
H671   H     0.61337   0.13612   0.58522   0.00000  Uiso   1.00
H672   H     0.55694   0.03753   0.78594   0.00000  Uiso   1.00
H673   H     0.44582   0.03871   0.70824   0.00000  Uiso   1.00
H674   H     0.61006   0.22041   0.79786   0.00000  Uiso   1.00
H675   H     0.36336   0.22028   0.79799   0.00000  Uiso   1.00
H676   H     0.63524   0.11270   0.70354   0.00000  Uiso   1.00
H677   H     0.59943   0.10267   0.92019   0.00000  Uiso   1.00
H678   H     0.62983   0.11599   0.99332   0.00000  Uiso   1.00
H679   H     0.47607   0.18803   0.58862   0.00000  Uiso   1.00
H680   H     0.42097   0.19010   0.55552   0.00000  Uiso   1.00
H681   H     0.36080   0.19466   0.51245   0.00000  Uiso   1.00
H682   H     0.55705   0.29607   0.78423   0.00000  Uiso   1.00
N683   N     0.38265   0.16666   0.74999   0.00000  Uiso   1.00
N684   N     0.61735   0.16669   0.75000   0.00000  Uiso   1.00
O685   O     0.46042   0.22678   0.75001   0.00000  Uiso   1.00
O686   O     0.53961   0.22679   0.75001   0.00000  Uiso   1.00
O687   O     0.44108   0.16665   0.82549   0.00000  Uiso   1.00
O688   O     0.52027   0.16666   0.82549   0.00000  Uiso   1.00
O689   O     0.46039   0.10654   0.75000   0.00000  Uiso   1.00
O690   O     0.53958   0.10655   0.75000   0.00000  Uiso   1.00
O691   O     0.47973   0.16667   0.67451   0.00000  Uiso   1.00
O692   O     0.55892   0.16668   0.67451   0.00000  Uiso   1.00
C693   C     0.44130   0.29197   0.69116   0.00000  Uiso   1.00
O694   O     0.45823   0.26293   0.66174   0.00000  Uiso   1.00
O695   O     0.39492   0.30740   0.69448   0.00000  Uiso   1.00
H696   H     0.37861   0.29133   0.67167   0.00000  Uiso   1.00
O697   O     0.39247   0.10428   0.69665   0.00000  Uiso   1.00
H698   H     0.42621   0.11406   0.68142   0.00000  Uiso   1.00
C699   C     0.36585   0.17526   0.91547   0.00000  Uiso   1.00
O700   O     0.35704   0.14581   0.89081   0.00000  Uiso   1.00
O701   O     0.33479   0.20952   0.92600   0.00000  Uiso   1.00
H702   H     0.64036   0.20664   0.91011   0.00000  Uiso   1.00
O703   O     0.53379   0.10129   0.86919   0.00000  Uiso   1.00
H704   H     0.56503   0.08566   0.85850   0.00000  Uiso   1.00
C705   C     0.83405   0.24587   0.74770   0.00000  Uiso   1.00
C706   C     0.81257   0.16366   0.98902   0.00000  Uiso   1.00
C707   C     0.82251   0.15007   0.93615   0.00000  Uiso   1.00
C708   C     0.84885   0.15827   0.51463   0.00000  Uiso   1.00
C709   C     0.89327   0.13771   0.98822   0.00000  Uiso   1.00
C710   C     0.90023   0.12088   0.93850   0.00000  Uiso   1.00
C711   C     0.86433   0.12495   0.91329   0.00000  Uiso   1.00
C712   C     0.84169   0.17146   0.56654   0.00000  Uiso   1.00
C713   C     0.92003   0.14347   0.56551   0.00000  Uiso   1.00
C714   C     0.78909   0.16057   0.90841   0.00000  Uiso   1.00
C715   C     0.86626   0.31215   0.76688   0.00000  Uiso   1.00
C716   C     0.80661   0.16387   0.85027   0.00000  Uiso   1.00
C717   C     0.86592   0.02141   0.76836   0.00000  Uiso   1.00
C718   C     0.83356   0.04286   0.74847   0.00000  Uiso   1.00
C719   C     0.80266   0.02171   0.72545   0.00000  Uiso   1.00
C720   C     0.80399   0.31222   0.72161   0.00000  Uiso   1.00
C721   C     0.83502   0.29055   0.74445   0.00000  Uiso   1.00
C722   C     0.96790   0.19651   0.77649   0.00000  Uiso   1.00
C723   C     0.68410   0.19647   0.77655   0.00000  Uiso   1.00
C724   C     0.69783   0.13640   0.72370   0.00000  Uiso   1.00
C725   C     0.98178   0.13660   0.72438   0.00000  Uiso   1.00
C726   C     0.83327   0.08743   0.74988   0.00000  Uiso   1.00
C727   C     0.85977   0.16642   0.64987   0.00000  Uiso   1.00
C728   C     0.92912   0.13169   0.51330   0.00000  Uiso   1.00
C729   C     0.87532   0.16196   0.59276   0.00000  Uiso   1.00
C730   C     0.74078   0.17352   0.93736   0.00000  Uiso   1.00
C731   C     0.73041   0.18396   0.99004   0.00000  Uiso   1.00
C732   C     0.76595   0.18077   0.51496   0.00000  Uiso   1.00
Cu733  Cu    0.78645   0.16666   0.75000   0.00000  Uiso   1.00
Cu734  Cu    0.88022   0.16667   0.75000   0.00000  Uiso   1.00
H735   H     0.94671   0.13612   0.58522   0.00000  Uiso   1.00
H736   H     0.89027   0.03753   0.78594   0.00000  Uiso   1.00
H737   H     0.77915   0.03871   0.70824   0.00000  Uiso   1.00
H738   H     0.94339   0.22041   0.79786   0.00000  Uiso   1.00
H739   H     0.69669   0.22028   0.79799   0.00000  Uiso   1.00
H740   H     0.96857   0.11270   0.70354   0.00000  Uiso   1.00
H741   H     0.93276   0.10267   0.92019   0.00000  Uiso   1.00
H742   H     0.96317   0.11599   0.99332   0.00000  Uiso   1.00
H743   H     0.80940   0.18803   0.58862   0.00000  Uiso   1.00
H744   H     0.75431   0.19010   0.55552   0.00000  Uiso   1.00
H745   H     0.69413   0.19466   0.51245   0.00000  Uiso   1.00
H746   H     0.89038   0.29607   0.78423   0.00000  Uiso   1.00
N747   N     0.71598   0.16666   0.74999   0.00000  Uiso   1.00
N748   N     0.95069   0.16669   0.75000   0.00000  Uiso   1.00
O749   O     0.79375   0.22678   0.75001   0.00000  Uiso   1.00
O750   O     0.87294   0.22679   0.75001   0.00000  Uiso   1.00
O751   O     0.77441   0.16665   0.82549   0.00000  Uiso   1.00
O752   O     0.85360   0.16666   0.82549   0.00000  Uiso   1.00
O753   O     0.79373   0.10654   0.75000   0.00000  Uiso   1.00
O754   O     0.87292   0.10655   0.75000   0.00000  Uiso   1.00
O755   O     0.81306   0.16667   0.67451   0.00000  Uiso   1.00
O756   O     0.89225   0.16668   0.67451   0.00000  Uiso   1.00
C757   C     0.77463   0.29197   0.69116   0.00000  Uiso   1.00
O758   O     0.79156   0.26293   0.66174   0.00000  Uiso   1.00
O759   O     0.72826   0.30740   0.69448   0.00000  Uiso   1.00
H760   H     0.71194   0.29133   0.67167   0.00000  Uiso   1.00
O761   O     0.72580   0.10428   0.69665   0.00000  Uiso   1.00
H762   H     0.75955   0.11406   0.68142   0.00000  Uiso   1.00
C763   C     0.69918   0.17526   0.91547   0.00000  Uiso   1.00
O764   O     0.69037   0.14581   0.89081   0.00000  Uiso   1.00
O765   O     0.66812   0.20952   0.92600   0.00000  Uiso   1.00
H766   H     0.97370   0.20664   0.91011   0.00000  Uiso   1.00
O767   O     0.86712   0.10129   0.86919   0.00000  Uiso   1.00
H768   H     0.89836   0.08566   0.85850   0.00000  Uiso   1.00
C769   C     0.16738   0.57921   0.74770   0.00000  Uiso   1.00
C770   C     0.14591   0.49699   0.98902   0.00000  Uiso   1.00
C771   C     0.15584   0.48340   0.93615   0.00000  Uiso   1.00
C772   C     0.18218   0.49160   0.51463   0.00000  Uiso   1.00
C773   C     0.22661   0.47104   0.98822   0.00000  Uiso   1.00
C774   C     0.23356   0.45421   0.93850   0.00000  Uiso   1.00
C775   C     0.19767   0.45828   0.91329   0.00000  Uiso   1.00
C776   C     0.17502   0.50480   0.56654   0.00000  Uiso   1.00
C777   C     0.25337   0.47680   0.56551   0.00000  Uiso   1.00
C778   C     0.12242   0.49390   0.90841   0.00000  Uiso   1.00
C779   C     0.19960   0.64548   0.76688   0.00000  Uiso   1.00
C780   C     0.13994   0.49721   0.85027   0.00000  Uiso   1.00
C781   C     0.19925   0.35474   0.76836   0.00000  Uiso   1.00
C782   C     0.16690   0.37619   0.74847   0.00000  Uiso   1.00
C783   C     0.13599   0.35504   0.72545   0.00000  Uiso   1.00
C784   C     0.13732   0.64556   0.72161   0.00000  Uiso   1.00
C785   C     0.16836   0.62389   0.74445   0.00000  Uiso   1.00
C786   C     0.30124   0.52984   0.77649   0.00000  Uiso   1.00
C787   C     0.01743   0.52980   0.77655   0.00000  Uiso   1.00
C788   C     0.03116   0.46973   0.72370   0.00000  Uiso   1.00
C789   C     0.31512   0.46993   0.72438   0.00000  Uiso   1.00
C790   C     0.16660   0.42076   0.74988   0.00000  Uiso   1.00
C791   C     0.19311   0.49975   0.64987   0.00000  Uiso   1.00
C792   C     0.26246   0.46502   0.51330   0.00000  Uiso   1.00
C793   C     0.20866   0.49529   0.59276   0.00000  Uiso   1.00
C794   C     0.07411   0.50685   0.93736   0.00000  Uiso   1.00
C795   C     0.06375   0.51729   0.99004   0.00000  Uiso   1.00
C796   C     0.09928   0.51410   0.51496   0.00000  Uiso   1.00
Cu797  Cu    0.11978   0.49999   0.75000   0.00000  Uiso   1.00
Cu798  Cu    0.21355   0.50001   0.75000   0.00000  Uiso   1.00
H799   H     0.28004   0.46945   0.58522   0.00000  Uiso   1.00
H800   H     0.22360   0.37087   0.78594   0.00000  Uiso   1.00
H801   H     0.11248   0.37205   0.70824   0.00000  Uiso   1.00
H802   H     0.27672   0.55374   0.79786   0.00000  Uiso   1.00
H803   H     0.03003   0.55362   0.79799   0.00000  Uiso   1.00
H804   H     0.30191   0.44604   0.70354   0.00000  Uiso   1.00
H805   H     0.26610   0.43601   0.92019   0.00000  Uiso   1.00
H806   H     0.29650   0.44933   0.99332   0.00000  Uiso   1.00
H807   H     0.14274   0.52136   0.58862   0.00000  Uiso   1.00
H808   H     0.08764   0.52343   0.55552   0.00000  Uiso   1.00
H809   H     0.02746   0.52799   0.51245   0.00000  Uiso   1.00
H810   H     0.22372   0.62940   0.78423   0.00000  Uiso   1.00
N811   N     0.04931   0.49999   0.74999   0.00000  Uiso   1.00
N812   N     0.28402   0.50002   0.75000   0.00000  Uiso   1.00
O813   O     0.12708   0.56011   0.75001   0.00000  Uiso   1.00
O814   O     0.20627   0.56012   0.75001   0.00000  Uiso   1.00
O815   O     0.10775   0.49998   0.82549   0.00000  Uiso   1.00
O816   O     0.18694   0.49999   0.82549   0.00000  Uiso   1.00
O817   O     0.12706   0.43988   0.75000   0.00000  Uiso   1.00
O818   O     0.20625   0.43989   0.75000   0.00000  Uiso   1.00
O819   O     0.14640   0.50001   0.67451   0.00000  Uiso   1.00
O820   O     0.22559   0.50002   0.67451   0.00000  Uiso   1.00
C821   C     0.10796   0.62531   0.69116   0.00000  Uiso   1.00
O822   O     0.12489   0.59626   0.66174   0.00000  Uiso   1.00
O823   O     0.06159   0.64073   0.69448   0.00000  Uiso   1.00
H824   H     0.04528   0.62466   0.67167   0.00000  Uiso   1.00
O825   O     0.05914   0.43762   0.69665   0.00000  Uiso   1.00
H826   H     0.09288   0.44739   0.68142   0.00000  Uiso   1.00
C827   C     0.03251   0.50859   0.91547   0.00000  Uiso   1.00
O828   O     0.02370   0.47915   0.89081   0.00000  Uiso   1.00
O829   O     0.00146   0.54285   0.92600   0.00000  Uiso   1.00
H830   H     0.30703   0.53998   0.91011   0.00000  Uiso   1.00
O831   O     0.20045   0.43463   0.86919   0.00000  Uiso   1.00
H832   H     0.23170   0.41900   0.85850   0.00000  Uiso   1.00
C833   C     0.50071   0.57921   0.74770   0.00000  Uiso   1.00
C834   C     0.47924   0.49699   0.98902   0.00000  Uiso   1.00
C835   C     0.48917   0.48340   0.93615   0.00000  Uiso   1.00
C836   C     0.51552   0.49160   0.51463   0.00000  Uiso   1.00
C837   C     0.55994   0.47104   0.98822   0.00000  Uiso   1.00
C838   C     0.56689   0.45421   0.93850   0.00000  Uiso   1.00
C839   C     0.53100   0.45828   0.91329   0.00000  Uiso   1.00
C840   C     0.50835   0.50480   0.56654   0.00000  Uiso   1.00
C841   C     0.58670   0.47680   0.56551   0.00000  Uiso   1.00
C842   C     0.45576   0.49390   0.90841   0.00000  Uiso   1.00
C843   C     0.53293   0.64548   0.76688   0.00000  Uiso   1.00
C844   C     0.47328   0.49721   0.85027   0.00000  Uiso   1.00
C845   C     0.53259   0.35474   0.76836   0.00000  Uiso   1.00
C846   C     0.50023   0.37619   0.74847   0.00000  Uiso   1.00
C847   C     0.46933   0.35504   0.72545   0.00000  Uiso   1.00
C848   C     0.47066   0.64556   0.72161   0.00000  Uiso   1.00
C849   C     0.50169   0.62389   0.74445   0.00000  Uiso   1.00
C850   C     0.63457   0.52984   0.77649   0.00000  Uiso   1.00
C851   C     0.35077   0.52980   0.77655   0.00000  Uiso   1.00
C852   C     0.36449   0.46973   0.72370   0.00000  Uiso   1.00
C853   C     0.64845   0.46993   0.72438   0.00000  Uiso   1.00
C854   C     0.49994   0.42076   0.74988   0.00000  Uiso   1.00
C855   C     0.52644   0.49975   0.64987   0.00000  Uiso   1.00
C856   C     0.59579   0.46502   0.51330   0.00000  Uiso   1.00
C857   C     0.54199   0.49529   0.59276   0.00000  Uiso   1.00
C858   C     0.40745   0.50685   0.93736   0.00000  Uiso   1.00
C859   C     0.39708   0.51729   0.99004   0.00000  Uiso   1.00
C860   C     0.43261   0.51410   0.51496   0.00000  Uiso   1.00
Cu861  Cu    0.45311   0.49999   0.75000   0.00000  Uiso   1.00
Cu862  Cu    0.54689   0.50001   0.75000   0.00000  Uiso   1.00
H863   H     0.61337   0.46945   0.58522   0.00000  Uiso   1.00
H864   H     0.55694   0.37087   0.78594   0.00000  Uiso   1.00
H865   H     0.44582   0.37205   0.70824   0.00000  Uiso   1.00
H866   H     0.61006   0.55374   0.79786   0.00000  Uiso   1.00
H867   H     0.36336   0.55362   0.79799   0.00000  Uiso   1.00
H868   H     0.63524   0.44604   0.70354   0.00000  Uiso   1.00
H869   H     0.59943   0.43601   0.92019   0.00000  Uiso   1.00
H870   H     0.62983   0.44933   0.99332   0.00000  Uiso   1.00
H871   H     0.47607   0.52136   0.58862   0.00000  Uiso   1.00
H872   H     0.42097   0.52343   0.55552   0.00000  Uiso   1.00
H873   H     0.36080   0.52799   0.51245   0.00000  Uiso   1.00
H874   H     0.55705   0.62940   0.78423   0.00000  Uiso   1.00
N875   N     0.38265   0.49999   0.74999   0.00000  Uiso   1.00
N876   N     0.61735   0.50002   0.75000   0.00000  Uiso   1.00
O877   O     0.46042   0.56011   0.75001   0.00000  Uiso   1.00
O878   O     0.53961   0.56012   0.75001   0.00000  Uiso   1.00
O879   O     0.44108   0.49998   0.82549   0.00000  Uiso   1.00
O880   O     0.52027   0.49999   0.82549   0.00000  Uiso   1.00
O881   O     0.46039   0.43988   0.75000   0.00000  Uiso   1.00
O882   O     0.53958   0.43989   0.75000   0.00000  Uiso   1.00
O883   O     0.47973   0.50001   0.67451   0.00000  Uiso   1.00
O884   O     0.55892   0.50002   0.67451   0.00000  Uiso   1.00
C885   C     0.44130   0.62531   0.69116   0.00000  Uiso   1.00
O886   O     0.45823   0.59626   0.66174   0.00000  Uiso   1.00
O887   O     0.39492   0.64073   0.69448   0.00000  Uiso   1.00
H888   H     0.37861   0.62466   0.67167   0.00000  Uiso   1.00
O889   O     0.39247   0.43762   0.69665   0.00000  Uiso   1.00
H890   H     0.42621   0.44739   0.68142   0.00000  Uiso   1.00
C891   C     0.36585   0.50859   0.91547   0.00000  Uiso   1.00
O892   O     0.35704   0.47915   0.89081   0.00000  Uiso   1.00
O893   O     0.33479   0.54285   0.92600   0.00000  Uiso   1.00
H894   H     0.64036   0.53998   0.91011   0.00000  Uiso   1.00
O895   O     0.53379   0.43463   0.86919   0.00000  Uiso   1.00
H896   H     0.56503   0.41900   0.85850   0.00000  Uiso   1.00
C897   C     0.83405   0.57921   0.74770   0.00000  Uiso   1.00
C898   C     0.81257   0.49699   0.98902   0.00000  Uiso   1.00
C899   C     0.82251   0.48340   0.93615   0.00000  Uiso   1.00
C900   C     0.84885   0.49160   0.51463   0.00000  Uiso   1.00
C901   C     0.89327   0.47104   0.98822   0.00000  Uiso   1.00
C902   C     0.90023   0.45421   0.93850   0.00000  Uiso   1.00
C903   C     0.86433   0.45828   0.91329   0.00000  Uiso   1.00
C904   C     0.84169   0.50480   0.56654   0.00000  Uiso   1.00
C905   C     0.92003   0.47680   0.56551   0.00000  Uiso   1.00
C906   C     0.78909   0.49390   0.90841   0.00000  Uiso   1.00
C907   C     0.86626   0.64548   0.76688   0.00000  Uiso   1.00
C908   C     0.80661   0.49721   0.85027   0.00000  Uiso   1.00
C909   C     0.86592   0.35474   0.76836   0.00000  Uiso   1.00
C910   C     0.83356   0.37619   0.74847   0.00000  Uiso   1.00
C911   C     0.80266   0.35504   0.72545   0.00000  Uiso   1.00
C912   C     0.80399   0.64556   0.72161   0.00000  Uiso   1.00
C913   C     0.83502   0.62389   0.74445   0.00000  Uiso   1.00
C914   C     0.96790   0.52984   0.77649   0.00000  Uiso   1.00
C915   C     0.68410   0.52980   0.77655   0.00000  Uiso   1.00
C916   C     0.69783   0.46973   0.72370   0.00000  Uiso   1.00
C917   C     0.98178   0.46993   0.72438   0.00000  Uiso   1.00
C918   C     0.83327   0.42076   0.74988   0.00000  Uiso   1.00
C919   C     0.85977   0.49975   0.64987   0.00000  Uiso   1.00
C920   C     0.92912   0.46502   0.51330   0.00000  Uiso   1.00
C921   C     0.87532   0.49529   0.59276   0.00000  Uiso   1.00
C922   C     0.74078   0.50685   0.93736   0.00000  Uiso   1.00
C923   C     0.73041   0.51729   0.99004   0.00000  Uiso   1.00
C924   C     0.76595   0.51410   0.51496   0.00000  Uiso   1.00
Cu925  Cu    0.78645   0.49999   0.75000   0.00000  Uiso   1.00
Cu926  Cu    0.88022   0.50001   0.75000   0.00000  Uiso   1.00
H927   H     0.94671   0.46945   0.58522   0.00000  Uiso   1.00
H928   H     0.89027   0.37087   0.78594   0.00000  Uiso   1.00
H929   H     0.77915   0.37205   0.70824   0.00000  Uiso   1.00
H930   H     0.94339   0.55374   0.79786   0.00000  Uiso   1.00
H931   H     0.69669   0.55362   0.79799   0.00000  Uiso   1.00
H932   H     0.96857   0.44604   0.70354   0.00000  Uiso   1.00
H933   H     0.93276   0.43601   0.92019   0.00000  Uiso   1.00
H934   H     0.96317   0.44933   0.99332   0.00000  Uiso   1.00
H935   H     0.80940   0.52136   0.58862   0.00000  Uiso   1.00
H936   H     0.75431   0.52343   0.55552   0.00000  Uiso   1.00
H937   H     0.69413   0.52799   0.51245   0.00000  Uiso   1.00
H938   H     0.89038   0.62940   0.78423   0.00000  Uiso   1.00
N939   N     0.71598   0.49999   0.74999   0.00000  Uiso   1.00
N940   N     0.95069   0.50002   0.75000   0.00000  Uiso   1.00
O941   O     0.79375   0.56011   0.75001   0.00000  Uiso   1.00
O942   O     0.87294   0.56012   0.75001   0.00000  Uiso   1.00
O943   O     0.77441   0.49998   0.82549   0.00000  Uiso   1.00
O944   O     0.85360   0.49999   0.82549   0.00000  Uiso   1.00
O945   O     0.79373   0.43988   0.75000   0.00000  Uiso   1.00
O946   O     0.87292   0.43989   0.75000   0.00000  Uiso   1.00
O947   O     0.81306   0.50001   0.67451   0.00000  Uiso   1.00
O948   O     0.89225   0.50002   0.67451   0.00000  Uiso   1.00
C949   C     0.77463   0.62531   0.69116   0.00000  Uiso   1.00
O950   O     0.79156   0.59626   0.66174   0.00000  Uiso   1.00
O951   O     0.72826   0.64073   0.69448   0.00000  Uiso   1.00
H952   H     0.71194   0.62466   0.67167   0.00000  Uiso   1.00
O953   O     0.72580   0.43762   0.69665   0.00000  Uiso   1.00
H954   H     0.75955   0.44739   0.68142   0.00000  Uiso   1.00
C955   C     0.69918   0.50859   0.91547   0.00000  Uiso   1.00
O956   O     0.69037   0.47915   0.89081   0.00000  Uiso   1.00
O957   O     0.66812   0.54285   0.92600   0.00000  Uiso   1.00
H958   H     0.97370   0.53998   0.91011   0.00000  Uiso   1.00
O959   O     0.86712   0.43463   0.86919   0.00000  Uiso   1.00
H960   H     0.89836   0.41900   0.85850   0.00000  Uiso   1.00
C961   C     0.16738   0.91254   0.74770   0.00000  Uiso   1.00
C962   C     0.14591   0.83032   0.98902   0.00000  Uiso   1.00
C963   C     0.15584   0.81674   0.93615   0.00000  Uiso   1.00
C964   C     0.18218   0.82494   0.51463   0.00000  Uiso   1.00
C965   C     0.22661   0.80437   0.98822   0.00000  Uiso   1.00
C966   C     0.23356   0.78754   0.93850   0.00000  Uiso   1.00
C967   C     0.19767   0.79162   0.91329   0.00000  Uiso   1.00
C968   C     0.17502   0.83813   0.56654   0.00000  Uiso   1.00
C969   C     0.25337   0.81013   0.56551   0.00000  Uiso   1.00
C970   C     0.12242   0.82724   0.90841   0.00000  Uiso   1.00
C971   C     0.19960   0.97881   0.76688   0.00000  Uiso   1.00
C972   C     0.13994   0.83054   0.85027   0.00000  Uiso   1.00
C973   C     0.19925   0.68808   0.76836   0.00000  Uiso   1.00
C974   C     0.16690   0.70952   0.74847   0.00000  Uiso   1.00
C975   C     0.13599   0.68837   0.72545   0.00000  Uiso   1.00
C976   C     0.13732   0.97889   0.72161   0.00000  Uiso   1.00
C977   C     0.16836   0.95722   0.74445   0.00000  Uiso   1.00
C978   C     0.30124   0.86317   0.77649   0.00000  Uiso   1.00
C979   C     0.01743   0.86314   0.77655   0.00000  Uiso   1.00
C980   C     0.03116   0.80306   0.72370   0.00000  Uiso   1.00
C981   C     0.31512   0.80327   0.72438   0.00000  Uiso   1.00
C982   C     0.16660   0.75409   0.74988   0.00000  Uiso   1.00
C983   C     0.19311   0.83308   0.64987   0.00000  Uiso   1.00
C984   C     0.26246   0.79836   0.51330   0.00000  Uiso   1.00
C985   C     0.20866   0.82862   0.59276   0.00000  Uiso   1.00
C986   C     0.07411   0.84018   0.93736   0.00000  Uiso   1.00
C987   C     0.06375   0.85063   0.99004   0.00000  Uiso   1.00
C988   C     0.09928   0.84743   0.51496   0.00000  Uiso   1.00
Cu989  Cu    0.11978   0.83333   0.75000   0.00000  Uiso   1.00
Cu990  Cu    0.21355   0.83334   0.75000   0.00000  Uiso   1.00
H991   H     0.28004   0.80279   0.58522   0.00000  Uiso   1.00
H992   H     0.22360   0.70420   0.78594   0.00000  Uiso   1.00
H993   H     0.11248   0.70538   0.70824   0.00000  Uiso   1.00
H994   H     0.27672   0.88708   0.79786   0.00000  Uiso   1.00
H995   H     0.03003   0.88695   0.79799   0.00000  Uiso   1.00
H996   H     0.30191   0.77937   0.70354   0.00000  Uiso   1.00
H997   H     0.26610   0.76934   0.92019   0.00000  Uiso   1.00
H998   H     0.29650   0.78266   0.99332   0.00000  Uiso   1.00
H999   H     0.14274   0.85470   0.58862   0.00000  Uiso   1.00
H1000  H     0.08764   0.85676   0.55552   0.00000  Uiso   1.00
H1001  H     0.02746   0.86132   0.51245   0.00000  Uiso   1.00
H1002  H     0.22372   0.96273   0.78423   0.00000  Uiso   1.00
N1003  N     0.04931   0.83332   0.74999   0.00000  Uiso   1.00
N1004  N     0.28402   0.83335   0.75000   0.00000  Uiso   1.00
O1005  O     0.12708   0.89345   0.75001   0.00000  Uiso   1.00
O1006  O     0.20627   0.89346   0.75001   0.00000  Uiso   1.00
O1007  O     0.10775   0.83332   0.82549   0.00000  Uiso   1.00
O1008  O     0.18694   0.83333   0.82549   0.00000  Uiso   1.00
O1009  O     0.12706   0.77321   0.75000   0.00000  Uiso   1.00
O1010  O     0.20625   0.77322   0.75000   0.00000  Uiso   1.00
O1011  O     0.14640   0.83334   0.67451   0.00000  Uiso   1.00
O1012  O     0.22559   0.83335   0.67451   0.00000  Uiso   1.00
C1013  C     0.10796   0.95864   0.69116   0.00000  Uiso   1.00
O1014  O     0.12489   0.92959   0.66174   0.00000  Uiso   1.00
O1015  O     0.06159   0.97406   0.69448   0.00000  Uiso   1.00
H1016  H     0.04528   0.95799   0.67167   0.00000  Uiso   1.00
O1017  O     0.05914   0.77095   0.69665   0.00000  Uiso   1.00
H1018  H     0.09288   0.78072   0.68142   0.00000  Uiso   1.00
C1019  C     0.03251   0.84193   0.91547   0.00000  Uiso   1.00
O1020  O     0.02370   0.81248   0.89081   0.00000  Uiso   1.00
O1021  O     0.00146   0.87618   0.92600   0.00000  Uiso   1.00
H1022  H     0.30703   0.87331   0.91011   0.00000  Uiso   1.00
O1023  O     0.20045   0.76796   0.86919   0.00000  Uiso   1.00
H1024  H     0.23170   0.75233   0.85850   0.00000  Uiso   1.00
C1025  C     0.50071   0.91254   0.74770   0.00000  Uiso   1.00
C1026  C     0.47924   0.83032   0.98902   0.00000  Uiso   1.00
C1027  C     0.48917   0.81674   0.93615   0.00000  Uiso   1.00
C1028  C     0.51552   0.82494   0.51463   0.00000  Uiso   1.00
C1029  C     0.55994   0.80437   0.98822   0.00000  Uiso   1.00
C1030  C     0.56689   0.78754   0.93850   0.00000  Uiso   1.00
C1031  C     0.53100   0.79162   0.91329   0.00000  Uiso   1.00
C1032  C     0.50835   0.83813   0.56654   0.00000  Uiso   1.00
C1033  C     0.58670   0.81013   0.56551   0.00000  Uiso   1.00
C1034  C     0.45576   0.82724   0.90841   0.00000  Uiso   1.00
C1035  C     0.53293   0.97881   0.76688   0.00000  Uiso   1.00
C1036  C     0.47328   0.83054   0.85027   0.00000  Uiso   1.00
C1037  C     0.53259   0.68808   0.76836   0.00000  Uiso   1.00
C1038  C     0.50023   0.70952   0.74847   0.00000  Uiso   1.00
C1039  C     0.46933   0.68837   0.72545   0.00000  Uiso   1.00
C1040  C     0.47066   0.97889   0.72161   0.00000  Uiso   1.00
C1041  C     0.50169   0.95722   0.74445   0.00000  Uiso   1.00
C1042  C     0.63457   0.86317   0.77649   0.00000  Uiso   1.00
C1043  C     0.35077   0.86314   0.77655   0.00000  Uiso   1.00
C1044  C     0.36449   0.80306   0.72370   0.00000  Uiso   1.00
C1045  C     0.64845   0.80327   0.72438   0.00000  Uiso   1.00
C1046  C     0.49994   0.75409   0.74988   0.00000  Uiso   1.00
C1047  C     0.52644   0.83308   0.64987   0.00000  Uiso   1.00
C1048  C     0.59579   0.79836   0.51330   0.00000  Uiso   1.00
C1049  C     0.54199   0.82862   0.59276   0.00000  Uiso   1.00
C1050  C     0.40745   0.84018   0.93736   0.00000  Uiso   1.00
C1051  C     0.39708   0.85063   0.99004   0.00000  Uiso   1.00
C1052  C     0.43261   0.84743   0.51496   0.00000  Uiso   1.00
Cu1053 Cu    0.45311   0.83333   0.75000   0.00000  Uiso   1.00
Cu1054 Cu    0.54689   0.83334   0.75000   0.00000  Uiso   1.00
H1055  H     0.61337   0.80279   0.58522   0.00000  Uiso   1.00
H1056  H     0.55694   0.70420   0.78594   0.00000  Uiso   1.00
H1057  H     0.44582   0.70538   0.70824   0.00000  Uiso   1.00
H1058  H     0.61006   0.88708   0.79786   0.00000  Uiso   1.00
H1059  H     0.36336   0.88695   0.79799   0.00000  Uiso   1.00
H1060  H     0.63524   0.77937   0.70354   0.00000  Uiso   1.00
H1061  H     0.59943   0.76934   0.92019   0.00000  Uiso   1.00
H1062  H     0.62983   0.78266   0.99332   0.00000  Uiso   1.00
H1063  H     0.47607   0.85470   0.58862   0.00000  Uiso   1.00
H1064  H     0.42097   0.85676   0.55552   0.00000  Uiso   1.00
H1065  H     0.36080   0.86132   0.51245   0.00000  Uiso   1.00
H1066  H     0.55705   0.96273   0.78423   0.00000  Uiso   1.00
N1067  N     0.38265   0.83332   0.74999   0.00000  Uiso   1.00
N1068  N     0.61735   0.83335   0.75000   0.00000  Uiso   1.00
O1069  O     0.46042   0.89345   0.75001   0.00000  Uiso   1.00
O1070  O     0.53961   0.89346   0.75001   0.00000  Uiso   1.00
O1071  O     0.44108   0.83332   0.82549   0.00000  Uiso   1.00
O1072  O     0.52027   0.83333   0.82549   0.00000  Uiso   1.00
O1073  O     0.46039   0.77321   0.75000   0.00000  Uiso   1.00
O1074  O     0.53958   0.77322   0.75000   0.00000  Uiso   1.00
O1075  O     0.47973   0.83334   0.67451   0.00000  Uiso   1.00
O1076  O     0.55892   0.83335   0.67451   0.00000  Uiso   1.00
C1077  C     0.44130   0.95864   0.69116   0.00000  Uiso   1.00
O1078  O     0.45823   0.92959   0.66174   0.00000  Uiso   1.00
O1079  O     0.39492   0.97406   0.69448   0.00000  Uiso   1.00
H1080  H     0.37861   0.95799   0.67167   0.00000  Uiso   1.00
O1081  O     0.39247   0.77095   0.69665   0.00000  Uiso   1.00
H1082  H     0.42621   0.78072   0.68142   0.00000  Uiso   1.00
C1083  C     0.36585   0.84193   0.91547   0.00000  Uiso   1.00
O1084  O     0.35704   0.81248   0.89081   0.00000  Uiso   1.00
O1085  O     0.33479   0.87618   0.92600   0.00000  Uiso   1.00
H1086  H     0.64036   0.87331   0.91011   0.00000  Uiso   1.00
O1087  O     0.53379   0.76796   0.86919   0.00000  Uiso   1.00
H1088  H     0.56503   0.75233   0.85850   0.00000  Uiso   1.00
C1089  C     0.83405   0.91254   0.74770   0.00000  Uiso   1.00
C1090  C     0.81257   0.83032   0.98902   0.00000  Uiso   1.00
C1091  C     0.82251   0.81674   0.93615   0.00000  Uiso   1.00
C1092  C     0.84885   0.82494   0.51463   0.00000  Uiso   1.00
C1093  C     0.89327   0.80437   0.98822   0.00000  Uiso   1.00
C1094  C     0.90023   0.78754   0.93850   0.00000  Uiso   1.00
C1095  C     0.86433   0.79162   0.91329   0.00000  Uiso   1.00
C1096  C     0.84169   0.83813   0.56654   0.00000  Uiso   1.00
C1097  C     0.92003   0.81013   0.56551   0.00000  Uiso   1.00
C1098  C     0.78909   0.82724   0.90841   0.00000  Uiso   1.00
C1099  C     0.86626   0.97881   0.76688   0.00000  Uiso   1.00
C1100  C     0.80661   0.83054   0.85027   0.00000  Uiso   1.00
C1101  C     0.86592   0.68808   0.76836   0.00000  Uiso   1.00
C1102  C     0.83356   0.70952   0.74847   0.00000  Uiso   1.00
C1103  C     0.80266   0.68837   0.72545   0.00000  Uiso   1.00
C1104  C     0.80399   0.97889   0.72161   0.00000  Uiso   1.00
C1105  C     0.83502   0.95722   0.74445   0.00000  Uiso   1.00
C1106  C     0.96790   0.86317   0.77649   0.00000  Uiso   1.00
C1107  C     0.68410   0.86314   0.77655   0.00000  Uiso   1.00
C1108  C     0.69783   0.80306   0.72370   0.00000  Uiso   1.00
C1109  C     0.98178   0.80327   0.72438   0.00000  Uiso   1.00
C1110  C     0.83327   0.75409   0.74988   0.00000  Uiso   1.00
C1111  C     0.85977   0.83308   0.64987   0.00000  Uiso   1.00
C1112  C     0.92912   0.79836   0.51330   0.00000  Uiso   1.00
C1113  C     0.87532   0.82862   0.59276   0.00000  Uiso   1.00
C1114  C     0.74078   0.84018   0.93736   0.00000  Uiso   1.00
C1115  C     0.73041   0.85063   0.99004   0.00000  Uiso   1.00
C1116  C     0.76595   0.84743   0.51496   0.00000  Uiso   1.00
Cu1117 Cu    0.78645   0.83333   0.75000   0.00000  Uiso   1.00
Cu1118 Cu    0.88022   0.83334   0.75000   0.00000  Uiso   1.00
H1119  H     0.94671   0.80279   0.58522   0.00000  Uiso   1.00
H1120  H     0.89027   0.70420   0.78594   0.00000  Uiso   1.00
H1121  H     0.77915   0.70538   0.70824   0.00000  Uiso   1.00
H1122  H     0.94339   0.88708   0.79786   0.00000  Uiso   1.00
H1123  H     0.69669   0.88695   0.79799   0.00000  Uiso   1.00
H1124  H     0.96857   0.77937   0.70354   0.00000  Uiso   1.00
H1125  H     0.93276   0.76934   0.92019   0.00000  Uiso   1.00
H1126  H     0.96317   0.78266   0.99332   0.00000  Uiso   1.00
H1127  H     0.80940   0.85470   0.58862   0.00000  Uiso   1.00
H1128  H     0.75431   0.85676   0.55552   0.00000  Uiso   1.00
H1129  H     0.69413   0.86132   0.51245   0.00000  Uiso   1.00
H1130  H     0.89038   0.96273   0.78423   0.00000  Uiso   1.00
N1131  N     0.71598   0.83332   0.74999   0.00000  Uiso   1.00
N1132  N     0.95069   0.83335   0.75000   0.00000  Uiso   1.00
O1133  O     0.79375   0.89345   0.75001   0.00000  Uiso   1.00
O1134  O     0.87294   0.89346   0.75001   0.00000  Uiso   1.00
O1135  O     0.77441   0.83332   0.82549   0.00000  Uiso   1.00
O1136  O     0.85360   0.83333   0.82549   0.00000  Uiso   1.00
O1137  O     0.79373   0.77321   0.75000   0.00000  Uiso   1.00
O1138  O     0.87292   0.77322   0.75000   0.00000  Uiso   1.00
O1139  O     0.81306   0.83334   0.67451   0.00000  Uiso   1.00
O1140  O     0.89225   0.83335   0.67451   0.00000  Uiso   1.00
C1141  C     0.77463   0.95864   0.69116   0.00000  Uiso   1.00
O1142  O     0.79156   0.92959   0.66174   0.00000  Uiso   1.00
O1143  O     0.72826   0.97406   0.69448   0.00000  Uiso   1.00
H1144  H     0.71194   0.95799   0.67167   0.00000  Uiso   1.00
O1145  O     0.72580   0.77095   0.69665   0.00000  Uiso   1.00
H1146  H     0.75955   0.78072   0.68142   0.00000  Uiso   1.00
C1147  C     0.69918   0.84193   0.91547   0.00000  Uiso   1.00
O1148  O     0.69037   0.81248   0.89081   0.00000  Uiso   1.00
O1149  O     0.66812   0.87618   0.92600   0.00000  Uiso   1.00
H1150  H     0.97370   0.87331   0.91011   0.00000  Uiso   1.00
O1151  O     0.86712   0.76796   0.86919   0.00000  Uiso   1.00
H1152  H     0.89836   0.75233   0.85850   0.00000  Uiso   1.00
loop_
_geom_bond_atom_site_label_1
_geom_bond_atom_site_label_2
_geom_bond_distance
_geom_bond_site_symmetry_2
_ccdc_geom_bond_type
C1     C17     1.453   .     S
C1     O45     1.291   .     A
C1     O46     1.296   .     A
C2     C3      1.423   .     A
C2     C580    1.423   .     S
C2     C604    1.415   .     S
C3     C10     1.426   .     A
C3     C7      1.422   .     A
C4     C8      1.405   .     A
C4     C578    1.423   1_554 S
C4     C581    1.417   1_554 S
C5     C6      1.391   .     A
C5     C580    1.417   .     S
C5     C600    1.405   .     S
C6     C7      1.401   .     A
C6     H37     1.084   .     S
C7     O63     1.383   .     S
C8     H39     1.075   .     S
C8     C25     1.394   .     A
C9     C24     1.393   .     A
C9     C25     1.398   .     A
C9     H31     1.083   .     S
C10    C26     1.425   .     A
C10    C12     1.490   .     S
C11    H42     1.084   .     S
C11    C17     1.402   .     A
C11    C205    1.382   .     S
C12    O48     1.308   .     A
C12    O47     1.296   .     A
C13    H32     1.083   .     S
C13    C14     1.396   .     A
C13    C395    1.382   1_545 S
C14    C22     1.446   .     S
C14    C15     1.397   .     A
C15    H33     1.083   .     S
C15    C400    1.392   1_545 S
C16    C17     1.419   .     A
C16    C53     1.485   .     S
C16    C207    1.392   .     S
C18    N44     1.369   .     A
C18    H34     1.082   .     S
C18    C83     1.419   .     S
C19    N43     1.367   .     A
C19    H35     1.082   .     S
C19    C146    1.419   1_455 S
C20    N43     1.390   .     A
C20    O57     1.373   .     S
C20    C149    1.408   1_455 S
C21    N44     1.354   .     A
C21    H36     1.082   .     S
C21    C84     1.408   .     S
C22    O50     1.291   .     A
C22    O49     1.293   .     A
C23    O52     1.296   .     A
C23    C25     1.464   .     S
C23    O51     1.297   .     A
C24    C581    1.405   1_554 S
C24    H614    1.084   1_554 S
C26    C59     1.483   .     S
C26    C27     1.390   .     A
C27    C604    1.383   .     S
C27    H617    1.085   .     S
C28    H40     1.075   .     S
C28    C603    1.383   1_554 S
C28    C578    1.415   1_554 S
Cu29   O49     1.963   .     S
Cu29   N43     2.018   .     S
Cu29   O47     1.948   .     S
Cu29   Cu30    2.685   .     S
Cu29   O51     1.933   .     S
Cu29   O45     1.961   .     S
Cu30   O48     1.933   .     S
Cu30   N44     2.018   .     S
Cu30   O50     1.961   .     S
Cu30   O52     1.948   .     S
Cu30   O46     1.963   .     S
H38    C600    1.084   .     S
H41    C603    1.085   1_554 S
C53    O55     1.398   .     S
C53    O54     1.223   .     D
O55    H56     1.014   .     S
O57    H58     0.979   .     S
C59    O60     1.223   .     D
C59    O61     1.398   .     S
O61    H190    1.014   1_455 S
H62    O125    1.014   .     S
O63    H64     0.992   .     S
C65    C81     1.453   .     S
C65    O109    1.291   .     A
C65    O110    1.296   .     A
C66    C67     1.423   .     A
C66    C644    1.423   .     S
C66    C668    1.415   .     S
C67    C74     1.426   .     A
C67    C71     1.422   .     A
C68    C72     1.405   .     A
C68    C642    1.423   1_554 S
C68    C645    1.417   1_554 S
C69    C70     1.391   .     A
C69    C644    1.417   .     S
C69    C664    1.405   .     S
C70    C71     1.401   .     A
C70    H101    1.084   .     S
C71    O127    1.383   .     S
C72    H103    1.075   .     S
C72    C89     1.394   .     A
C73    C88     1.393   .     A
C73    C89     1.398   .     A
C73    H95     1.083   .     S
C74    C90     1.425   .     A
C74    C76     1.490   .     S
C75    H106    1.084   .     S
C75    C81     1.402   .     A
C75    C269    1.382   .     S
C76    O112    1.308   .     A
C76    O111    1.296   .     A
C77    H96     1.083   .     S
C77    C78     1.396   .     A
C77    C459    1.382   1_545 S
C78    C86     1.446   .     S
C78    C79     1.397   .     A
C79    H97     1.083   .     S
C79    C464    1.392   1_545 S
C80    C81     1.419   .     A
C80    C117    1.485   .     S
C80    C271    1.392   .     S
C82    N108    1.369   .     A
C82    H98     1.082   .     S
C82    C147    1.419   .     S
C83    N107    1.367   .     A
C83    H99     1.082   .     S
C84    N107    1.390   .     A
C84    O121    1.373   .     S
C85    N108    1.354   .     A
C85    H100    1.082   .     S
C85    C148    1.408   .     S
C86    O114    1.291   .     A
C86    O113    1.293   .     A
C87    O116    1.296   .     A
C87    C89     1.464   .     S
C87    O115    1.297   .     A
C88    C645    1.405   1_554 S
C88    H678    1.084   1_554 S
C90    C123    1.483   .     S
C90    C91     1.390   .     A
C91    C668    1.383   .     S
C91    H681    1.085   .     S
C92    H104    1.075   .     S
C92    C667    1.383   1_554 S
C92    C642    1.415   1_554 S
Cu93   O113    1.963   .     S
Cu93   N107    2.018   .     S
Cu93   O111    1.948   .     S
Cu93   Cu94    2.685   .     S
Cu93   O115    1.933   .     S
Cu93   O109    1.961   .     S
Cu94   O112    1.933   .     S
Cu94   N108    2.018   .     S
Cu94   O114    1.961   .     S
Cu94   O116    1.948   .     S
Cu94   O110    1.963   .     S
H102   C664    1.084   .     S
H105   C667    1.085   1_554 S
C117   O119    1.398   .     S
C117   O118    1.223   .     D
O119   H120    1.014   .     S
O121   H122    0.979   .     S
C123   O124    1.223   .     D
C123   O125    1.398   .     S
H126   O189    1.014   .     S
O127   H128    0.992   .     S
C129   C145    1.453   .     S
C129   O173    1.291   .     A
C129   O174    1.296   .     A
C130   C131    1.423   .     A
C130   C708    1.423   .     S
C130   C732    1.415   .     S
C131   C138    1.426   .     A
C131   C135    1.422   .     A
C132   C136    1.405   .     A
C132   C706    1.423   1_554 S
C132   C709    1.417   1_554 S
C133   C134    1.391   .     A
C133   C708    1.417   .     S
C133   C728    1.405   .     S
C134   C135    1.401   .     A
C134   H165    1.084   .     S
C135   O191    1.383   .     S
C136   H167    1.075   .     S
C136   C153    1.394   .     A
C137   C152    1.393   .     A
C137   C153    1.398   .     A
C137   H159    1.083   .     S
C138   C154    1.425   .     A
C138   C140    1.490   .     S
C139   H170    1.084   .     S
C139   C145    1.402   .     A
C139   C333    1.382   .     S
C140   O176    1.308   .     A
C140   O175    1.296   .     A
C141   H160    1.083   .     S
C141   C142    1.396   .     A
C141   C523    1.382   1_545 S
C142   C150    1.446   .     S
C142   C143    1.397   .     A
C143   H161    1.083   .     S
C143   C528    1.392   1_545 S
C144   C145    1.419   .     A
C144   C181    1.485   .     S
C144   C335    1.392   .     S
C146   N172    1.369   .     A
C146   H162    1.082   .     S
C146   C19     1.419   1_655 S
C147   N171    1.367   .     A
C147   H163    1.082   .     S
C148   N171    1.390   .     A
C148   O185    1.373   .     S
C149   N172    1.354   .     A
C149   H164    1.082   .     S
C149   C20     1.408   1_655 S
C150   O178    1.291   .     A
C150   O177    1.293   .     A
C151   O180    1.296   .     A
C151   C153    1.464   .     S
C151   O179    1.297   .     A
C152   C709    1.405   1_554 S
C152   H742    1.084   1_554 S
C154   C187    1.483   .     S
C154   C155    1.390   .     A
C155   C732    1.383   .     S
C155   H745    1.085   .     S
C156   H168    1.075   .     S
C156   C731    1.383   1_554 S
C156   C706    1.415   1_554 S
Cu157  O177    1.963   .     S
Cu157  N171    2.018   .     S
Cu157  O175    1.948   .     S
Cu157  Cu158   2.685   .     S
Cu157  O179    1.933   .     S
Cu157  O173    1.961   .     S
Cu158  O176    1.933   .     S
Cu158  N172    2.018   .     S
Cu158  O178    1.961   .     S
Cu158  O180    1.948   .     S
Cu158  O174    1.963   .     S
H166   C728    1.084   .     S
H169   C731    1.085   1_554 S
C181   O183    1.398   .     S
C181   O182    1.223   .     D
O183   H184    1.014   .     S
O185   H186    0.979   .     S
C187   O188    1.223   .     D
C187   O189    1.398   .     S
H190   O61     1.014   1_655 S
O191   H192    0.992   .     S
C193   C209    1.453   .     S
C193   O237    1.291   .     A
C193   O238    1.296   .     A
C194   C195    1.423   .     A
C194   C772    1.423   .     S
C194   C796    1.415   .     S
C195   C202    1.426   .     A
C195   C199    1.422   .     A
C196   C200    1.405   .     A
C196   C770    1.423   1_554 S
C196   C773    1.417   1_554 S
C197   C198    1.391   .     A
C197   C772    1.417   .     S
C197   C792    1.405   .     S
C198   C199    1.401   .     A
C198   H229    1.084   .     S
C199   O255    1.383   .     S
C200   H231    1.075   .     S
C200   C217    1.394   .     A
C201   C216    1.393   .     A
C201   C217    1.398   .     A
C201   H223    1.083   .     S
C202   C218    1.425   .     A
C202   C204    1.490   .     S
C203   H234    1.084   .     S
C203   C209    1.402   .     A
C203   C397    1.382   .     S
C204   O240    1.308   .     A
C204   O239    1.296   .     A
C205   H224    1.083   .     S
C205   C206    1.396   .     A
C206   C214    1.446   .     S
C206   C207    1.397   .     A
C207   H225    1.083   .     S
C208   C209    1.419   .     A
C208   C245    1.485   .     S
C208   C399    1.392   .     S
C210   N236    1.369   .     A
C210   H226    1.082   .     S
C210   C275    1.419   .     S
C211   N235    1.367   .     A
C211   H227    1.082   .     S
C211   C338    1.419   1_455 S
C212   N235    1.390   .     A
C212   O249    1.373   .     S
C212   C341    1.408   1_455 S
C213   N236    1.354   .     A
C213   H228    1.082   .     S
C213   C276    1.408   .     S
C214   O242    1.291   .     A
C214   O241    1.293   .     A
C215   O244    1.296   .     A
C215   C217    1.464   .     S
C215   O243    1.297   .     A
C216   C773    1.405   1_554 S
C216   H806    1.084   1_554 S
C218   C251    1.483   .     S
C218   C219    1.390   .     A
C219   C796    1.383   .     S
C219   H809    1.085   .     S
C220   H232    1.075   .     S
C220   C795    1.383   1_554 S
C220   C770    1.415   1_554 S
Cu221  O241    1.963   .     S
Cu221  N235    2.018   .     S
Cu221  O239    1.948   .     S
Cu221  Cu222   2.685   .     S
Cu221  O243    1.933   .     S
Cu221  O237    1.961   .     S
Cu222  O240    1.933   .     S
Cu222  N236    2.018   .     S
Cu222  O242    1.961   .     S
Cu222  O244    1.948   .     S
Cu222  O238    1.963   .     S
H230   C792    1.084   .     S
H233   C795    1.085   1_554 S
C245   O247    1.398   .     S
C245   O246    1.223   .     D
O247   H248    1.014   .     S
O249   H250    0.979   .     S
C251   O252    1.223   .     D
C251   O253    1.398   .     S
O253   H382    1.014   1_455 S
H254   O317    1.014   .     S
O255   H256    0.992   .     S
C257   C273    1.453   .     S
C257   O301    1.291   .     A
C257   O302    1.296   .     A
C258   C259    1.423   .     A
C258   C836    1.423   .     S
C258   C860    1.415   .     S
C259   C266    1.426   .     A
C259   C263    1.422   .     A
C260   C264    1.405   .     A
C260   C834    1.423   1_554 S
C260   C837    1.417   1_554 S
C261   C262    1.391   .     A
C261   C836    1.417   .     S
C261   C856    1.405   .     S
C262   C263    1.401   .     A
C262   H293    1.084   .     S
C263   O319    1.383   .     S
C264   H295    1.075   .     S
C264   C281    1.394   .     A
C265   C280    1.393   .     A
C265   C281    1.398   .     A
C265   H287    1.083   .     S
C266   C282    1.425   .     A
C266   C268    1.490   .     S
C267   H298    1.084   .     S
C267   C273    1.402   .     A
C267   C461    1.382   .     S
C268   O304    1.308   .     A
C268   O303    1.296   .     A
C269   H288    1.083   .     S
C269   C270    1.396   .     A
C270   C278    1.446   .     S
C270   C271    1.397   .     A
C271   H289    1.083   .     S
C272   C273    1.419   .     A
C272   C309    1.485   .     S
C272   C463    1.392   .     S
C274   N300    1.369   .     A
C274   H290    1.082   .     S
C274   C339    1.419   .     S
C275   N299    1.367   .     A
C275   H291    1.082   .     S
C276   N299    1.390   .     A
C276   O313    1.373   .     S
C277   N300    1.354   .     A
C277   H292    1.082   .     S
C277   C340    1.408   .     S
C278   O306    1.291   .     A
C278   O305    1.293   .     A
C279   O308    1.296   .     A
C279   C281    1.464   .     S
C279   O307    1.297   .     A
C280   C837    1.405   1_554 S
C280   H870    1.084   1_554 S
C282   C315    1.483   .     S
C282   C283    1.390   .     A
C283   C860    1.383   .     S
C283   H873    1.085   .     S
C284   H296    1.075   .     S
C284   C859    1.383   1_554 S
C284   C834    1.415   1_554 S
Cu285  O305    1.963   .     S
Cu285  N299    2.018   .     S
Cu285  O303    1.948   .     S
Cu285  Cu286   2.685   .     S
Cu285  O307    1.933   .     S
Cu285  O301    1.961   .     S
Cu286  O304    1.933   .     S
Cu286  N300    2.018   .     S
Cu286  O306    1.961   .     S
Cu286  O308    1.948   .     S
Cu286  O302    1.963   .     S
H294   C856    1.084   .     S
H297   C859    1.085   1_554 S
C309   O311    1.398   .     S
C309   O310    1.223   .     D
O311   H312    1.014   .     S
O313   H314    0.979   .     S
C315   O316    1.223   .     D
C315   O317    1.398   .     S
H318   O381    1.014   .     S
O319   H320    0.992   .     S
C321   C337    1.453   .     S
C321   O365    1.291   .     A
C321   O366    1.296   .     A
C322   C323    1.423   .     A
C322   C900    1.423   .     S
C322   C924    1.415   .     S
C323   C330    1.426   .     A
C323   C327    1.422   .     A
C324   C328    1.405   .     A
C324   C898    1.423   1_554 S
C324   C901    1.417   1_554 S
C325   C326    1.391   .     A
C325   C900    1.417   .     S
C325   C920    1.405   .     S
C326   C327    1.401   .     A
C326   H357    1.084   .     S
C327   O383    1.383   .     S
C328   H359    1.075   .     S
C328   C345    1.394   .     A
C329   C344    1.393   .     A
C329   C345    1.398   .     A
C329   H351    1.083   .     S
C330   C346    1.425   .     A
C330   C332    1.490   .     S
C331   H362    1.084   .     S
C331   C337    1.402   .     A
C331   C525    1.382   .     S
C332   O368    1.308   .     A
C332   O367    1.296   .     A
C333   H352    1.083   .     S
C333   C334    1.396   .     A
C334   C342    1.446   .     S
C334   C335    1.397   .     A
C335   H353    1.083   .     S
C336   C337    1.419   .     A
C336   C373    1.485   .     S
C336   C527    1.392   .     S
C338   N364    1.369   .     A
C338   H354    1.082   .     S
C338   C211    1.419   1_655 S
C339   N363    1.367   .     A
C339   H355    1.082   .     S
C340   N363    1.390   .     A
C340   O377    1.373   .     S
C341   N364    1.354   .     A
C341   H356    1.082   .     S
C341   C212    1.408   1_655 S
C342   O370    1.291   .     A
C342   O369    1.293   .     A
C343   O372    1.296   .     A
C343   C345    1.464   .     S
C343   O371    1.297   .     A
C344   C901    1.405   1_554 S
C344   H934    1.084   1_554 S
C346   C379    1.483   .     S
C346   C347    1.390   .     A
C347   C924    1.383   .     S
C347   H937    1.085   .     S
C348   H360    1.075   .     S
C348   C923    1.383   1_554 S
C348   C898    1.415   1_554 S
Cu349  O369    1.963   .     S
Cu349  N363    2.018   .     S
Cu349  O367    1.948   .     S
Cu349  Cu350   2.685   .     S
Cu349  O371    1.933   .     S
Cu349  O365    1.961   .     S
Cu350  O368    1.933   .     S
Cu350  N364    2.018   .     S
Cu350  O370    1.961   .     S
Cu350  O372    1.948   .     S
Cu350  O366    1.963   .     S
H358   C920    1.084   .     S
H361   C923    1.085   1_554 S
C373   O375    1.398   .     S
C373   O374    1.223   .     D
O375   H376    1.014   .     S
O377   H378    0.979   .     S
C379   O380    1.223   .     D
C379   O381    1.398   .     S
H382   O253    1.014   1_655 S
O383   H384    0.992   .     S
C385   C401    1.453   .     S
C385   O429    1.291   .     A
C385   O430    1.296   .     A
C386   C387    1.423   .     A
C386   C964    1.423   .     S
C386   C988    1.415   .     S
C387   C394    1.426   .     A
C387   C391    1.422   .     A
C388   C392    1.405   .     A
C388   C962    1.423   1_554 S
C388   C965    1.417   1_554 S
C389   C390    1.391   .     A
C389   C964    1.417   .     S
C389   C984    1.405   .     S
C390   C391    1.401   .     A
C390   H421    1.084   .     S
C391   O447    1.383   .     S
C392   H423    1.075   .     S
C392   C409    1.394   .     A
C393   C408    1.393   .     A
C393   C409    1.398   .     A
C393   H415    1.083   .     S
C394   C410    1.425   .     A
C394   C396    1.490   .     S
C395   H426    1.084   .     S
C395   C401    1.402   .     A
C395   C13     1.382   1_565 S
C396   O432    1.308   .     A
C396   O431    1.296   .     A
C397   H416    1.083   .     S
C397   C398    1.396   .     A
C398   C406    1.446   .     S
C398   C399    1.397   .     A
C399   H417    1.083   .     S
C400   C401    1.419   .     A
C400   C437    1.485   .     S
C400   C15     1.392   1_565 S
C402   N428    1.369   .     A
C402   H418    1.082   .     S
C402   C467    1.419   .     S
C403   N427    1.367   .     A
C403   H419    1.082   .     S
C403   C530    1.419   1_455 S
C404   N427    1.390   .     A
C404   O441    1.373   .     S
C404   C533    1.408   1_455 S
C405   N428    1.354   .     A
C405   H420    1.082   .     S
C405   C468    1.408   .     S
C406   O434    1.291   .     A
C406   O433    1.293   .     A
C407   O436    1.296   .     A
C407   C409    1.464   .     S
C407   O435    1.297   .     A
C408   C965    1.405   1_554 S
C408   H998    1.084   1_554 S
C410   C443    1.483   .     S
C410   C411    1.390   .     A
C411   C988    1.383   .     S
C411   H1001   1.085   .     S
C412   H424    1.075   .     S
C412   C987    1.383   1_554 S
C412   C962    1.415   1_554 S
Cu413  O433    1.963   .     S
Cu413  N427    2.018   .     S
Cu413  O431    1.948   .     S
Cu413  Cu414   2.685   .     S
Cu413  O435    1.933   .     S
Cu413  O429    1.961   .     S
Cu414  O432    1.933   .     S
Cu414  N428    2.018   .     S
Cu414  O434    1.961   .     S
Cu414  O436    1.948   .     S
Cu414  O430    1.963   .     S
H422   C984    1.084   .     S
H425   C987    1.085   1_554 S
C437   O439    1.398   .     S
C437   O438    1.223   .     D
O439   H440    1.014   .     S
O441   H442    0.979   .     S
C443   O444    1.223   .     D
C443   O445    1.398   .     S
O445   H574    1.014   1_455 S
H446   O509    1.014   .     S
O447   H448    0.992   .     S
C449   C465    1.453   .     S
C449   O493    1.291   .     A
C449   O494    1.296   .     A
C450   C451    1.423   .     A
C450   C1028   1.423   .     S
C450   C1052   1.415   .     S
C451   C458    1.426   .     A
C451   C455    1.422   .     A
C452   C456    1.405   .     A
C452   C1026   1.423   1_554 S
C452   C1029   1.417   1_554 S
C453   C454    1.391   .     A
C453   C1028   1.417   .     S
C453   C1048   1.405   .     S
C454   C455    1.401   .     A
C454   H485    1.084   .     S
C455   O511    1.383   .     S
C456   H487    1.075   .     S
C456   C473    1.394   .     A
C457   C472    1.393   .     A
C457   C473    1.398   .     A
C457   H479    1.083   .     S
C458   C474    1.425   .     A
C458   C460    1.490   .     S
C459   H490    1.084   .     S
C459   C465    1.402   .     A
C459   C77     1.382   1_565 S
C460   O496    1.308   .     A
C460   O495    1.296   .     A
C461   H480    1.083   .     S
C461   C462    1.396   .     A
C462   C470    1.446   .     S
C462   C463    1.397   .     A
C463   H481    1.083   .     S
C464   C465    1.419   .     A
C464   C501    1.485   .     S
C464   C79     1.392   1_565 S
C466   N492    1.369   .     A
C466   H482    1.082   .     S
C466   C531    1.419   .     S
C467   N491    1.367   .     A
C467   H483    1.082   .     S
C468   N491    1.390   .     A
C468   O505    1.373   .     S
C469   N492    1.354   .     A
C469   H484    1.082   .     S
C469   C532    1.408   .     S
C470   O498    1.291   .     A
C470   O497    1.293   .     A
C471   O500    1.296   .     A
C471   C473    1.464   .     S
C471   O499    1.297   .     A
C472   C1029   1.405   1_554 S
C472   H1062   1.084   1_554 S
C474   C507    1.483   .     S
C474   C475    1.390   .     A
C475   C1052   1.383   .     S
C475   H1065   1.085   .     S
C476   H488    1.075   .     S
C476   C1051   1.383   1_554 S
C476   C1026   1.415   1_554 S
Cu477  O497    1.963   .     S
Cu477  N491    2.018   .     S
Cu477  O495    1.948   .     S
Cu477  Cu478   2.685   .     S
Cu477  O499    1.933   .     S
Cu477  O493    1.961   .     S
Cu478  O496    1.933   .     S
Cu478  N492    2.018   .     S
Cu478  O498    1.961   .     S
Cu478  O500    1.948   .     S
Cu478  O494    1.963   .     S
H486   C1048   1.084   .     S
H489   C1051   1.085   1_554 S
C501   O503    1.398   .     S
C501   O502    1.223   .     D
O503   H504    1.014   .     S
O505   H506    0.979   .     S
C507   O508    1.223   .     D
C507   O509    1.398   .     S
H510   O573    1.014   .     S
O511   H512    0.992   .     S
C513   C529    1.453   .     S
C513   O557    1.291   .     A
C513   O558    1.296   .     A
C514   C515    1.423   .     A
C514   C1092   1.423   .     S
C514   C1116   1.415   .     S
C515   C522    1.426   .     A
C515   C519    1.422   .     A
C516   C520    1.405   .     A
C516   C1090   1.423   1_554 S
C516   C1093   1.417   1_554 S
C517   C518    1.391   .     A
C517   C1092   1.417   .     S
C517   C1112   1.405   .     S
C518   C519    1.401   .     A
C518   H549    1.084   .     S
C519   O575    1.383   .     S
C520   H551    1.075   .     S
C520   C537    1.394   .     A
C521   C536    1.393   .     A
C521   C537    1.398   .     A
C521   H543    1.083   .     S
C522   C538    1.425   .     A
C522   C524    1.490   .     S
C523   H554    1.084   .     S
C523   C529    1.402   .     A
C523   C141    1.382   1_565 S
C524   O560    1.308   .     A
C524   O559    1.296   .     A
C525   H544    1.083   .     S
C525   C526    1.396   .     A
C526   C534    1.446   .     S
C526   C527    1.397   .     A
C527   H545    1.083   .     S
C528   C529    1.419   .     A
C528   C565    1.485   .     S
C528   C143    1.392   1_565 S
C530   N556    1.369   .     A
C530   H546    1.082   .     S
C530   C403    1.419   1_655 S
C531   N555    1.367   .     A
C531   H547    1.082   .     S
C532   N555    1.390   .     A
C532   O569    1.373   .     S
C533   N556    1.354   .     A
C533   H548    1.082   .     S
C533   C404    1.408   1_655 S
C534   O562    1.291   .     A
C534   O561    1.293   .     A
C535   O564    1.296   .     A
C535   C537    1.464   .     S
C535   O563    1.297   .     A
C536   C1093   1.405   1_554 S
C536   H1126   1.084   1_554 S
C538   C571    1.483   .     S
C538   C539    1.390   .     A
C539   C1116   1.383   .     S
C539   H1129   1.085   .     S
C540   H552    1.075   .     S
C540   C1115   1.383   1_554 S
C540   C1090   1.415   1_554 S
Cu541  O561    1.963   .     S
Cu541  N555    2.018   .     S
Cu541  O559    1.948   .     S
Cu541  Cu542   2.685   .     S
Cu541  O563    1.933   .     S
Cu541  O557    1.961   .     S
Cu542  O560    1.933   .     S
Cu542  N556    2.018   .     S
Cu542  O562    1.961   .     S
Cu542  O564    1.948   .     S
Cu542  O558    1.963   .     S
H550   C1112   1.084   .     S
H553   C1115   1.085   1_554 S
C565   O567    1.398   .     S
C565   O566    1.223   .     D
O567   H568    1.014   .     S
O569   H570    0.979   .     S
C571   O572    1.223   .     D
C571   O573    1.398   .     S
H574   O445    1.014   1_655 S
O575   H576    0.992   .     S
C577   C593    1.453   .     S
C577   O621    1.291   .     A
C577   O622    1.296   .     A
C578   C579    1.423   .     A
C578   C4      1.423   1_556 S
C578   C28     1.415   1_556 S
C579   C586    1.426   .     A
C579   C583    1.422   .     A
C580   C584    1.405   .     A
C581   C582    1.391   .     A
C581   C4      1.417   1_556 S
C581   C24     1.405   1_556 S
C582   C583    1.401   .     A
C582   H613    1.084   .     S
C583   O639    1.383   .     S
C584   H615    1.075   .     S
C584   C601    1.394   .     A
C585   C600    1.393   .     A
C585   C601    1.398   .     A
C585   H607    1.083   .     S
C586   C602    1.425   .     A
C586   C588    1.490   .     S
C587   H618    1.084   .     S
C587   C593    1.402   .     A
C587   C781    1.382   .     S
C588   O624    1.308   .     A
C588   O623    1.296   .     A
C589   H608    1.083   .     S
C589   C590    1.396   .     A
C589   C971    1.382   1_545 S
C590   C598    1.446   .     S
C590   C591    1.397   .     A
C591   H609    1.083   .     S
C591   C976    1.392   1_545 S
C592   C593    1.419   .     A
C592   C629    1.485   .     S
C592   C783    1.392   .     S
C594   N620    1.369   .     A
C594   H610    1.082   .     S
C594   C659    1.419   .     S
C595   N619    1.367   .     A
C595   H611    1.082   .     S
C595   C722    1.419   1_455 S
C596   N619    1.390   .     A
C596   O633    1.373   .     S
C596   C725    1.408   1_455 S
C597   N620    1.354   .     A
C597   H612    1.082   .     S
C597   C660    1.408   .     S
C598   O626    1.291   .     A
C598   O625    1.293   .     A
C599   O628    1.296   .     A
C599   C601    1.464   .     S
C599   O627    1.297   .     A
C602   C635    1.483   .     S
C602   C603    1.390   .     A
C603   C28     1.383   1_556 S
C603   H41     1.085   1_556 S
C604   H616    1.075   .     S
Cu605  O625    1.963   .     S
Cu605  N619    2.018   .     S
Cu605  O623    1.948   .     S
Cu605  Cu606   2.685   .     S
Cu605  O627    1.933   .     S
Cu605  O621    1.961   .     S
Cu606  O624    1.933   .     S
Cu606  N620    2.018   .     S
Cu606  O626    1.961   .     S
Cu606  O628    1.948   .     S
Cu606  O622    1.963   .     S
H614   C24     1.084   1_556 S
C629   O631    1.398   .     S
C629   O630    1.223   .     D
O631   H632    1.014   .     S
O633   H634    0.979   .     S
C635   O636    1.223   .     D
C635   O637    1.398   .     S
O637   H766    1.014   1_455 S
H638   O701    1.014   .     S
O639   H640    0.992   .     S
C641   C657    1.453   .     S
C641   O685    1.291   .     A
C641   O686    1.296   .     A
C642   C643    1.423   .     A
C642   C68     1.423   1_556 S
C642   C92     1.415   1_556 S
C643   C650    1.426   .     A
C643   C647    1.422   .     A
C644   C648    1.405   .     A
C645   C646    1.391   .     A
C645   C68     1.417   1_556 S
C645   C88     1.405   1_556 S
C646   C647    1.401   .     A
C646   H677    1.084   .     S
C647   O703    1.383   .     S
C648   H679    1.075   .     S
C648   C665    1.394   .     A
C649   C664    1.393   .     A
C649   C665    1.398   .     A
C649   H671    1.083   .     S
C650   C666    1.425   .     A
C650   C652    1.490   .     S
C651   H682    1.084   .     S
C651   C657    1.402   .     A
C651   C845    1.382   .     S
C652   O688    1.308   .     A
C652   O687    1.296   .     A
C653   H672    1.083   .     S
C653   C654    1.396   .     A
C653   C1035   1.382   1_545 S
C654   C662    1.446   .     S
C654   C655    1.397   .     A
C655   H673    1.083   .     S
C655   C1040   1.392   1_545 S
C656   C657    1.419   .     A
C656   C693    1.485   .     S
C656   C847    1.392   .     S
C658   N684    1.369   .     A
C658   H674    1.082   .     S
C658   C723    1.419   .     S
C659   N683    1.367   .     A
C659   H675    1.082   .     S
C660   N683    1.390   .     A
C660   O697    1.373   .     S
C661   N684    1.354   .     A
C661   H676    1.082   .     S
C661   C724    1.408   .     S
C662   O690    1.291   .     A
C662   O689    1.293   .     A
C663   O692    1.296   .     A
C663   C665    1.464   .     S
C663   O691    1.297   .     A
C666   C699    1.483   .     S
C666   C667    1.390   .     A
C667   C92     1.383   1_556 S
C667   H105    1.085   1_556 S
C668   H680    1.075   .     S
Cu669  O689    1.963   .     S
Cu669  N683    2.018   .     S
Cu669  O687    1.948   .     S
Cu669  Cu670   2.685   .     S
Cu669  O691    1.933   .     S
Cu669  O685    1.961   .     S
Cu670  O688    1.933   .     S
Cu670  N684    2.018   .     S
Cu670  O690    1.961   .     S
Cu670  O692    1.948   .     S
Cu670  O686    1.963   .     S
H678   C88     1.084   1_556 S
C693   O695    1.398   .     S
C693   O694    1.223   .     D
O695   H696    1.014   .     S
O697   H698    0.979   .     S
C699   O700    1.223   .     D
C699   O701    1.398   .     S
H702   O765    1.014   .     S
O703   H704    0.992   .     S
C705   C721    1.453   .     S
C705   O749    1.291   .     A
C705   O750    1.296   .     A
C706   C707    1.423   .     A
C706   C132    1.423   1_556 S
C706   C156    1.415   1_556 S
C707   C714    1.426   .     A
C707   C711    1.422   .     A
C708   C712    1.405   .     A
C709   C710    1.391   .     A
C709   C132    1.417   1_556 S
C709   C152    1.405   1_556 S
C710   C711    1.401   .     A
C710   H741    1.084   .     S
C711   O767    1.383   .     S
C712   H743    1.075   .     S
C712   C729    1.394   .     A
C713   C728    1.393   .     A
C713   C729    1.398   .     A
C713   H735    1.083   .     S
C714   C730    1.425   .     A
C714   C716    1.490   .     S
C715   H746    1.084   .     S
C715   C721    1.402   .     A
C715   C909    1.382   .     S
C716   O752    1.308   .     A
C716   O751    1.296   .     A
C717   H736    1.083   .     S
C717   C718    1.396   .     A
C717   C1099   1.382   1_545 S
C718   C726    1.446   .     S
C718   C719    1.397   .     A
C719   H737    1.083   .     S
C719   C1104   1.392   1_545 S
C720   C721    1.419   .     A
C720   C757    1.485   .     S
C720   C911    1.392   .     S
C722   N748    1.369   .     A
C722   H738    1.082   .     S
C722   C595    1.419   1_655 S
C723   N747    1.367   .     A
C723   H739    1.082   .     S
C724   N747    1.390   .     A
C724   O761    1.373   .     S
C725   N748    1.354   .     A
C725   H740    1.082   .     S
C725   C596    1.408   1_655 S
C726   O754    1.291   .     A
C726   O753    1.293   .     A
C727   O756    1.296   .     A
C727   C729    1.464   .     S
C727   O755    1.297   .     A
C730   C763    1.483   .     S
C730   C731    1.390   .     A
C731   C156    1.383   1_556 S
C731   H169    1.085   1_556 S
C732   H744    1.075   .     S
Cu733  O753    1.963   .     S
Cu733  N747    2.018   .     S
Cu733  O751    1.948   .     S
Cu733  Cu734   2.685   .     S
Cu733  O755    1.933   .     S
Cu733  O749    1.961   .     S
Cu734  O752    1.933   .     S
Cu734  N748    2.018   .     S
Cu734  O754    1.961   .     S
Cu734  O756    1.948   .     S
Cu734  O750    1.963   .     S
H742   C152    1.084   1_556 S
C757   O759    1.398   .     S
C757   O758    1.223   .     D
O759   H760    1.014   .     S
O761   H762    0.979   .     S
C763   O764    1.223   .     D
C763   O765    1.398   .     S
H766   O637    1.014   1_655 S
O767   H768    0.992   .     S
C769   C785    1.453   .     S
C769   O813    1.291   .     A
C769   O814    1.296   .     A
C770   C771    1.423   .     A
C770   C196    1.423   1_556 S
C770   C220    1.415   1_556 S
C771   C778    1.426   .     A
C771   C775    1.422   .     A
C772   C776    1.405   .     A
C773   C774    1.391   .     A
C773   C196    1.417   1_556 S
C773   C216    1.405   1_556 S
C774   C775    1.401   .     A
C774   H805    1.084   .     S
C775   O831    1.383   .     S
C776   H807    1.075   .     S
C776   C793    1.394   .     A
C777   C792    1.393   .     A
C777   C793    1.398   .     A
C777   H799    1.083   .     S
C778   C794    1.425   .     A
C778   C780    1.490   .     S
C779   H810    1.084   .     S
C779   C785    1.402   .     A
C779   C973    1.382   .     S
C780   O816    1.308   .     A
C780   O815    1.296   .     A
C781   H800    1.083   .     S
C781   C782    1.396   .     A
C782   C790    1.446   .     S
C782   C783    1.397   .     A
C783   H801    1.083   .     S
C784   C785    1.419   .     A
C784   C821    1.485   .     S
C784   C975    1.392   .     S
C786   N812    1.369   .     A
C786   H802    1.082   .     S
C786   C851    1.419   .     S
C787   N811    1.367   .     A
C787   H803    1.082   .     S
C787   C914    1.419   1_455 S
C788   N811    1.390   .     A
C788   O825    1.373   .     S
C788   C917    1.408   1_455 S
C789   N812    1.354   .     A
C789   H804    1.082   .     S
C789   C852    1.408   .     S
C790   O818    1.291   .     A
C790   O817    1.293   .     A
C791   O820    1.296   .     A
C791   C793    1.464   .     S
C791   O819    1.297   .     A
C794   C827    1.483   .     S
C794   C795    1.390   .     A
C795   C220    1.383   1_556 S
C795   H233    1.085   1_556 S
C796   H808    1.075   .     S
Cu797  O817    1.963   .     S
Cu797  N811    2.018   .     S
Cu797  O815    1.948   .     S
Cu797  Cu798   2.685   .     S
Cu797  O819    1.933   .     S
Cu797  O813    1.961   .     S
Cu798  O816    1.933   .     S
Cu798  N812    2.018   .     S
Cu798  O818    1.961   .     S
Cu798  O820    1.948   .     S
Cu798  O814    1.963   .     S
H806   C216    1.084   1_556 S
C821   O823    1.398   .     S
C821   O822    1.223   .     D
O823   H824    1.014   .     S
O825   H826    0.979   .     S
C827   O828    1.223   .     D
C827   O829    1.398   .     S
O829   H958    1.014   1_455 S
H830   O893    1.014   .     S
O831   H832    0.992   .     S
C833   C849    1.453   .     S
C833   O877    1.291   .     A
C833   O878    1.296   .     A
C834   C835    1.423   .     A
C834   C260    1.423   1_556 S
C834   C284    1.415   1_556 S
C835   C842    1.426   .     A
C835   C839    1.422   .     A
C836   C840    1.405   .     A
C837   C838    1.391   .     A
C837   C260    1.417   1_556 S
C837   C280    1.405   1_556 S
C838   C839    1.401   .     A
C838   H869    1.084   .     S
C839   O895    1.383   .     S
C840   H871    1.075   .     S
C840   C857    1.394   .     A
C841   C856    1.393   .     A
C841   C857    1.398   .     A
C841   H863    1.083   .     S
C842   C858    1.425   .     A
C842   C844    1.490   .     S
C843   H874    1.084   .     S
C843   C849    1.402   .     A
C843   C1037   1.382   .     S
C844   O880    1.308   .     A
C844   O879    1.296   .     A
C845   H864    1.083   .     S
C845   C846    1.396   .     A
C846   C854    1.446   .     S
C846   C847    1.397   .     A
C847   H865    1.083   .     S
C848   C849    1.419   .     A
C848   C885    1.485   .     S
C848   C1039   1.392   .     S
C850   N876    1.369   .     A
C850   H866    1.082   .     S
C850   C915    1.419   .     S
C851   N875    1.367   .     A
C851   H867    1.082   .     S
C852   N875    1.390   .     A
C852   O889    1.373   .     S
C853   N876    1.354   .     A
C853   H868    1.082   .     S
C853   C916    1.408   .     S
C854   O882    1.291   .     A
C854   O881    1.293   .     A
C855   O884    1.296   .     A
C855   C857    1.464   .     S
C855   O883    1.297   .     A
C858   C891    1.483   .     S
C858   C859    1.390   .     A
C859   C284    1.383   1_556 S
C859   H297    1.085   1_556 S
C860   H872    1.075   .     S
Cu861  O881    1.963   .     S
Cu861  N875    2.018   .     S
Cu861  O879    1.948   .     S
Cu861  Cu862   2.685   .     S
Cu861  O883    1.933   .     S
Cu861  O877    1.961   .     S
Cu862  O880    1.933   .     S
Cu862  N876    2.018   .     S
Cu862  O882    1.961   .     S
Cu862  O884    1.948   .     S
Cu862  O878    1.963   .     S
H870   C280    1.084   1_556 S
C885   O887    1.398   .     S
C885   O886    1.223   .     D
O887   H888    1.014   .     S
O889   H890    0.979   .     S
C891   O892    1.223   .     D
C891   O893    1.398   .     S
H894   O957    1.014   .     S
O895   H896    0.992   .     S
C897   C913    1.453   .     S
C897   O941    1.291   .     A
C897   O942    1.296   .     A
C898   C899    1.423   .     A
C898   C324    1.423   1_556 S
C898   C348    1.415   1_556 S
C899   C906    1.426   .     A
C899   C903    1.422   .     A
C900   C904    1.405   .     A
C901   C902    1.391   .     A
C901   C324    1.417   1_556 S
C901   C344    1.405   1_556 S
C902   C903    1.401   .     A
C902   H933    1.084   .     S
C903   O959    1.383   .     S
C904   H935    1.075   .     S
C904   C921    1.394   .     A
C905   C920    1.393   .     A
C905   C921    1.398   .     A
C905   H927    1.083   .     S
C906   C922    1.425   .     A
C906   C908    1.490   .     S
C907   H938    1.084   .     S
C907   C913    1.402   .     A
C907   C1101   1.382   .     S
C908   O944    1.308   .     A
C908   O943    1.296   .     A
C909   H928    1.083   .     S
C909   C910    1.396   .     A
C910   C918    1.446   .     S
C910   C911    1.397   .     A
C911   H929    1.083   .     S
C912   C913    1.419   .     A
C912   C949    1.485   .     S
C912   C1103   1.392   .     S
C914   N940    1.369   .     A
C914   H930    1.082   .     S
C914   C787    1.419   1_655 S
C915   N939    1.367   .     A
C915   H931    1.082   .     S
C916   N939    1.390   .     A
C916   O953    1.373   .     S
C917   N940    1.354   .     A
C917   H932    1.082   .     S
C917   C788    1.408   1_655 S
C918   O946    1.291   .     A
C918   O945    1.293   .     A
C919   O948    1.296   .     A
C919   C921    1.464   .     S
C919   O947    1.297   .     A
C922   C955    1.483   .     S
C922   C923    1.390   .     A
C923   C348    1.383   1_556 S
C923   H361    1.085   1_556 S
C924   H936    1.075   .     S
Cu925  O945    1.963   .     S
Cu925  N939    2.018   .     S
Cu925  O943    1.948   .     S
Cu925  Cu926   2.685   .     S
Cu925  O947    1.933   .     S
Cu925  O941    1.961   .     S
Cu926  O944    1.933   .     S
Cu926  N940    2.018   .     S
Cu926  O946    1.961   .     S
Cu926  O948    1.948   .     S
Cu926  O942    1.963   .     S
H934   C344    1.084   1_556 S
C949   O951    1.398   .     S
C949   O950    1.223   .     D
O951   H952    1.014   .     S
O953   H954    0.979   .     S
C955   O956    1.223   .     D
C955   O957    1.398   .     S
H958   O829    1.014   1_655 S
O959   H960    0.992   .     S
C961   C977    1.453   .     S
C961   O1005   1.291   .     A
C961   O1006   1.296   .     A
C962   C963    1.423   .     A
C962   C388    1.423   1_556 S
C962   C412    1.415   1_556 S
C963   C970    1.426   .     A
C963   C967    1.422   .     A
C964   C968    1.405   .     A
C965   C966    1.391   .     A
C965   C388    1.417   1_556 S
C965   C408    1.405   1_556 S
C966   C967    1.401   .     A
C966   H997    1.084   .     S
C967   O1023   1.383   .     S
C968   H999    1.075   .     S
C968   C985    1.394   .     A
C969   C984    1.393   .     A
C969   C985    1.398   .     A
C969   H991    1.083   .     S
C970   C986    1.425   .     A
C970   C972    1.490   .     S
C971   H1002   1.084   .     S
C971   C977    1.402   .     A
C971   C589    1.382   1_565 S
C972   O1008   1.308   .     A
C972   O1007   1.296   .     A
C973   H992    1.083   .     S
C973   C974    1.396   .     A
C974   C982    1.446   .     S
C974   C975    1.397   .     A
C975   H993    1.083   .     S
C976   C977    1.419   .     A
C976   C1013   1.485   .     S
C976   C591    1.392   1_565 S
C978   N1004   1.369   .     A
C978   H994    1.082   .     S
C978   C1043   1.419   .     S
C979   N1003   1.367   .     A
C979   H995    1.082   .     S
C979   C1106   1.419   1_455 S
C980   N1003   1.390   .     A
C980   O1017   1.373   .     S
C980   C1109   1.408   1_455 S
C981   N1004   1.354   .     A
C981   H996    1.082   .     S
C981   C1044   1.408   .     S
C982   O1010   1.291   .     A
C982   O1009   1.293   .     A
C983   O1012   1.296   .     A
C983   C985    1.464   .     S
C983   O1011   1.297   .     A
C986   C1019   1.483   .     S
C986   C987    1.390   .     A
C987   C412    1.383   1_556 S
C987   H425    1.085   1_556 S
C988   H1000   1.075   .     S
Cu989  O1009   1.963   .     S
Cu989  N1003   2.018   .     S
Cu989  O1007   1.948   .     S
Cu989  Cu990   2.685   .     S
Cu989  O1011   1.933   .     S
Cu989  O1005   1.961   .     S
Cu990  O1008   1.933   .     S
Cu990  N1004   2.018   .     S
Cu990  O1010   1.961   .     S
Cu990  O1012   1.948   .     S
Cu990  O1006   1.963   .     S
H998   C408    1.084   1_556 S
C1013  O1015   1.398   .     S
C1013  O1014   1.223   .     D
O1015  H1016   1.014   .     S
O1017  H1018   0.979   .     S
C1019  O1020   1.223   .     D
C1019  O1021   1.398   .     S
O1021  H1150   1.014   1_455 S
H1022  O1085   1.014   .     S
O1023  H1024   0.992   .     S
C1025  C1041   1.453   .     S
C1025  O1069   1.291   .     A
C1025  O1070   1.296   .     A
C1026  C1027   1.423   .     A
C1026  C452    1.423   1_556 S
C1026  C476    1.415   1_556 S
C1027  C1034   1.426   .     A
C1027  C1031   1.422   .     A
C1028  C1032   1.405   .     A
C1029  C1030   1.391   .     A
C1029  C452    1.417   1_556 S
C1029  C472    1.405   1_556 S
C1030  C1031   1.401   .     A
C1030  H1061   1.084   .     S
C1031  O1087   1.383   .     S
C1032  H1063   1.075   .     S
C1032  C1049   1.394   .     A
C1033  C1048   1.393   .     A
C1033  C1049   1.398   .     A
C1033  H1055   1.083   .     S
C1034  C1050   1.425   .     A
C1034  C1036   1.490   .     S
C1035  H1066   1.084   .     S
C1035  C1041   1.402   .     A
C1035  C653    1.382   1_565 S
C1036  O1072   1.308   .     A
C1036  O1071   1.296   .     A
C1037  H1056   1.083   .     S
C1037  C1038   1.396   .     A
C1038  C1046   1.446   .     S
C1038  C1039   1.397   .     A
C1039  H1057   1.083   .     S
C1040  C1041   1.419   .     A
C1040  C1077   1.485   .     S
C1040  C655    1.392   1_565 S
C1042  N1068   1.369   .     A
C1042  H1058   1.082   .     S
C1042  C1107   1.419   .     S
C1043  N1067   1.367   .     A
C1043  H1059   1.082   .     S
C1044  N1067   1.390   .     A
C1044  O1081   1.373   .     S
C1045  N1068   1.354   .     A
C1045  H1060   1.082   .     S
C1045  C1108   1.408   .     S
C1046  O1074   1.291   .     A
C1046  O1073   1.293   .     A
C1047  O1076   1.296   .     A
C1047  C1049   1.464   .     S
C1047  O1075   1.297   .     A
C1050  C1083   1.483   .     S
C1050  C1051   1.390   .     A
C1051  C476    1.383   1_556 S
C1051  H489    1.085   1_556 S
C1052  H1064   1.075   .     S
Cu1053 O1073   1.963   .     S
Cu1053 N1067   2.018   .     S
Cu1053 O1071   1.948   .     S
Cu1053 Cu1054  2.685   .     S
Cu1053 O1075   1.933   .     S
Cu1053 O1069   1.961   .     S
Cu1054 O1072   1.933   .     S
Cu1054 N1068   2.018   .     S
Cu1054 O1074   1.961   .     S
Cu1054 O1076   1.948   .     S
Cu1054 O1070   1.963   .     S
H1062  C472    1.084   1_556 S
C1077  O1079   1.398   .     S
C1077  O1078   1.223   .     D
O1079  H1080   1.014   .     S
O1081  H1082   0.979   .     S
C1083  O1084   1.223   .     D
C1083  O1085   1.398   .     S
H1086  O1149   1.014   .     S
O1087  H1088   0.992   .     S
C1089  C1105   1.453   .     S
C1089  O1133   1.291   .     A
C1089  O1134   1.296   .     A
C1090  C1091   1.423   .     A
C1090  C516    1.423   1_556 S
C1090  C540    1.415   1_556 S
C1091  C1098   1.426   .     A
C1091  C1095   1.422   .     A
C1092  C1096   1.405   .     A
C1093  C1094   1.391   .     A
C1093  C516    1.417   1_556 S
C1093  C536    1.405   1_556 S
C1094  C1095   1.401   .     A
C1094  H1125   1.084   .     S
C1095  O1151   1.383   .     S
C1096  H1127   1.075   .     S
C1096  C1113   1.394   .     A
C1097  C1112   1.393   .     A
C1097  C1113   1.398   .     A
C1097  H1119   1.083   .     S
C1098  C1114   1.425   .     A
C1098  C1100   1.490   .     S
C1099  H1130   1.084   .     S
C1099  C1105   1.402   .     A
C1099  C717    1.382   1_565 S
C1100  O1136   1.308   .     A
C1100  O1135   1.296   .     A
C1101  H1120   1.083   .     S
C1101  C1102   1.396   .     A
C1102  C1110   1.446   .     S
C1102  C1103   1.397   .     A
C1103  H1121   1.083   .     S
C1104  C1105   1.419   .     A
C1104  C1141   1.485   .     S
C1104  C719    1.392   1_565 S
C1106  N1132   1.369   .     A
C1106  H1122   1.082   .     S
C1106  C979    1.419   1_655 S
C1107  N1131   1.367   .     A
C1107  H1123   1.082   .     S
C1108  N1131   1.390   .     A
C1108  O1145   1.373   .     S
C1109  N1132   1.354   .     A
C1109  H1124   1.082   .     S
C1109  C980    1.408   1_655 S
C1110  O1138   1.291   .     A
C1110  O1137   1.293   .     A
C1111  O1140   1.296   .     A
C1111  C1113   1.464   .     S
C1111  O1139   1.297   .     A
C1114  C1147   1.483   .     S
C1114  C1115   1.390   .     A
C1115  C540    1.383   1_556 S
C1115  H553    1.085   1_556 S
C1116  H1128   1.075   .     S
Cu1117 O1137   1.963   .     S
Cu1117 N1131   2.018   .     S
Cu1117 O1135   1.948   .     S
Cu1117 Cu1118  2.685   .     S
Cu1117 O1139   1.933   .     S
Cu1117 O1133   1.961   .     S
Cu1118 O1136   1.933   .     S
Cu1118 N1132   2.018   .     S
Cu1118 O1138   1.961   .     S
Cu1118 O1140   1.948   .     S
Cu1118 O1134   1.963   .     S
H1126  C536    1.084   1_556 S
C1141  O1143   1.398   .     S
C1141  O1142   1.223   .     D
O1143  H1144   1.014   .     S
O1145  H1146   0.979   .     S
C1147  O1148   1.223   .     D
C1147  O1149   1.398   .     S
H1150  O1021   1.014   1_655 S
O1151  H1152   0.992   .     S
