data_str_m2_o2_o10_pcu_sym.250
_audit_creation_date              2020-01-03
_audit_creation_method            'Materials Studio'
_symmetry_space_group_name_H-M    'P1'
_symmetry_Int_Tables_number       1
_symmetry_cell_setting            triclinic
loop_
_symmetry_equiv_pos_as_xyz
  x,y,z
_cell_length_a                    26.3080
_cell_length_b                    30.2873
_cell_length_c                    28.0173
_cell_angle_alpha                 89.8141
_cell_angle_beta                  97.4926
_cell_angle_gamma                 93.5525
loop_
_atom_site_label
_atom_site_type_symbol
_atom_site_fract_x
_atom_site_fract_y
_atom_site_fract_z
_atom_site_U_iso_or_equiv
_atom_site_adp_type
_atom_site_occupancy
C1     C     0.16683   0.16508   0.25002   0.00000  Uiso   1.00
C2     C     0.16671   0.33497   0.24991   0.00000  Uiso   1.00
C3     C     0.21008   0.26778   0.05892   0.00000  Uiso   1.00
C4     C     0.14541   0.21323   0.44416   0.00000  Uiso   1.00
C5     C     0.20693   0.27128   0.10921   0.00000  Uiso   1.00
C6     C     0.14069   0.21602   0.39285   0.00000  Uiso   1.00
C7     C     0.12737   0.22850   0.09892   0.00000  Uiso   1.00
C8     C     0.19262   0.28344   0.39937   0.00000  Uiso   1.00
C9     C     0.12579   0.23165   0.04844   0.00000  Uiso   1.00
C10    C     0.18913   0.28497   0.44924   0.00000  Uiso   1.00
C11    C     0.16764   0.24994   0.02736   0.00000  Uiso   1.00
C12    C     0.16705   0.24945   0.47292   0.00000  Uiso   1.00
C13    C     0.06818   0.24883   0.23791   0.00000  Uiso   1.00
C14    C     0.26514   0.25088   0.26211   0.00000  Uiso   1.00
C15    C     0.01302   0.24344   0.23211   0.00000  Uiso   1.00
C16    C     0.32033   0.25579   0.26809   0.00000  Uiso   1.00
C17    C     0.15015   0.04649   0.28742   0.00000  Uiso   1.00
C18    C     0.15464   0.45180   0.20607   0.00000  Uiso   1.00
C19    C     0.15061   0.09236   0.28795   0.00000  Uiso   1.00
C20    C     0.15462   0.40587   0.20624   0.00000  Uiso   1.00
C21    C     0.16738   0.11687   0.24989   0.00000  Uiso   1.00
C22    C     0.16684   0.38328   0.24961   0.00000  Uiso   1.00
C23    C     0.18445   0.09496   0.21150   0.00000  Uiso   1.00
C24    C     0.17938   0.40723   0.29267   0.00000  Uiso   1.00
C25    C     0.18493   0.04905   0.21136   0.00000  Uiso   1.00
C26    C     0.18032   0.45312   0.29241   0.00000  Uiso   1.00
C27    C     0.16755   0.02441   0.24924   0.00000  Uiso   1.00
C28    C     0.16764   0.47583   0.24917   0.00000  Uiso   1.00
Cu29   Cu    0.16667   0.24999   0.29822   0.00000  Uiso   1.00
Cu30   Cu    0.16667   0.25000   0.20179   0.00000  Uiso   1.00
H31    H     0.13561   0.02833   0.31664   0.00000  Uiso   1.00
H32    H     0.14380   0.46842   0.17234   0.00000  Uiso   1.00
H33    H     0.13711   0.10851   0.31777   0.00000  Uiso   1.00
H34    H     0.14439   0.38805   0.17256   0.00000  Uiso   1.00
H35    H     0.19812   0.11331   0.18194   0.00000  Uiso   1.00
H36    H     0.18901   0.39063   0.32652   0.00000  Uiso   1.00
H37    H     0.19944   0.03294   0.18192   0.00000  Uiso   1.00
H38    H     0.19144   0.47080   0.32604   0.00000  Uiso   1.00
H39    H     0.09224   0.21809   0.02549   0.00000  Uiso   1.00
H40    H     0.20561   0.31360   0.47003   0.00000  Uiso   1.00
N41    N     0.16667   0.25001   0.12935   0.00000  Uiso   1.00
N42    N     0.16667   0.24999   0.37066   0.00000  Uiso   1.00
O43    O     0.16667   0.18572   0.29072   0.00000  Uiso   1.00
O44    O     0.16666   0.31427   0.20929   0.00000  Uiso   1.00
O45    O     0.16667   0.18573   0.20928   0.00000  Uiso   1.00
O46    O     0.16666   0.31427   0.29072   0.00000  Uiso   1.00
O47    O     0.09161   0.24999   0.28132   0.00000  Uiso   1.00
O48    O     0.24172   0.25000   0.21868   0.00000  Uiso   1.00
O49    O     0.09161   0.25000   0.19989   0.00000  Uiso   1.00
O50    O     0.24172   0.25000   0.30012   0.00000  Uiso   1.00
O51    O     0.32168   0.22549   0.18910   0.00000  Uiso   1.00
C52    C     0.31774   0.17903   0.19357   0.00000  Uiso   1.00
H53    H     0.02285   0.16533   0.20175   0.00000  Uiso   1.00
H54    H     0.29923   0.16460   0.15879   0.00000  Uiso   1.00
H55    H     0.29318   0.16859   0.22159   0.00000  Uiso   1.00
O56    O     0.01168   0.27316   0.31139   0.00000  Uiso   1.00
C57    C     0.01536   0.31971   0.30776   0.00000  Uiso   1.00
H58    H     0.31025   0.33334   0.29913   0.00000  Uiso   1.00
H59    H     0.04047   0.33071   0.28039   0.00000  Uiso   1.00
H60    H     0.03308   0.33372   0.34300   0.00000  Uiso   1.00
O61    O     0.25405   0.28390   0.04082   0.00000  Uiso   1.00
C62    C     0.28503   0.24824   0.03576   0.00000  Uiso   1.00
H63    H     0.32266   0.26163   0.02640   0.00000  Uiso   1.00
H64    H     0.26747   0.22569   0.00610   0.00000  Uiso   1.00
H65    H     0.29252   0.22941   0.06991   0.00000  Uiso   1.00
O66    O     0.12679   0.17559   0.46587   0.00000  Uiso   1.00
C67    C     0.16772   0.14794   0.47790   0.00000  Uiso   1.00
H68    H     0.19732   0.16350   0.00577   0.00000  Uiso   1.00
H69    H     0.18549   0.13897   0.44556   0.00000  Uiso   1.00
H70    H     0.15239   0.11683   0.49322   0.00000  Uiso   1.00
C71    C     0.24703   0.29963   0.13895   0.00000  Uiso   1.00
H72    H     0.23822   0.31765   0.16950   0.00000  Uiso   1.00
O73    O     0.29106   0.30384   0.12944   0.00000  Uiso   1.00
C74    C     0.10550   0.18259   0.36417   0.00000  Uiso   1.00
H75    H     0.09083   0.18811   0.32731   0.00000  Uiso   1.00
O76    O     0.09070   0.14798   0.38179   0.00000  Uiso   1.00
C77    C     0.08694   0.19949   0.11733   0.00000  Uiso   1.00
H78    H     0.09290   0.18510   0.15258   0.00000  Uiso   1.00
O79    O     0.04634   0.18970   0.09220   0.00000  Uiso   1.00
C80    C     0.22681   0.31796   0.38020   0.00000  Uiso   1.00
H81    H     0.24169   0.31359   0.34677   0.00000  Uiso   1.00
O82    O     0.24047   0.35202   0.40279   0.00000  Uiso   1.00
C83    C     0.50016   0.16508   0.25002   0.00000  Uiso   1.00
C84    C     0.50005   0.33497   0.24991   0.00000  Uiso   1.00
C85    C     0.54341   0.26778   0.05892   0.00000  Uiso   1.00
C86    C     0.47874   0.21323   0.44416   0.00000  Uiso   1.00
C87    C     0.54026   0.27128   0.10921   0.00000  Uiso   1.00
C88    C     0.47402   0.21602   0.39285   0.00000  Uiso   1.00
C89    C     0.46070   0.22850   0.09892   0.00000  Uiso   1.00
C90    C     0.52596   0.28344   0.39937   0.00000  Uiso   1.00
C91    C     0.45912   0.23165   0.04844   0.00000  Uiso   1.00
C92    C     0.52246   0.28497   0.44924   0.00000  Uiso   1.00
C93    C     0.50097   0.24994   0.02736   0.00000  Uiso   1.00
C94    C     0.50038   0.24945   0.47292   0.00000  Uiso   1.00
C95    C     0.40151   0.24883   0.23791   0.00000  Uiso   1.00
C96    C     0.59848   0.25088   0.26211   0.00000  Uiso   1.00
C97    C     0.34635   0.24344   0.23211   0.00000  Uiso   1.00
C98    C     0.65366   0.25579   0.26809   0.00000  Uiso   1.00
C99    C     0.48349   0.04649   0.28742   0.00000  Uiso   1.00
C100   C     0.48797   0.45180   0.20607   0.00000  Uiso   1.00
C101   C     0.48395   0.09236   0.28795   0.00000  Uiso   1.00
C102   C     0.48796   0.40587   0.20624   0.00000  Uiso   1.00
C103   C     0.50071   0.11687   0.24989   0.00000  Uiso   1.00
C104   C     0.50017   0.38328   0.24961   0.00000  Uiso   1.00
C105   C     0.51779   0.09496   0.21150   0.00000  Uiso   1.00
C106   C     0.51272   0.40723   0.29267   0.00000  Uiso   1.00
C107   C     0.51826   0.04905   0.21136   0.00000  Uiso   1.00
C108   C     0.51366   0.45312   0.29241   0.00000  Uiso   1.00
C109   C     0.50088   0.02441   0.24924   0.00000  Uiso   1.00
C110   C     0.50097   0.47583   0.24917   0.00000  Uiso   1.00
Cu111  Cu    0.50000   0.24999   0.29822   0.00000  Uiso   1.00
Cu112  Cu    0.50000   0.25000   0.20179   0.00000  Uiso   1.00
H113   H     0.46894   0.02833   0.31664   0.00000  Uiso   1.00
H114   H     0.47713   0.46842   0.17234   0.00000  Uiso   1.00
H115   H     0.47044   0.10851   0.31777   0.00000  Uiso   1.00
H116   H     0.47773   0.38805   0.17256   0.00000  Uiso   1.00
H117   H     0.53145   0.11331   0.18194   0.00000  Uiso   1.00
H118   H     0.52234   0.39063   0.32652   0.00000  Uiso   1.00
H119   H     0.53278   0.03294   0.18192   0.00000  Uiso   1.00
H120   H     0.52477   0.47080   0.32604   0.00000  Uiso   1.00
H121   H     0.42557   0.21809   0.02549   0.00000  Uiso   1.00
H122   H     0.53895   0.31360   0.47003   0.00000  Uiso   1.00
N123   N     0.50000   0.25001   0.12935   0.00000  Uiso   1.00
N124   N     0.50000   0.24999   0.37066   0.00000  Uiso   1.00
O125   O     0.50000   0.18572   0.29072   0.00000  Uiso   1.00
O126   O     0.50000   0.31427   0.20929   0.00000  Uiso   1.00
O127   O     0.50000   0.18573   0.20928   0.00000  Uiso   1.00
O128   O     0.50000   0.31427   0.29072   0.00000  Uiso   1.00
O129   O     0.42495   0.24999   0.28132   0.00000  Uiso   1.00
O130   O     0.57505   0.25000   0.21868   0.00000  Uiso   1.00
O131   O     0.42495   0.25000   0.19989   0.00000  Uiso   1.00
O132   O     0.57505   0.25000   0.30012   0.00000  Uiso   1.00
O133   O     0.65502   0.22549   0.18910   0.00000  Uiso   1.00
C134   C     0.65107   0.17903   0.19357   0.00000  Uiso   1.00
H135   H     0.35619   0.16533   0.20175   0.00000  Uiso   1.00
H136   H     0.63257   0.16460   0.15879   0.00000  Uiso   1.00
H137   H     0.62651   0.16859   0.22159   0.00000  Uiso   1.00
O138   O     0.34502   0.27316   0.31139   0.00000  Uiso   1.00
C139   C     0.34869   0.31971   0.30776   0.00000  Uiso   1.00
H140   H     0.64359   0.33334   0.29913   0.00000  Uiso   1.00
H141   H     0.37380   0.33071   0.28039   0.00000  Uiso   1.00
H142   H     0.36641   0.33372   0.34300   0.00000  Uiso   1.00
O143   O     0.58738   0.28390   0.04082   0.00000  Uiso   1.00
C144   C     0.61837   0.24824   0.03576   0.00000  Uiso   1.00
H145   H     0.65600   0.26163   0.02640   0.00000  Uiso   1.00
H146   H     0.60080   0.22569   0.00610   0.00000  Uiso   1.00
H147   H     0.62586   0.22941   0.06991   0.00000  Uiso   1.00
O148   O     0.46012   0.17559   0.46587   0.00000  Uiso   1.00
C149   C     0.50105   0.14794   0.47790   0.00000  Uiso   1.00
H150   H     0.53066   0.16350   0.00577   0.00000  Uiso   1.00
H151   H     0.51883   0.13897   0.44556   0.00000  Uiso   1.00
H152   H     0.48572   0.11683   0.49322   0.00000  Uiso   1.00
C153   C     0.58037   0.29963   0.13895   0.00000  Uiso   1.00
H154   H     0.57155   0.31765   0.16950   0.00000  Uiso   1.00
O155   O     0.62439   0.30384   0.12944   0.00000  Uiso   1.00
C156   C     0.43883   0.18259   0.36417   0.00000  Uiso   1.00
H157   H     0.42416   0.18811   0.32731   0.00000  Uiso   1.00
O158   O     0.42404   0.14798   0.38179   0.00000  Uiso   1.00
C159   C     0.42028   0.19949   0.11733   0.00000  Uiso   1.00
H160   H     0.42623   0.18510   0.15258   0.00000  Uiso   1.00
O161   O     0.37968   0.18970   0.09220   0.00000  Uiso   1.00
C162   C     0.56015   0.31796   0.38020   0.00000  Uiso   1.00
H163   H     0.57503   0.31359   0.34677   0.00000  Uiso   1.00
O164   O     0.57380   0.35202   0.40279   0.00000  Uiso   1.00
C165   C     0.83349   0.16508   0.25002   0.00000  Uiso   1.00
C166   C     0.83338   0.33497   0.24991   0.00000  Uiso   1.00
C167   C     0.87674   0.26778   0.05892   0.00000  Uiso   1.00
C168   C     0.81208   0.21323   0.44416   0.00000  Uiso   1.00
C169   C     0.87360   0.27128   0.10921   0.00000  Uiso   1.00
C170   C     0.80735   0.21602   0.39285   0.00000  Uiso   1.00
C171   C     0.79403   0.22850   0.09892   0.00000  Uiso   1.00
C172   C     0.85929   0.28344   0.39937   0.00000  Uiso   1.00
C173   C     0.79246   0.23165   0.04844   0.00000  Uiso   1.00
C174   C     0.85579   0.28497   0.44924   0.00000  Uiso   1.00
C175   C     0.83430   0.24994   0.02736   0.00000  Uiso   1.00
C176   C     0.83372   0.24945   0.47292   0.00000  Uiso   1.00
C177   C     0.73484   0.24883   0.23791   0.00000  Uiso   1.00
C178   C     0.93181   0.25088   0.26211   0.00000  Uiso   1.00
C179   C     0.67968   0.24344   0.23211   0.00000  Uiso   1.00
C180   C     0.98699   0.25579   0.26809   0.00000  Uiso   1.00
C181   C     0.81682   0.04649   0.28742   0.00000  Uiso   1.00
C182   C     0.82130   0.45180   0.20607   0.00000  Uiso   1.00
C183   C     0.81728   0.09236   0.28795   0.00000  Uiso   1.00
C184   C     0.82129   0.40587   0.20624   0.00000  Uiso   1.00
C185   C     0.83404   0.11687   0.24989   0.00000  Uiso   1.00
C186   C     0.83351   0.38328   0.24961   0.00000  Uiso   1.00
C187   C     0.85112   0.09496   0.21150   0.00000  Uiso   1.00
C188   C     0.84605   0.40723   0.29267   0.00000  Uiso   1.00
C189   C     0.85159   0.04905   0.21136   0.00000  Uiso   1.00
C190   C     0.84699   0.45312   0.29241   0.00000  Uiso   1.00
C191   C     0.83422   0.02441   0.24924   0.00000  Uiso   1.00
C192   C     0.83430   0.47583   0.24917   0.00000  Uiso   1.00
Cu193  Cu    0.83333   0.24999   0.29822   0.00000  Uiso   1.00
Cu194  Cu    0.83333   0.25000   0.20179   0.00000  Uiso   1.00
H195   H     0.80227   0.02833   0.31664   0.00000  Uiso   1.00
H196   H     0.81046   0.46842   0.17234   0.00000  Uiso   1.00
H197   H     0.80377   0.10851   0.31777   0.00000  Uiso   1.00
H198   H     0.81106   0.38805   0.17256   0.00000  Uiso   1.00
H199   H     0.86478   0.11331   0.18194   0.00000  Uiso   1.00
H200   H     0.85567   0.39063   0.32652   0.00000  Uiso   1.00
H201   H     0.86611   0.03294   0.18192   0.00000  Uiso   1.00
H202   H     0.85810   0.47080   0.32604   0.00000  Uiso   1.00
H203   H     0.75890   0.21809   0.02549   0.00000  Uiso   1.00
H204   H     0.87228   0.31360   0.47003   0.00000  Uiso   1.00
N205   N     0.83333   0.25001   0.12935   0.00000  Uiso   1.00
N206   N     0.83333   0.24999   0.37066   0.00000  Uiso   1.00
O207   O     0.83334   0.18572   0.29072   0.00000  Uiso   1.00
O208   O     0.83333   0.31427   0.20929   0.00000  Uiso   1.00
O209   O     0.83334   0.18573   0.20928   0.00000  Uiso   1.00
O210   O     0.83333   0.31427   0.29072   0.00000  Uiso   1.00
O211   O     0.75828   0.24999   0.28132   0.00000  Uiso   1.00
O212   O     0.90839   0.25000   0.21868   0.00000  Uiso   1.00
O213   O     0.75828   0.25000   0.19989   0.00000  Uiso   1.00
O214   O     0.90839   0.25000   0.30012   0.00000  Uiso   1.00
O215   O     0.98835   0.22549   0.18910   0.00000  Uiso   1.00
C216   C     0.98440   0.17903   0.19357   0.00000  Uiso   1.00
H217   H     0.68952   0.16533   0.20175   0.00000  Uiso   1.00
H218   H     0.96590   0.16460   0.15879   0.00000  Uiso   1.00
H219   H     0.95984   0.16859   0.22159   0.00000  Uiso   1.00
O220   O     0.67835   0.27316   0.31139   0.00000  Uiso   1.00
C221   C     0.68202   0.31971   0.30776   0.00000  Uiso   1.00
H222   H     0.97692   0.33334   0.29913   0.00000  Uiso   1.00
H223   H     0.70714   0.33071   0.28039   0.00000  Uiso   1.00
H224   H     0.69974   0.33372   0.34300   0.00000  Uiso   1.00
O225   O     0.92071   0.28390   0.04082   0.00000  Uiso   1.00
C226   C     0.95170   0.24824   0.03576   0.00000  Uiso   1.00
H227   H     0.98933   0.26163   0.02640   0.00000  Uiso   1.00
H228   H     0.93413   0.22569   0.00610   0.00000  Uiso   1.00
H229   H     0.95919   0.22941   0.06991   0.00000  Uiso   1.00
O230   O     0.79345   0.17559   0.46587   0.00000  Uiso   1.00
C231   C     0.83439   0.14794   0.47790   0.00000  Uiso   1.00
H232   H     0.86399   0.16350   0.00577   0.00000  Uiso   1.00
H233   H     0.85216   0.13897   0.44556   0.00000  Uiso   1.00
H234   H     0.81905   0.11683   0.49322   0.00000  Uiso   1.00
C235   C     0.91370   0.29963   0.13895   0.00000  Uiso   1.00
H236   H     0.90489   0.31765   0.16950   0.00000  Uiso   1.00
O237   O     0.95772   0.30384   0.12944   0.00000  Uiso   1.00
C238   C     0.77217   0.18259   0.36417   0.00000  Uiso   1.00
H239   H     0.75749   0.18811   0.32731   0.00000  Uiso   1.00
O240   O     0.75737   0.14798   0.38179   0.00000  Uiso   1.00
C241   C     0.75361   0.19949   0.11733   0.00000  Uiso   1.00
H242   H     0.75956   0.18510   0.15258   0.00000  Uiso   1.00
O243   O     0.71301   0.18970   0.09220   0.00000  Uiso   1.00
C244   C     0.89348   0.31796   0.38020   0.00000  Uiso   1.00
H245   H     0.90836   0.31359   0.34677   0.00000  Uiso   1.00
O246   O     0.90713   0.35202   0.40279   0.00000  Uiso   1.00
C247   C     0.16683   0.66508   0.25002   0.00000  Uiso   1.00
C248   C     0.16671   0.83497   0.24991   0.00000  Uiso   1.00
C249   C     0.21008   0.76778   0.05892   0.00000  Uiso   1.00
C250   C     0.14541   0.71323   0.44416   0.00000  Uiso   1.00
C251   C     0.20693   0.77128   0.10921   0.00000  Uiso   1.00
C252   C     0.14069   0.71602   0.39285   0.00000  Uiso   1.00
C253   C     0.12737   0.72850   0.09892   0.00000  Uiso   1.00
C254   C     0.19262   0.78344   0.39937   0.00000  Uiso   1.00
C255   C     0.12579   0.73165   0.04844   0.00000  Uiso   1.00
C256   C     0.18913   0.78497   0.44924   0.00000  Uiso   1.00
C257   C     0.16764   0.74994   0.02736   0.00000  Uiso   1.00
C258   C     0.16705   0.74945   0.47292   0.00000  Uiso   1.00
C259   C     0.06818   0.74883   0.23791   0.00000  Uiso   1.00
C260   C     0.26514   0.75088   0.26211   0.00000  Uiso   1.00
C261   C     0.01302   0.74344   0.23211   0.00000  Uiso   1.00
C262   C     0.32033   0.75579   0.26809   0.00000  Uiso   1.00
C263   C     0.15015   0.54649   0.28742   0.00000  Uiso   1.00
C264   C     0.15464   0.95180   0.20607   0.00000  Uiso   1.00
C265   C     0.15061   0.59236   0.28795   0.00000  Uiso   1.00
C266   C     0.15462   0.90587   0.20624   0.00000  Uiso   1.00
C267   C     0.16738   0.61687   0.24989   0.00000  Uiso   1.00
C268   C     0.16684   0.88328   0.24961   0.00000  Uiso   1.00
C269   C     0.18445   0.59496   0.21150   0.00000  Uiso   1.00
C270   C     0.17938   0.90723   0.29267   0.00000  Uiso   1.00
C271   C     0.18493   0.54905   0.21136   0.00000  Uiso   1.00
C272   C     0.18032   0.95312   0.29241   0.00000  Uiso   1.00
C273   C     0.16755   0.52441   0.24924   0.00000  Uiso   1.00
C274   C     0.16764   0.97583   0.24917   0.00000  Uiso   1.00
Cu275  Cu    0.16667   0.74999   0.29822   0.00000  Uiso   1.00
Cu276  Cu    0.16667   0.75000   0.20179   0.00000  Uiso   1.00
H277   H     0.13561   0.52833   0.31664   0.00000  Uiso   1.00
H278   H     0.14380   0.96842   0.17234   0.00000  Uiso   1.00
H279   H     0.13711   0.60851   0.31777   0.00000  Uiso   1.00
H280   H     0.14439   0.88805   0.17256   0.00000  Uiso   1.00
H281   H     0.19812   0.61331   0.18194   0.00000  Uiso   1.00
H282   H     0.18901   0.89063   0.32652   0.00000  Uiso   1.00
H283   H     0.19944   0.53294   0.18192   0.00000  Uiso   1.00
H284   H     0.19144   0.97080   0.32604   0.00000  Uiso   1.00
H285   H     0.09224   0.71809   0.02549   0.00000  Uiso   1.00
H286   H     0.20561   0.81360   0.47003   0.00000  Uiso   1.00
N287   N     0.16667   0.75001   0.12935   0.00000  Uiso   1.00
N288   N     0.16667   0.74999   0.37066   0.00000  Uiso   1.00
O289   O     0.16667   0.68572   0.29072   0.00000  Uiso   1.00
O290   O     0.16666   0.81427   0.20929   0.00000  Uiso   1.00
O291   O     0.16667   0.68573   0.20928   0.00000  Uiso   1.00
O292   O     0.16666   0.81427   0.29072   0.00000  Uiso   1.00
O293   O     0.09161   0.74999   0.28132   0.00000  Uiso   1.00
O294   O     0.24172   0.75000   0.21868   0.00000  Uiso   1.00
O295   O     0.09161   0.75000   0.19989   0.00000  Uiso   1.00
O296   O     0.24172   0.75000   0.30012   0.00000  Uiso   1.00
O297   O     0.32168   0.72549   0.18910   0.00000  Uiso   1.00
C298   C     0.31774   0.67903   0.19357   0.00000  Uiso   1.00
H299   H     0.02285   0.66533   0.20175   0.00000  Uiso   1.00
H300   H     0.29923   0.66460   0.15879   0.00000  Uiso   1.00
H301   H     0.29318   0.66859   0.22159   0.00000  Uiso   1.00
O302   O     0.01168   0.77316   0.31139   0.00000  Uiso   1.00
C303   C     0.01536   0.81971   0.30776   0.00000  Uiso   1.00
H304   H     0.31025   0.83334   0.29913   0.00000  Uiso   1.00
H305   H     0.04047   0.83071   0.28039   0.00000  Uiso   1.00
H306   H     0.03308   0.83372   0.34300   0.00000  Uiso   1.00
O307   O     0.25405   0.78390   0.04082   0.00000  Uiso   1.00
C308   C     0.28503   0.74824   0.03576   0.00000  Uiso   1.00
H309   H     0.32266   0.76163   0.02640   0.00000  Uiso   1.00
H310   H     0.26747   0.72569   0.00610   0.00000  Uiso   1.00
H311   H     0.29252   0.72941   0.06991   0.00000  Uiso   1.00
O312   O     0.12679   0.67559   0.46587   0.00000  Uiso   1.00
C313   C     0.16772   0.64794   0.47790   0.00000  Uiso   1.00
H314   H     0.19732   0.66350   0.00577   0.00000  Uiso   1.00
H315   H     0.18549   0.63897   0.44556   0.00000  Uiso   1.00
H316   H     0.15239   0.61683   0.49322   0.00000  Uiso   1.00
C317   C     0.24703   0.79963   0.13895   0.00000  Uiso   1.00
H318   H     0.23822   0.81765   0.16950   0.00000  Uiso   1.00
O319   O     0.29106   0.80384   0.12944   0.00000  Uiso   1.00
C320   C     0.10550   0.68259   0.36417   0.00000  Uiso   1.00
H321   H     0.09083   0.68811   0.32731   0.00000  Uiso   1.00
O322   O     0.09070   0.64798   0.38179   0.00000  Uiso   1.00
C323   C     0.08694   0.69949   0.11733   0.00000  Uiso   1.00
H324   H     0.09290   0.68510   0.15258   0.00000  Uiso   1.00
O325   O     0.04634   0.68970   0.09220   0.00000  Uiso   1.00
C326   C     0.22681   0.81796   0.38020   0.00000  Uiso   1.00
H327   H     0.24169   0.81359   0.34677   0.00000  Uiso   1.00
O328   O     0.24047   0.85202   0.40279   0.00000  Uiso   1.00
C329   C     0.50016   0.66508   0.25002   0.00000  Uiso   1.00
C330   C     0.50005   0.83497   0.24991   0.00000  Uiso   1.00
C331   C     0.54341   0.76778   0.05892   0.00000  Uiso   1.00
C332   C     0.47874   0.71323   0.44416   0.00000  Uiso   1.00
C333   C     0.54026   0.77128   0.10921   0.00000  Uiso   1.00
C334   C     0.47402   0.71602   0.39285   0.00000  Uiso   1.00
C335   C     0.46070   0.72850   0.09892   0.00000  Uiso   1.00
C336   C     0.52596   0.78344   0.39937   0.00000  Uiso   1.00
C337   C     0.45912   0.73165   0.04844   0.00000  Uiso   1.00
C338   C     0.52246   0.78497   0.44924   0.00000  Uiso   1.00
C339   C     0.50097   0.74994   0.02736   0.00000  Uiso   1.00
C340   C     0.50038   0.74945   0.47292   0.00000  Uiso   1.00
C341   C     0.40151   0.74883   0.23791   0.00000  Uiso   1.00
C342   C     0.59848   0.75088   0.26211   0.00000  Uiso   1.00
C343   C     0.34635   0.74344   0.23211   0.00000  Uiso   1.00
C344   C     0.65366   0.75579   0.26809   0.00000  Uiso   1.00
C345   C     0.48349   0.54649   0.28742   0.00000  Uiso   1.00
C346   C     0.48797   0.95180   0.20607   0.00000  Uiso   1.00
C347   C     0.48395   0.59236   0.28795   0.00000  Uiso   1.00
C348   C     0.48796   0.90587   0.20624   0.00000  Uiso   1.00
C349   C     0.50071   0.61687   0.24989   0.00000  Uiso   1.00
C350   C     0.50017   0.88328   0.24961   0.00000  Uiso   1.00
C351   C     0.51779   0.59496   0.21150   0.00000  Uiso   1.00
C352   C     0.51272   0.90723   0.29267   0.00000  Uiso   1.00
C353   C     0.51826   0.54905   0.21136   0.00000  Uiso   1.00
C354   C     0.51366   0.95312   0.29241   0.00000  Uiso   1.00
C355   C     0.50088   0.52441   0.24924   0.00000  Uiso   1.00
C356   C     0.50097   0.97583   0.24917   0.00000  Uiso   1.00
Cu357  Cu    0.50000   0.74999   0.29822   0.00000  Uiso   1.00
Cu358  Cu    0.50000   0.75000   0.20179   0.00000  Uiso   1.00
H359   H     0.46894   0.52833   0.31664   0.00000  Uiso   1.00
H360   H     0.47713   0.96842   0.17234   0.00000  Uiso   1.00
H361   H     0.47044   0.60851   0.31777   0.00000  Uiso   1.00
H362   H     0.47773   0.88805   0.17256   0.00000  Uiso   1.00
H363   H     0.53145   0.61331   0.18194   0.00000  Uiso   1.00
H364   H     0.52234   0.89063   0.32652   0.00000  Uiso   1.00
H365   H     0.53278   0.53294   0.18192   0.00000  Uiso   1.00
H366   H     0.52477   0.97080   0.32604   0.00000  Uiso   1.00
H367   H     0.42557   0.71809   0.02549   0.00000  Uiso   1.00
H368   H     0.53895   0.81360   0.47003   0.00000  Uiso   1.00
N369   N     0.50000   0.75001   0.12935   0.00000  Uiso   1.00
N370   N     0.50000   0.74999   0.37066   0.00000  Uiso   1.00
O371   O     0.50000   0.68572   0.29072   0.00000  Uiso   1.00
O372   O     0.50000   0.81427   0.20929   0.00000  Uiso   1.00
O373   O     0.50000   0.68573   0.20928   0.00000  Uiso   1.00
O374   O     0.50000   0.81427   0.29072   0.00000  Uiso   1.00
O375   O     0.42495   0.74999   0.28132   0.00000  Uiso   1.00
O376   O     0.57505   0.75000   0.21868   0.00000  Uiso   1.00
O377   O     0.42495   0.75000   0.19989   0.00000  Uiso   1.00
O378   O     0.57505   0.75000   0.30012   0.00000  Uiso   1.00
O379   O     0.65502   0.72549   0.18910   0.00000  Uiso   1.00
C380   C     0.65107   0.67903   0.19357   0.00000  Uiso   1.00
H381   H     0.35619   0.66533   0.20175   0.00000  Uiso   1.00
H382   H     0.63257   0.66460   0.15879   0.00000  Uiso   1.00
H383   H     0.62651   0.66859   0.22159   0.00000  Uiso   1.00
O384   O     0.34502   0.77316   0.31139   0.00000  Uiso   1.00
C385   C     0.34869   0.81971   0.30776   0.00000  Uiso   1.00
H386   H     0.64359   0.83334   0.29913   0.00000  Uiso   1.00
H387   H     0.37380   0.83071   0.28039   0.00000  Uiso   1.00
H388   H     0.36641   0.83372   0.34300   0.00000  Uiso   1.00
O389   O     0.58738   0.78390   0.04082   0.00000  Uiso   1.00
C390   C     0.61837   0.74824   0.03576   0.00000  Uiso   1.00
H391   H     0.65600   0.76163   0.02640   0.00000  Uiso   1.00
H392   H     0.60080   0.72569   0.00610   0.00000  Uiso   1.00
H393   H     0.62586   0.72941   0.06991   0.00000  Uiso   1.00
O394   O     0.46012   0.67559   0.46587   0.00000  Uiso   1.00
C395   C     0.50105   0.64794   0.47790   0.00000  Uiso   1.00
H396   H     0.53066   0.66350   0.00577   0.00000  Uiso   1.00
H397   H     0.51883   0.63897   0.44556   0.00000  Uiso   1.00
H398   H     0.48572   0.61683   0.49322   0.00000  Uiso   1.00
C399   C     0.58037   0.79963   0.13895   0.00000  Uiso   1.00
H400   H     0.57155   0.81765   0.16950   0.00000  Uiso   1.00
O401   O     0.62439   0.80384   0.12944   0.00000  Uiso   1.00
C402   C     0.43883   0.68259   0.36417   0.00000  Uiso   1.00
H403   H     0.42416   0.68811   0.32731   0.00000  Uiso   1.00
O404   O     0.42404   0.64798   0.38179   0.00000  Uiso   1.00
C405   C     0.42028   0.69949   0.11733   0.00000  Uiso   1.00
H406   H     0.42623   0.68510   0.15258   0.00000  Uiso   1.00
O407   O     0.37968   0.68970   0.09220   0.00000  Uiso   1.00
C408   C     0.56015   0.81796   0.38020   0.00000  Uiso   1.00
H409   H     0.57503   0.81359   0.34677   0.00000  Uiso   1.00
O410   O     0.57380   0.85202   0.40279   0.00000  Uiso   1.00
C411   C     0.83349   0.66508   0.25002   0.00000  Uiso   1.00
C412   C     0.83338   0.83497   0.24991   0.00000  Uiso   1.00
C413   C     0.87674   0.76778   0.05892   0.00000  Uiso   1.00
C414   C     0.81208   0.71323   0.44416   0.00000  Uiso   1.00
C415   C     0.87360   0.77128   0.10921   0.00000  Uiso   1.00
C416   C     0.80735   0.71602   0.39285   0.00000  Uiso   1.00
C417   C     0.79403   0.72850   0.09892   0.00000  Uiso   1.00
C418   C     0.85929   0.78344   0.39937   0.00000  Uiso   1.00
C419   C     0.79246   0.73165   0.04844   0.00000  Uiso   1.00
C420   C     0.85579   0.78497   0.44924   0.00000  Uiso   1.00
C421   C     0.83430   0.74994   0.02736   0.00000  Uiso   1.00
C422   C     0.83372   0.74945   0.47292   0.00000  Uiso   1.00
C423   C     0.73484   0.74883   0.23791   0.00000  Uiso   1.00
C424   C     0.93181   0.75088   0.26211   0.00000  Uiso   1.00
C425   C     0.67968   0.74344   0.23211   0.00000  Uiso   1.00
C426   C     0.98699   0.75579   0.26809   0.00000  Uiso   1.00
C427   C     0.81682   0.54649   0.28742   0.00000  Uiso   1.00
C428   C     0.82130   0.95180   0.20607   0.00000  Uiso   1.00
C429   C     0.81728   0.59236   0.28795   0.00000  Uiso   1.00
C430   C     0.82129   0.90587   0.20624   0.00000  Uiso   1.00
C431   C     0.83404   0.61687   0.24989   0.00000  Uiso   1.00
C432   C     0.83351   0.88328   0.24961   0.00000  Uiso   1.00
C433   C     0.85112   0.59496   0.21150   0.00000  Uiso   1.00
C434   C     0.84605   0.90723   0.29267   0.00000  Uiso   1.00
C435   C     0.85159   0.54905   0.21136   0.00000  Uiso   1.00
C436   C     0.84699   0.95312   0.29241   0.00000  Uiso   1.00
C437   C     0.83422   0.52441   0.24924   0.00000  Uiso   1.00
C438   C     0.83430   0.97583   0.24917   0.00000  Uiso   1.00
Cu439  Cu    0.83333   0.74999   0.29822   0.00000  Uiso   1.00
Cu440  Cu    0.83333   0.75000   0.20179   0.00000  Uiso   1.00
H441   H     0.80227   0.52833   0.31664   0.00000  Uiso   1.00
H442   H     0.81046   0.96842   0.17234   0.00000  Uiso   1.00
H443   H     0.80377   0.60851   0.31777   0.00000  Uiso   1.00
H444   H     0.81106   0.88805   0.17256   0.00000  Uiso   1.00
H445   H     0.86478   0.61331   0.18194   0.00000  Uiso   1.00
H446   H     0.85567   0.89063   0.32652   0.00000  Uiso   1.00
H447   H     0.86611   0.53294   0.18192   0.00000  Uiso   1.00
H448   H     0.85810   0.97080   0.32604   0.00000  Uiso   1.00
H449   H     0.75890   0.71809   0.02549   0.00000  Uiso   1.00
H450   H     0.87228   0.81360   0.47003   0.00000  Uiso   1.00
N451   N     0.83333   0.75001   0.12935   0.00000  Uiso   1.00
N452   N     0.83333   0.74999   0.37066   0.00000  Uiso   1.00
O453   O     0.83334   0.68572   0.29072   0.00000  Uiso   1.00
O454   O     0.83333   0.81427   0.20929   0.00000  Uiso   1.00
O455   O     0.83334   0.68573   0.20928   0.00000  Uiso   1.00
O456   O     0.83333   0.81427   0.29072   0.00000  Uiso   1.00
O457   O     0.75828   0.74999   0.28132   0.00000  Uiso   1.00
O458   O     0.90839   0.75000   0.21868   0.00000  Uiso   1.00
O459   O     0.75828   0.75000   0.19989   0.00000  Uiso   1.00
O460   O     0.90839   0.75000   0.30012   0.00000  Uiso   1.00
O461   O     0.98835   0.72549   0.18910   0.00000  Uiso   1.00
C462   C     0.98440   0.67903   0.19357   0.00000  Uiso   1.00
H463   H     0.68952   0.66533   0.20175   0.00000  Uiso   1.00
H464   H     0.96590   0.66460   0.15879   0.00000  Uiso   1.00
H465   H     0.95984   0.66859   0.22159   0.00000  Uiso   1.00
O466   O     0.67835   0.77316   0.31139   0.00000  Uiso   1.00
C467   C     0.68202   0.81971   0.30776   0.00000  Uiso   1.00
H468   H     0.97692   0.83334   0.29913   0.00000  Uiso   1.00
H469   H     0.70714   0.83071   0.28039   0.00000  Uiso   1.00
H470   H     0.69974   0.83372   0.34300   0.00000  Uiso   1.00
O471   O     0.92071   0.78390   0.04082   0.00000  Uiso   1.00
C472   C     0.95170   0.74824   0.03576   0.00000  Uiso   1.00
H473   H     0.98933   0.76163   0.02640   0.00000  Uiso   1.00
H474   H     0.93413   0.72569   0.00610   0.00000  Uiso   1.00
H475   H     0.95919   0.72941   0.06991   0.00000  Uiso   1.00
O476   O     0.79345   0.67559   0.46587   0.00000  Uiso   1.00
C477   C     0.83439   0.64794   0.47790   0.00000  Uiso   1.00
H478   H     0.86399   0.66350   0.00577   0.00000  Uiso   1.00
H479   H     0.85216   0.63897   0.44556   0.00000  Uiso   1.00
H480   H     0.81905   0.61683   0.49322   0.00000  Uiso   1.00
C481   C     0.91370   0.79963   0.13895   0.00000  Uiso   1.00
H482   H     0.90489   0.81765   0.16950   0.00000  Uiso   1.00
O483   O     0.95772   0.80384   0.12944   0.00000  Uiso   1.00
C484   C     0.77217   0.68259   0.36417   0.00000  Uiso   1.00
H485   H     0.75749   0.68811   0.32731   0.00000  Uiso   1.00
O486   O     0.75737   0.64798   0.38179   0.00000  Uiso   1.00
C487   C     0.75361   0.69949   0.11733   0.00000  Uiso   1.00
H488   H     0.75956   0.68510   0.15258   0.00000  Uiso   1.00
O489   O     0.71301   0.68970   0.09220   0.00000  Uiso   1.00
C490   C     0.89348   0.81796   0.38020   0.00000  Uiso   1.00
H491   H     0.90836   0.81359   0.34677   0.00000  Uiso   1.00
O492   O     0.90713   0.85202   0.40279   0.00000  Uiso   1.00
C493   C     0.16683   0.16508   0.75002   0.00000  Uiso   1.00
C494   C     0.16671   0.33497   0.74991   0.00000  Uiso   1.00
C495   C     0.21008   0.26778   0.55892   0.00000  Uiso   1.00
C496   C     0.14541   0.21323   0.94416   0.00000  Uiso   1.00
C497   C     0.20693   0.27128   0.60921   0.00000  Uiso   1.00
C498   C     0.14069   0.21602   0.89285   0.00000  Uiso   1.00
C499   C     0.12737   0.22850   0.59892   0.00000  Uiso   1.00
C500   C     0.19262   0.28344   0.89937   0.00000  Uiso   1.00
C501   C     0.12579   0.23165   0.54844   0.00000  Uiso   1.00
C502   C     0.18913   0.28497   0.94924   0.00000  Uiso   1.00
C503   C     0.16764   0.24994   0.52736   0.00000  Uiso   1.00
C504   C     0.16705   0.24945   0.97292   0.00000  Uiso   1.00
C505   C     0.06818   0.24883   0.73791   0.00000  Uiso   1.00
C506   C     0.26514   0.25088   0.76211   0.00000  Uiso   1.00
C507   C     0.01302   0.24344   0.73211   0.00000  Uiso   1.00
C508   C     0.32033   0.25579   0.76809   0.00000  Uiso   1.00
C509   C     0.15015   0.04649   0.78742   0.00000  Uiso   1.00
C510   C     0.15464   0.45180   0.70607   0.00000  Uiso   1.00
C511   C     0.15061   0.09236   0.78795   0.00000  Uiso   1.00
C512   C     0.15462   0.40587   0.70624   0.00000  Uiso   1.00
C513   C     0.16738   0.11687   0.74989   0.00000  Uiso   1.00
C514   C     0.16684   0.38328   0.74961   0.00000  Uiso   1.00
C515   C     0.18445   0.09496   0.71150   0.00000  Uiso   1.00
C516   C     0.17938   0.40723   0.79267   0.00000  Uiso   1.00
C517   C     0.18493   0.04905   0.71136   0.00000  Uiso   1.00
C518   C     0.18032   0.45312   0.79241   0.00000  Uiso   1.00
C519   C     0.16755   0.02441   0.74924   0.00000  Uiso   1.00
C520   C     0.16764   0.47583   0.74917   0.00000  Uiso   1.00
Cu521  Cu    0.16667   0.24999   0.79822   0.00000  Uiso   1.00
Cu522  Cu    0.16667   0.25000   0.70179   0.00000  Uiso   1.00
H523   H     0.13561   0.02833   0.81664   0.00000  Uiso   1.00
H524   H     0.14380   0.46842   0.67234   0.00000  Uiso   1.00
H525   H     0.13711   0.10851   0.81777   0.00000  Uiso   1.00
H526   H     0.14439   0.38805   0.67256   0.00000  Uiso   1.00
H527   H     0.19812   0.11331   0.68194   0.00000  Uiso   1.00
H528   H     0.18901   0.39063   0.82652   0.00000  Uiso   1.00
H529   H     0.19944   0.03294   0.68192   0.00000  Uiso   1.00
H530   H     0.19144   0.47080   0.82604   0.00000  Uiso   1.00
H531   H     0.09224   0.21809   0.52549   0.00000  Uiso   1.00
H532   H     0.20561   0.31360   0.97003   0.00000  Uiso   1.00
N533   N     0.16667   0.25001   0.62935   0.00000  Uiso   1.00
N534   N     0.16667   0.24999   0.87066   0.00000  Uiso   1.00
O535   O     0.16667   0.18572   0.79072   0.00000  Uiso   1.00
O536   O     0.16666   0.31427   0.70929   0.00000  Uiso   1.00
O537   O     0.16667   0.18573   0.70928   0.00000  Uiso   1.00
O538   O     0.16666   0.31427   0.79072   0.00000  Uiso   1.00
O539   O     0.09161   0.24999   0.78132   0.00000  Uiso   1.00
O540   O     0.24172   0.25000   0.71868   0.00000  Uiso   1.00
O541   O     0.09161   0.25000   0.69989   0.00000  Uiso   1.00
O542   O     0.24172   0.25000   0.80012   0.00000  Uiso   1.00
O543   O     0.32168   0.22549   0.68910   0.00000  Uiso   1.00
C544   C     0.31774   0.17903   0.69357   0.00000  Uiso   1.00
H545   H     0.02285   0.16533   0.70175   0.00000  Uiso   1.00
H546   H     0.29923   0.16460   0.65879   0.00000  Uiso   1.00
H547   H     0.29318   0.16859   0.72159   0.00000  Uiso   1.00
O548   O     0.01168   0.27316   0.81139   0.00000  Uiso   1.00
C549   C     0.01536   0.31971   0.80776   0.00000  Uiso   1.00
H550   H     0.31025   0.33334   0.79913   0.00000  Uiso   1.00
H551   H     0.04047   0.33071   0.78039   0.00000  Uiso   1.00
H552   H     0.03308   0.33372   0.84300   0.00000  Uiso   1.00
O553   O     0.25405   0.28390   0.54082   0.00000  Uiso   1.00
C554   C     0.28503   0.24824   0.53576   0.00000  Uiso   1.00
H555   H     0.32266   0.26163   0.52640   0.00000  Uiso   1.00
H556   H     0.26747   0.22569   0.50610   0.00000  Uiso   1.00
H557   H     0.29252   0.22941   0.56991   0.00000  Uiso   1.00
O558   O     0.12679   0.17559   0.96587   0.00000  Uiso   1.00
C559   C     0.16772   0.14794   0.97790   0.00000  Uiso   1.00
H560   H     0.19732   0.16350   0.50577   0.00000  Uiso   1.00
H561   H     0.18549   0.13897   0.94556   0.00000  Uiso   1.00
H562   H     0.15239   0.11683   0.99322   0.00000  Uiso   1.00
C563   C     0.24703   0.29963   0.63895   0.00000  Uiso   1.00
H564   H     0.23822   0.31765   0.66950   0.00000  Uiso   1.00
O565   O     0.29106   0.30384   0.62944   0.00000  Uiso   1.00
C566   C     0.10550   0.18259   0.86417   0.00000  Uiso   1.00
H567   H     0.09083   0.18811   0.82731   0.00000  Uiso   1.00
O568   O     0.09070   0.14798   0.88179   0.00000  Uiso   1.00
C569   C     0.08694   0.19949   0.61733   0.00000  Uiso   1.00
H570   H     0.09290   0.18510   0.65258   0.00000  Uiso   1.00
O571   O     0.04634   0.18970   0.59220   0.00000  Uiso   1.00
C572   C     0.22681   0.31796   0.88020   0.00000  Uiso   1.00
H573   H     0.24169   0.31359   0.84677   0.00000  Uiso   1.00
O574   O     0.24047   0.35202   0.90279   0.00000  Uiso   1.00
C575   C     0.50016   0.16508   0.75002   0.00000  Uiso   1.00
C576   C     0.50005   0.33497   0.74991   0.00000  Uiso   1.00
C577   C     0.54341   0.26778   0.55892   0.00000  Uiso   1.00
C578   C     0.47874   0.21323   0.94416   0.00000  Uiso   1.00
C579   C     0.54026   0.27128   0.60921   0.00000  Uiso   1.00
C580   C     0.47402   0.21602   0.89285   0.00000  Uiso   1.00
C581   C     0.46070   0.22850   0.59892   0.00000  Uiso   1.00
C582   C     0.52596   0.28344   0.89937   0.00000  Uiso   1.00
C583   C     0.45912   0.23165   0.54844   0.00000  Uiso   1.00
C584   C     0.52246   0.28497   0.94924   0.00000  Uiso   1.00
C585   C     0.50097   0.24994   0.52736   0.00000  Uiso   1.00
C586   C     0.50038   0.24945   0.97292   0.00000  Uiso   1.00
C587   C     0.40151   0.24883   0.73791   0.00000  Uiso   1.00
C588   C     0.59848   0.25088   0.76211   0.00000  Uiso   1.00
C589   C     0.34635   0.24344   0.73211   0.00000  Uiso   1.00
C590   C     0.65366   0.25579   0.76809   0.00000  Uiso   1.00
C591   C     0.48349   0.04649   0.78742   0.00000  Uiso   1.00
C592   C     0.48797   0.45180   0.70607   0.00000  Uiso   1.00
C593   C     0.48395   0.09236   0.78795   0.00000  Uiso   1.00
C594   C     0.48796   0.40587   0.70624   0.00000  Uiso   1.00
C595   C     0.50071   0.11687   0.74989   0.00000  Uiso   1.00
C596   C     0.50017   0.38328   0.74961   0.00000  Uiso   1.00
C597   C     0.51779   0.09496   0.71150   0.00000  Uiso   1.00
C598   C     0.51272   0.40723   0.79267   0.00000  Uiso   1.00
C599   C     0.51826   0.04905   0.71136   0.00000  Uiso   1.00
C600   C     0.51366   0.45312   0.79241   0.00000  Uiso   1.00
C601   C     0.50088   0.02441   0.74924   0.00000  Uiso   1.00
C602   C     0.50097   0.47583   0.74917   0.00000  Uiso   1.00
Cu603  Cu    0.50000   0.24999   0.79822   0.00000  Uiso   1.00
Cu604  Cu    0.50000   0.25000   0.70179   0.00000  Uiso   1.00
H605   H     0.46894   0.02833   0.81664   0.00000  Uiso   1.00
H606   H     0.47713   0.46842   0.67234   0.00000  Uiso   1.00
H607   H     0.47044   0.10851   0.81777   0.00000  Uiso   1.00
H608   H     0.47773   0.38805   0.67256   0.00000  Uiso   1.00
H609   H     0.53145   0.11331   0.68194   0.00000  Uiso   1.00
H610   H     0.52234   0.39063   0.82652   0.00000  Uiso   1.00
H611   H     0.53278   0.03294   0.68192   0.00000  Uiso   1.00
H612   H     0.52477   0.47080   0.82604   0.00000  Uiso   1.00
H613   H     0.42557   0.21809   0.52549   0.00000  Uiso   1.00
H614   H     0.53895   0.31360   0.97003   0.00000  Uiso   1.00
N615   N     0.50000   0.25001   0.62935   0.00000  Uiso   1.00
N616   N     0.50000   0.24999   0.87066   0.00000  Uiso   1.00
O617   O     0.50000   0.18572   0.79072   0.00000  Uiso   1.00
O618   O     0.50000   0.31427   0.70929   0.00000  Uiso   1.00
O619   O     0.50000   0.18573   0.70928   0.00000  Uiso   1.00
O620   O     0.50000   0.31427   0.79072   0.00000  Uiso   1.00
O621   O     0.42495   0.24999   0.78132   0.00000  Uiso   1.00
O622   O     0.57505   0.25000   0.71868   0.00000  Uiso   1.00
O623   O     0.42495   0.25000   0.69989   0.00000  Uiso   1.00
O624   O     0.57505   0.25000   0.80012   0.00000  Uiso   1.00
O625   O     0.65502   0.22549   0.68910   0.00000  Uiso   1.00
C626   C     0.65107   0.17903   0.69357   0.00000  Uiso   1.00
H627   H     0.35619   0.16533   0.70175   0.00000  Uiso   1.00
H628   H     0.63257   0.16460   0.65879   0.00000  Uiso   1.00
H629   H     0.62651   0.16859   0.72159   0.00000  Uiso   1.00
O630   O     0.34502   0.27316   0.81139   0.00000  Uiso   1.00
C631   C     0.34869   0.31971   0.80776   0.00000  Uiso   1.00
H632   H     0.64359   0.33334   0.79913   0.00000  Uiso   1.00
H633   H     0.37380   0.33071   0.78039   0.00000  Uiso   1.00
H634   H     0.36641   0.33372   0.84300   0.00000  Uiso   1.00
O635   O     0.58738   0.28390   0.54082   0.00000  Uiso   1.00
C636   C     0.61837   0.24824   0.53576   0.00000  Uiso   1.00
H637   H     0.65600   0.26163   0.52640   0.00000  Uiso   1.00
H638   H     0.60080   0.22569   0.50610   0.00000  Uiso   1.00
H639   H     0.62586   0.22941   0.56991   0.00000  Uiso   1.00
O640   O     0.46012   0.17559   0.96587   0.00000  Uiso   1.00
C641   C     0.50105   0.14794   0.97790   0.00000  Uiso   1.00
H642   H     0.53066   0.16350   0.50577   0.00000  Uiso   1.00
H643   H     0.51883   0.13897   0.94556   0.00000  Uiso   1.00
H644   H     0.48572   0.11683   0.99322   0.00000  Uiso   1.00
C645   C     0.58037   0.29963   0.63895   0.00000  Uiso   1.00
H646   H     0.57155   0.31765   0.66950   0.00000  Uiso   1.00
O647   O     0.62439   0.30384   0.62944   0.00000  Uiso   1.00
C648   C     0.43883   0.18259   0.86417   0.00000  Uiso   1.00
H649   H     0.42416   0.18811   0.82731   0.00000  Uiso   1.00
O650   O     0.42404   0.14798   0.88179   0.00000  Uiso   1.00
C651   C     0.42028   0.19949   0.61733   0.00000  Uiso   1.00
H652   H     0.42623   0.18510   0.65258   0.00000  Uiso   1.00
O653   O     0.37968   0.18970   0.59220   0.00000  Uiso   1.00
C654   C     0.56015   0.31796   0.88020   0.00000  Uiso   1.00
H655   H     0.57503   0.31359   0.84677   0.00000  Uiso   1.00
O656   O     0.57380   0.35202   0.90279   0.00000  Uiso   1.00
C657   C     0.83349   0.16508   0.75002   0.00000  Uiso   1.00
C658   C     0.83338   0.33497   0.74991   0.00000  Uiso   1.00
C659   C     0.87674   0.26778   0.55892   0.00000  Uiso   1.00
C660   C     0.81208   0.21323   0.94416   0.00000  Uiso   1.00
C661   C     0.87360   0.27128   0.60921   0.00000  Uiso   1.00
C662   C     0.80735   0.21602   0.89285   0.00000  Uiso   1.00
C663   C     0.79403   0.22850   0.59892   0.00000  Uiso   1.00
C664   C     0.85929   0.28344   0.89937   0.00000  Uiso   1.00
C665   C     0.79246   0.23165   0.54844   0.00000  Uiso   1.00
C666   C     0.85579   0.28497   0.94924   0.00000  Uiso   1.00
C667   C     0.83430   0.24994   0.52736   0.00000  Uiso   1.00
C668   C     0.83372   0.24945   0.97292   0.00000  Uiso   1.00
C669   C     0.73484   0.24883   0.73791   0.00000  Uiso   1.00
C670   C     0.93181   0.25088   0.76211   0.00000  Uiso   1.00
C671   C     0.67968   0.24344   0.73211   0.00000  Uiso   1.00
C672   C     0.98699   0.25579   0.76809   0.00000  Uiso   1.00
C673   C     0.81682   0.04649   0.78742   0.00000  Uiso   1.00
C674   C     0.82130   0.45180   0.70607   0.00000  Uiso   1.00
C675   C     0.81728   0.09236   0.78795   0.00000  Uiso   1.00
C676   C     0.82129   0.40587   0.70624   0.00000  Uiso   1.00
C677   C     0.83404   0.11687   0.74989   0.00000  Uiso   1.00
C678   C     0.83351   0.38328   0.74961   0.00000  Uiso   1.00
C679   C     0.85112   0.09496   0.71150   0.00000  Uiso   1.00
C680   C     0.84605   0.40723   0.79267   0.00000  Uiso   1.00
C681   C     0.85159   0.04905   0.71136   0.00000  Uiso   1.00
C682   C     0.84699   0.45312   0.79241   0.00000  Uiso   1.00
C683   C     0.83422   0.02441   0.74924   0.00000  Uiso   1.00
C684   C     0.83430   0.47583   0.74917   0.00000  Uiso   1.00
Cu685  Cu    0.83333   0.24999   0.79822   0.00000  Uiso   1.00
Cu686  Cu    0.83333   0.25000   0.70179   0.00000  Uiso   1.00
H687   H     0.80227   0.02833   0.81664   0.00000  Uiso   1.00
H688   H     0.81046   0.46842   0.67234   0.00000  Uiso   1.00
H689   H     0.80377   0.10851   0.81777   0.00000  Uiso   1.00
H690   H     0.81106   0.38805   0.67256   0.00000  Uiso   1.00
H691   H     0.86478   0.11331   0.68194   0.00000  Uiso   1.00
H692   H     0.85567   0.39063   0.82652   0.00000  Uiso   1.00
H693   H     0.86611   0.03294   0.68192   0.00000  Uiso   1.00
H694   H     0.85810   0.47080   0.82604   0.00000  Uiso   1.00
H695   H     0.75890   0.21809   0.52549   0.00000  Uiso   1.00
H696   H     0.87228   0.31360   0.97003   0.00000  Uiso   1.00
N697   N     0.83333   0.25001   0.62935   0.00000  Uiso   1.00
N698   N     0.83333   0.24999   0.87066   0.00000  Uiso   1.00
O699   O     0.83334   0.18572   0.79072   0.00000  Uiso   1.00
O700   O     0.83333   0.31427   0.70929   0.00000  Uiso   1.00
O701   O     0.83334   0.18573   0.70928   0.00000  Uiso   1.00
O702   O     0.83333   0.31427   0.79072   0.00000  Uiso   1.00
O703   O     0.75828   0.24999   0.78132   0.00000  Uiso   1.00
O704   O     0.90839   0.25000   0.71868   0.00000  Uiso   1.00
O705   O     0.75828   0.25000   0.69989   0.00000  Uiso   1.00
O706   O     0.90839   0.25000   0.80012   0.00000  Uiso   1.00
O707   O     0.98835   0.22549   0.68910   0.00000  Uiso   1.00
C708   C     0.98440   0.17903   0.69357   0.00000  Uiso   1.00
H709   H     0.68952   0.16533   0.70175   0.00000  Uiso   1.00
H710   H     0.96590   0.16460   0.65879   0.00000  Uiso   1.00
H711   H     0.95984   0.16859   0.72159   0.00000  Uiso   1.00
O712   O     0.67835   0.27316   0.81139   0.00000  Uiso   1.00
C713   C     0.68202   0.31971   0.80776   0.00000  Uiso   1.00
H714   H     0.97692   0.33334   0.79913   0.00000  Uiso   1.00
H715   H     0.70714   0.33071   0.78039   0.00000  Uiso   1.00
H716   H     0.69974   0.33372   0.84300   0.00000  Uiso   1.00
O717   O     0.92071   0.28390   0.54082   0.00000  Uiso   1.00
C718   C     0.95170   0.24824   0.53576   0.00000  Uiso   1.00
H719   H     0.98933   0.26163   0.52640   0.00000  Uiso   1.00
H720   H     0.93413   0.22569   0.50610   0.00000  Uiso   1.00
H721   H     0.95919   0.22941   0.56991   0.00000  Uiso   1.00
O722   O     0.79345   0.17559   0.96587   0.00000  Uiso   1.00
C723   C     0.83439   0.14794   0.97790   0.00000  Uiso   1.00
H724   H     0.86399   0.16350   0.50577   0.00000  Uiso   1.00
H725   H     0.85216   0.13897   0.94556   0.00000  Uiso   1.00
H726   H     0.81905   0.11683   0.99322   0.00000  Uiso   1.00
C727   C     0.91370   0.29963   0.63895   0.00000  Uiso   1.00
H728   H     0.90489   0.31765   0.66950   0.00000  Uiso   1.00
O729   O     0.95772   0.30384   0.62944   0.00000  Uiso   1.00
C730   C     0.77217   0.18259   0.86417   0.00000  Uiso   1.00
H731   H     0.75749   0.18811   0.82731   0.00000  Uiso   1.00
O732   O     0.75737   0.14798   0.88179   0.00000  Uiso   1.00
C733   C     0.75361   0.19949   0.61733   0.00000  Uiso   1.00
H734   H     0.75956   0.18510   0.65258   0.00000  Uiso   1.00
O735   O     0.71301   0.18970   0.59220   0.00000  Uiso   1.00
C736   C     0.89348   0.31796   0.88020   0.00000  Uiso   1.00
H737   H     0.90836   0.31359   0.84677   0.00000  Uiso   1.00
O738   O     0.90713   0.35202   0.90279   0.00000  Uiso   1.00
C739   C     0.16683   0.66508   0.75002   0.00000  Uiso   1.00
C740   C     0.16671   0.83497   0.74991   0.00000  Uiso   1.00
C741   C     0.21008   0.76778   0.55892   0.00000  Uiso   1.00
C742   C     0.14541   0.71323   0.94416   0.00000  Uiso   1.00
C743   C     0.20693   0.77128   0.60921   0.00000  Uiso   1.00
C744   C     0.14069   0.71602   0.89285   0.00000  Uiso   1.00
C745   C     0.12737   0.72850   0.59892   0.00000  Uiso   1.00
C746   C     0.19262   0.78344   0.89937   0.00000  Uiso   1.00
C747   C     0.12579   0.73165   0.54844   0.00000  Uiso   1.00
C748   C     0.18913   0.78497   0.94924   0.00000  Uiso   1.00
C749   C     0.16764   0.74994   0.52736   0.00000  Uiso   1.00
C750   C     0.16705   0.74945   0.97292   0.00000  Uiso   1.00
C751   C     0.06818   0.74883   0.73791   0.00000  Uiso   1.00
C752   C     0.26514   0.75088   0.76211   0.00000  Uiso   1.00
C753   C     0.01302   0.74344   0.73211   0.00000  Uiso   1.00
C754   C     0.32033   0.75579   0.76809   0.00000  Uiso   1.00
C755   C     0.15015   0.54649   0.78742   0.00000  Uiso   1.00
C756   C     0.15464   0.95180   0.70607   0.00000  Uiso   1.00
C757   C     0.15061   0.59236   0.78795   0.00000  Uiso   1.00
C758   C     0.15462   0.90587   0.70624   0.00000  Uiso   1.00
C759   C     0.16738   0.61687   0.74989   0.00000  Uiso   1.00
C760   C     0.16684   0.88328   0.74961   0.00000  Uiso   1.00
C761   C     0.18445   0.59496   0.71150   0.00000  Uiso   1.00
C762   C     0.17938   0.90723   0.79267   0.00000  Uiso   1.00
C763   C     0.18493   0.54905   0.71136   0.00000  Uiso   1.00
C764   C     0.18032   0.95312   0.79241   0.00000  Uiso   1.00
C765   C     0.16755   0.52441   0.74924   0.00000  Uiso   1.00
C766   C     0.16764   0.97583   0.74917   0.00000  Uiso   1.00
Cu767  Cu    0.16667   0.74999   0.79822   0.00000  Uiso   1.00
Cu768  Cu    0.16667   0.75000   0.70179   0.00000  Uiso   1.00
H769   H     0.13561   0.52833   0.81664   0.00000  Uiso   1.00
H770   H     0.14380   0.96842   0.67234   0.00000  Uiso   1.00
H771   H     0.13711   0.60851   0.81777   0.00000  Uiso   1.00
H772   H     0.14439   0.88805   0.67256   0.00000  Uiso   1.00
H773   H     0.19812   0.61331   0.68194   0.00000  Uiso   1.00
H774   H     0.18901   0.89063   0.82652   0.00000  Uiso   1.00
H775   H     0.19944   0.53294   0.68192   0.00000  Uiso   1.00
H776   H     0.19144   0.97080   0.82604   0.00000  Uiso   1.00
H777   H     0.09224   0.71809   0.52549   0.00000  Uiso   1.00
H778   H     0.20561   0.81360   0.97003   0.00000  Uiso   1.00
N779   N     0.16667   0.75001   0.62935   0.00000  Uiso   1.00
N780   N     0.16667   0.74999   0.87066   0.00000  Uiso   1.00
O781   O     0.16667   0.68572   0.79072   0.00000  Uiso   1.00
O782   O     0.16666   0.81427   0.70929   0.00000  Uiso   1.00
O783   O     0.16667   0.68573   0.70928   0.00000  Uiso   1.00
O784   O     0.16666   0.81427   0.79072   0.00000  Uiso   1.00
O785   O     0.09161   0.74999   0.78132   0.00000  Uiso   1.00
O786   O     0.24172   0.75000   0.71868   0.00000  Uiso   1.00
O787   O     0.09161   0.75000   0.69989   0.00000  Uiso   1.00
O788   O     0.24172   0.75000   0.80012   0.00000  Uiso   1.00
O789   O     0.32168   0.72549   0.68910   0.00000  Uiso   1.00
C790   C     0.31774   0.67903   0.69357   0.00000  Uiso   1.00
H791   H     0.02285   0.66533   0.70175   0.00000  Uiso   1.00
H792   H     0.29923   0.66460   0.65879   0.00000  Uiso   1.00
H793   H     0.29318   0.66859   0.72159   0.00000  Uiso   1.00
O794   O     0.01168   0.77316   0.81139   0.00000  Uiso   1.00
C795   C     0.01536   0.81971   0.80776   0.00000  Uiso   1.00
H796   H     0.31025   0.83334   0.79913   0.00000  Uiso   1.00
H797   H     0.04047   0.83071   0.78039   0.00000  Uiso   1.00
H798   H     0.03308   0.83372   0.84300   0.00000  Uiso   1.00
O799   O     0.25405   0.78390   0.54082   0.00000  Uiso   1.00
C800   C     0.28503   0.74824   0.53576   0.00000  Uiso   1.00
H801   H     0.32266   0.76163   0.52640   0.00000  Uiso   1.00
H802   H     0.26747   0.72569   0.50610   0.00000  Uiso   1.00
H803   H     0.29252   0.72941   0.56991   0.00000  Uiso   1.00
O804   O     0.12679   0.67559   0.96587   0.00000  Uiso   1.00
C805   C     0.16772   0.64794   0.97790   0.00000  Uiso   1.00
H806   H     0.19732   0.66350   0.50577   0.00000  Uiso   1.00
H807   H     0.18549   0.63897   0.94556   0.00000  Uiso   1.00
H808   H     0.15239   0.61683   0.99322   0.00000  Uiso   1.00
C809   C     0.24703   0.79963   0.63895   0.00000  Uiso   1.00
H810   H     0.23822   0.81765   0.66950   0.00000  Uiso   1.00
O811   O     0.29106   0.80384   0.62944   0.00000  Uiso   1.00
C812   C     0.10550   0.68259   0.86417   0.00000  Uiso   1.00
H813   H     0.09083   0.68811   0.82731   0.00000  Uiso   1.00
O814   O     0.09070   0.64798   0.88179   0.00000  Uiso   1.00
C815   C     0.08694   0.69949   0.61733   0.00000  Uiso   1.00
H816   H     0.09290   0.68510   0.65258   0.00000  Uiso   1.00
O817   O     0.04634   0.68970   0.59220   0.00000  Uiso   1.00
C818   C     0.22681   0.81796   0.88020   0.00000  Uiso   1.00
H819   H     0.24169   0.81359   0.84677   0.00000  Uiso   1.00
O820   O     0.24047   0.85202   0.90279   0.00000  Uiso   1.00
C821   C     0.50016   0.66508   0.75002   0.00000  Uiso   1.00
C822   C     0.50005   0.83497   0.74991   0.00000  Uiso   1.00
C823   C     0.54341   0.76778   0.55892   0.00000  Uiso   1.00
C824   C     0.47874   0.71323   0.94416   0.00000  Uiso   1.00
C825   C     0.54026   0.77128   0.60921   0.00000  Uiso   1.00
C826   C     0.47402   0.71602   0.89285   0.00000  Uiso   1.00
C827   C     0.46070   0.72850   0.59892   0.00000  Uiso   1.00
C828   C     0.52596   0.78344   0.89937   0.00000  Uiso   1.00
C829   C     0.45912   0.73165   0.54844   0.00000  Uiso   1.00
C830   C     0.52246   0.78497   0.94924   0.00000  Uiso   1.00
C831   C     0.50097   0.74994   0.52736   0.00000  Uiso   1.00
C832   C     0.50038   0.74945   0.97292   0.00000  Uiso   1.00
C833   C     0.40151   0.74883   0.73791   0.00000  Uiso   1.00
C834   C     0.59848   0.75088   0.76211   0.00000  Uiso   1.00
C835   C     0.34635   0.74344   0.73211   0.00000  Uiso   1.00
C836   C     0.65366   0.75579   0.76809   0.00000  Uiso   1.00
C837   C     0.48349   0.54649   0.78742   0.00000  Uiso   1.00
C838   C     0.48797   0.95180   0.70607   0.00000  Uiso   1.00
C839   C     0.48395   0.59236   0.78795   0.00000  Uiso   1.00
C840   C     0.48796   0.90587   0.70624   0.00000  Uiso   1.00
C841   C     0.50071   0.61687   0.74989   0.00000  Uiso   1.00
C842   C     0.50017   0.88328   0.74961   0.00000  Uiso   1.00
C843   C     0.51779   0.59496   0.71150   0.00000  Uiso   1.00
C844   C     0.51272   0.90723   0.79267   0.00000  Uiso   1.00
C845   C     0.51826   0.54905   0.71136   0.00000  Uiso   1.00
C846   C     0.51366   0.95312   0.79241   0.00000  Uiso   1.00
C847   C     0.50088   0.52441   0.74924   0.00000  Uiso   1.00
C848   C     0.50097   0.97583   0.74917   0.00000  Uiso   1.00
Cu849  Cu    0.50000   0.74999   0.79822   0.00000  Uiso   1.00
Cu850  Cu    0.50000   0.75000   0.70179   0.00000  Uiso   1.00
H851   H     0.46894   0.52833   0.81664   0.00000  Uiso   1.00
H852   H     0.47713   0.96842   0.67234   0.00000  Uiso   1.00
H853   H     0.47044   0.60851   0.81777   0.00000  Uiso   1.00
H854   H     0.47773   0.88805   0.67256   0.00000  Uiso   1.00
H855   H     0.53145   0.61331   0.68194   0.00000  Uiso   1.00
H856   H     0.52234   0.89063   0.82652   0.00000  Uiso   1.00
H857   H     0.53278   0.53294   0.68192   0.00000  Uiso   1.00
H858   H     0.52477   0.97080   0.82604   0.00000  Uiso   1.00
H859   H     0.42557   0.71809   0.52549   0.00000  Uiso   1.00
H860   H     0.53895   0.81360   0.97003   0.00000  Uiso   1.00
N861   N     0.50000   0.75001   0.62935   0.00000  Uiso   1.00
N862   N     0.50000   0.74999   0.87066   0.00000  Uiso   1.00
O863   O     0.50000   0.68572   0.79072   0.00000  Uiso   1.00
O864   O     0.50000   0.81427   0.70929   0.00000  Uiso   1.00
O865   O     0.50000   0.68573   0.70928   0.00000  Uiso   1.00
O866   O     0.50000   0.81427   0.79072   0.00000  Uiso   1.00
O867   O     0.42495   0.74999   0.78132   0.00000  Uiso   1.00
O868   O     0.57505   0.75000   0.71868   0.00000  Uiso   1.00
O869   O     0.42495   0.75000   0.69989   0.00000  Uiso   1.00
O870   O     0.57505   0.75000   0.80012   0.00000  Uiso   1.00
O871   O     0.65502   0.72549   0.68910   0.00000  Uiso   1.00
C872   C     0.65107   0.67903   0.69357   0.00000  Uiso   1.00
H873   H     0.35619   0.66533   0.70175   0.00000  Uiso   1.00
H874   H     0.63257   0.66460   0.65879   0.00000  Uiso   1.00
H875   H     0.62651   0.66859   0.72159   0.00000  Uiso   1.00
O876   O     0.34502   0.77316   0.81139   0.00000  Uiso   1.00
C877   C     0.34869   0.81971   0.80776   0.00000  Uiso   1.00
H878   H     0.64359   0.83334   0.79913   0.00000  Uiso   1.00
H879   H     0.37380   0.83071   0.78039   0.00000  Uiso   1.00
H880   H     0.36641   0.83372   0.84300   0.00000  Uiso   1.00
O881   O     0.58738   0.78390   0.54082   0.00000  Uiso   1.00
C882   C     0.61837   0.74824   0.53576   0.00000  Uiso   1.00
H883   H     0.65600   0.76163   0.52640   0.00000  Uiso   1.00
H884   H     0.60080   0.72569   0.50610   0.00000  Uiso   1.00
H885   H     0.62586   0.72941   0.56991   0.00000  Uiso   1.00
O886   O     0.46012   0.67559   0.96587   0.00000  Uiso   1.00
C887   C     0.50105   0.64794   0.97790   0.00000  Uiso   1.00
H888   H     0.53066   0.66350   0.50577   0.00000  Uiso   1.00
H889   H     0.51883   0.63897   0.94556   0.00000  Uiso   1.00
H890   H     0.48572   0.61683   0.99322   0.00000  Uiso   1.00
C891   C     0.58037   0.79963   0.63895   0.00000  Uiso   1.00
H892   H     0.57155   0.81765   0.66950   0.00000  Uiso   1.00
O893   O     0.62439   0.80384   0.62944   0.00000  Uiso   1.00
C894   C     0.43883   0.68259   0.86417   0.00000  Uiso   1.00
H895   H     0.42416   0.68811   0.82731   0.00000  Uiso   1.00
O896   O     0.42404   0.64798   0.88179   0.00000  Uiso   1.00
C897   C     0.42028   0.69949   0.61733   0.00000  Uiso   1.00
H898   H     0.42623   0.68510   0.65258   0.00000  Uiso   1.00
O899   O     0.37968   0.68970   0.59220   0.00000  Uiso   1.00
C900   C     0.56015   0.81796   0.88020   0.00000  Uiso   1.00
H901   H     0.57503   0.81359   0.84677   0.00000  Uiso   1.00
O902   O     0.57380   0.85202   0.90279   0.00000  Uiso   1.00
C903   C     0.83349   0.66508   0.75002   0.00000  Uiso   1.00
C904   C     0.83338   0.83497   0.74991   0.00000  Uiso   1.00
C905   C     0.87674   0.76778   0.55892   0.00000  Uiso   1.00
C906   C     0.81208   0.71323   0.94416   0.00000  Uiso   1.00
C907   C     0.87360   0.77128   0.60921   0.00000  Uiso   1.00
C908   C     0.80735   0.71602   0.89285   0.00000  Uiso   1.00
C909   C     0.79403   0.72850   0.59892   0.00000  Uiso   1.00
C910   C     0.85929   0.78344   0.89937   0.00000  Uiso   1.00
C911   C     0.79246   0.73165   0.54844   0.00000  Uiso   1.00
C912   C     0.85579   0.78497   0.94924   0.00000  Uiso   1.00
C913   C     0.83430   0.74994   0.52736   0.00000  Uiso   1.00
C914   C     0.83372   0.74945   0.97292   0.00000  Uiso   1.00
C915   C     0.73484   0.74883   0.73791   0.00000  Uiso   1.00
C916   C     0.93181   0.75088   0.76211   0.00000  Uiso   1.00
C917   C     0.67968   0.74344   0.73211   0.00000  Uiso   1.00
C918   C     0.98699   0.75579   0.76809   0.00000  Uiso   1.00
C919   C     0.81682   0.54649   0.78742   0.00000  Uiso   1.00
C920   C     0.82130   0.95180   0.70607   0.00000  Uiso   1.00
C921   C     0.81728   0.59236   0.78795   0.00000  Uiso   1.00
C922   C     0.82129   0.90587   0.70624   0.00000  Uiso   1.00
C923   C     0.83404   0.61687   0.74989   0.00000  Uiso   1.00
C924   C     0.83351   0.88328   0.74961   0.00000  Uiso   1.00
C925   C     0.85112   0.59496   0.71150   0.00000  Uiso   1.00
C926   C     0.84605   0.90723   0.79267   0.00000  Uiso   1.00
C927   C     0.85159   0.54905   0.71136   0.00000  Uiso   1.00
C928   C     0.84699   0.95312   0.79241   0.00000  Uiso   1.00
C929   C     0.83422   0.52441   0.74924   0.00000  Uiso   1.00
C930   C     0.83430   0.97583   0.74917   0.00000  Uiso   1.00
Cu931  Cu    0.83333   0.74999   0.79822   0.00000  Uiso   1.00
Cu932  Cu    0.83333   0.75000   0.70179   0.00000  Uiso   1.00
H933   H     0.80227   0.52833   0.81664   0.00000  Uiso   1.00
H934   H     0.81046   0.96842   0.67234   0.00000  Uiso   1.00
H935   H     0.80377   0.60851   0.81777   0.00000  Uiso   1.00
H936   H     0.81106   0.88805   0.67256   0.00000  Uiso   1.00
H937   H     0.86478   0.61331   0.68194   0.00000  Uiso   1.00
H938   H     0.85567   0.89063   0.82652   0.00000  Uiso   1.00
H939   H     0.86611   0.53294   0.68192   0.00000  Uiso   1.00
H940   H     0.85810   0.97080   0.82604   0.00000  Uiso   1.00
H941   H     0.75890   0.71809   0.52549   0.00000  Uiso   1.00
H942   H     0.87228   0.81360   0.97003   0.00000  Uiso   1.00
N943   N     0.83333   0.75001   0.62935   0.00000  Uiso   1.00
N944   N     0.83333   0.74999   0.87066   0.00000  Uiso   1.00
O945   O     0.83334   0.68572   0.79072   0.00000  Uiso   1.00
O946   O     0.83333   0.81427   0.70929   0.00000  Uiso   1.00
O947   O     0.83334   0.68573   0.70928   0.00000  Uiso   1.00
O948   O     0.83333   0.81427   0.79072   0.00000  Uiso   1.00
O949   O     0.75828   0.74999   0.78132   0.00000  Uiso   1.00
O950   O     0.90839   0.75000   0.71868   0.00000  Uiso   1.00
O951   O     0.75828   0.75000   0.69989   0.00000  Uiso   1.00
O952   O     0.90839   0.75000   0.80012   0.00000  Uiso   1.00
O953   O     0.98835   0.72549   0.68910   0.00000  Uiso   1.00
C954   C     0.98440   0.67903   0.69357   0.00000  Uiso   1.00
H955   H     0.68952   0.66533   0.70175   0.00000  Uiso   1.00
H956   H     0.96590   0.66460   0.65879   0.00000  Uiso   1.00
H957   H     0.95984   0.66859   0.72159   0.00000  Uiso   1.00
O958   O     0.67835   0.77316   0.81139   0.00000  Uiso   1.00
C959   C     0.68202   0.81971   0.80776   0.00000  Uiso   1.00
H960   H     0.97692   0.83334   0.79913   0.00000  Uiso   1.00
H961   H     0.70714   0.83071   0.78039   0.00000  Uiso   1.00
H962   H     0.69974   0.83372   0.84300   0.00000  Uiso   1.00
O963   O     0.92071   0.78390   0.54082   0.00000  Uiso   1.00
C964   C     0.95170   0.74824   0.53576   0.00000  Uiso   1.00
H965   H     0.98933   0.76163   0.52640   0.00000  Uiso   1.00
H966   H     0.93413   0.72569   0.50610   0.00000  Uiso   1.00
H967   H     0.95919   0.72941   0.56991   0.00000  Uiso   1.00
O968   O     0.79345   0.67559   0.96587   0.00000  Uiso   1.00
C969   C     0.83439   0.64794   0.97790   0.00000  Uiso   1.00
H970   H     0.86399   0.66350   0.50577   0.00000  Uiso   1.00
H971   H     0.85216   0.63897   0.94556   0.00000  Uiso   1.00
H972   H     0.81905   0.61683   0.99322   0.00000  Uiso   1.00
C973   C     0.91370   0.79963   0.63895   0.00000  Uiso   1.00
H974   H     0.90489   0.81765   0.66950   0.00000  Uiso   1.00
O975   O     0.95772   0.80384   0.62944   0.00000  Uiso   1.00
C976   C     0.77217   0.68259   0.86417   0.00000  Uiso   1.00
H977   H     0.75749   0.68811   0.82731   0.00000  Uiso   1.00
O978   O     0.75737   0.64798   0.88179   0.00000  Uiso   1.00
C979   C     0.75361   0.69949   0.61733   0.00000  Uiso   1.00
H980   H     0.75956   0.68510   0.65258   0.00000  Uiso   1.00
O981   O     0.71301   0.68970   0.59220   0.00000  Uiso   1.00
C982   C     0.89348   0.81796   0.88020   0.00000  Uiso   1.00
H983   H     0.90836   0.81359   0.84677   0.00000  Uiso   1.00
O984   O     0.90713   0.85202   0.90279   0.00000  Uiso   1.00
loop_
_geom_bond_atom_site_label_1
_geom_bond_atom_site_label_2
_geom_bond_distance
_geom_bond_site_symmetry_2
_ccdc_geom_bond_type
C1     C21     1.461   .     S
C1     O43     1.303   .     A
C1     O45     1.300   .     A
C2     O46     1.302   .     A
C2     O44     1.301   .     A
C2     C22     1.463   .     S
C3     O61     1.384   .     S
C3     C5      1.427   .     A
C3     C11     1.411   .     A
C4     C12     1.409   .     A
C4     C6      1.429   .     A
C4     O66     1.383   .     S
C5     N41     1.387   .     A
C5     C71     1.486   .     S
C6     C74     1.491   .     S
C6     N42     1.390   .     A
C7     C77     1.481   .     S
C7     C9      1.413   .     A
C7     N41     1.382   .     A
C8     N42     1.384   .     A
C8     C10     1.413   .     A
C8     C80     1.482   .     S
C9     H39     1.082   .     S
C9     C11     1.400   .     A
C10    H40     1.081   .     S
C10    C12     1.398   .     A
C11    C504    1.523   1_554 S
C12    C503    1.523   .     S
C13    O49     1.298   .     A
C13    C15     1.438   .     S
C13    O47     1.289   .     A
C14    O48     1.290   .     A
C14    C16     1.438   .     S
C14    O50     1.297   .     A
C15    C180    1.356   1_455 S
C15    O215    1.388   1_455 S
C16    C97     1.356   .     S
C16    O138    1.388   .     S
C17    C27     1.404   .     A
C17    H31     1.083   .     S
C17    C19     1.389   .     A
C18    C20     1.391   .     A
C18    C28     1.404   .     A
C18    H32     1.083   .     S
C19    C21     1.400   .     A
C19    H33     1.079   .     S
C20    H34     1.083   .     S
C20    C22     1.403   .     A
C21    C23     1.402   .     A
C22    C24     1.401   .     A
C23    H35     1.083   .     S
C23    C25     1.391   .     A
C24    H36     1.080   .     S
C24    C26     1.389   .     A
C25    H37     1.083   .     S
C25    C27     1.404   .     A
C26    H38     1.083   .     S
C26    C28     1.403   .     A
C27    C274    1.472   1_545 S
C28    C273    1.472   .     S
Cu29   N42     2.030   .     S
Cu29   O47     1.970   .     S
Cu29   O43     1.959   .     S
Cu29   O50     1.968   .     S
Cu29   Cu30    2.702   .     S
Cu29   O46     1.957   .     S
Cu30   O45     1.957   .     S
Cu30   O48     1.970   .     S
Cu30   N41     2.030   .     S
Cu30   O44     1.959   .     S
Cu30   O49     1.968   .     S
O51    C52     1.411   .     S
O51    C97     1.388   .     S
C52    H55     1.113   .     S
C52    H54     1.109   .     S
C52    H135    1.113   .     S
H53    C216    1.113   1_455 S
O56    C57     1.411   .     S
O56    C180    1.388   1_455 S
C57    H59     1.113   .     S
C57    H60     1.109   .     S
C57    H222    1.113   1_455 S
H58    C139    1.113   .     S
O61    C62     1.411   .     S
C62    H64     1.111   .     S
C62    H63     1.109   .     S
C62    H65     1.114   .     S
O66    C67     1.411   .     S
C67    H69     1.114   .     S
C67    H70     1.109   .     S
C67    H560    1.112   .     S
H68    C559    1.112   1_554 S
C71    O73     1.221   .     D
C71    H72     1.075   .     S
C74    O76     1.221   .     D
C74    H75     1.070   .     S
C77    H78     1.075   .     S
C77    O79     1.221   .     D
C80    O82     1.222   .     D
C80    H81     1.073   .     S
C83    C103    1.461   .     S
C83    O125    1.303   .     A
C83    O127    1.300   .     A
C84    O128    1.302   .     A
C84    O126    1.301   .     A
C84    C104    1.463   .     S
C85    O143    1.384   .     S
C85    C87     1.427   .     A
C85    C93     1.411   .     A
C86    C94     1.409   .     A
C86    C88     1.429   .     A
C86    O148    1.383   .     S
C87    N123    1.387   .     A
C87    C153    1.486   .     S
C88    C156    1.491   .     S
C88    N124    1.390   .     A
C89    C159    1.481   .     S
C89    C91     1.413   .     A
C89    N123    1.382   .     A
C90    N124    1.384   .     A
C90    C92     1.413   .     A
C90    C162    1.482   .     S
C91    H121    1.082   .     S
C91    C93     1.400   .     A
C92    H122    1.081   .     S
C92    C94     1.398   .     A
C93    C586    1.523   1_554 S
C94    C585    1.523   .     S
C95    O131    1.298   .     A
C95    C97     1.438   .     S
C95    O129    1.289   .     A
C96    O130    1.290   .     A
C96    C98     1.438   .     S
C96    O132    1.297   .     A
C98    C179    1.356   .     S
C98    O220    1.388   .     S
C99    C109    1.404   .     A
C99    H113    1.083   .     S
C99    C101    1.389   .     A
C100   C102    1.391   .     A
C100   C110    1.404   .     A
C100   H114    1.083   .     S
C101   C103    1.400   .     A
C101   H115    1.079   .     S
C102   H116    1.083   .     S
C102   C104    1.403   .     A
C103   C105    1.402   .     A
C104   C106    1.401   .     A
C105   H117    1.083   .     S
C105   C107    1.391   .     A
C106   H118    1.080   .     S
C106   C108    1.389   .     A
C107   H119    1.083   .     S
C107   C109    1.404   .     A
C108   H120    1.083   .     S
C108   C110    1.403   .     A
C109   C356    1.472   1_545 S
C110   C355    1.472   .     S
Cu111  N124    2.030   .     S
Cu111  O129    1.970   .     S
Cu111  O125    1.959   .     S
Cu111  O132    1.968   .     S
Cu111  Cu112   2.702   .     S
Cu111  O128    1.957   .     S
Cu112  O127    1.957   .     S
Cu112  O130    1.970   .     S
Cu112  N123    2.030   .     S
Cu112  O126    1.959   .     S
Cu112  O131    1.968   .     S
O133   C134    1.411   .     S
O133   C179    1.388   .     S
C134   H137    1.113   .     S
C134   H136    1.109   .     S
C134   H217    1.113   .     S
O138   C139    1.411   .     S
C139   H141    1.113   .     S
C139   H142    1.109   .     S
H140   C221    1.113   .     S
O143   C144    1.411   .     S
C144   H146    1.111   .     S
C144   H145    1.109   .     S
C144   H147    1.114   .     S
O148   C149    1.411   .     S
C149   H151    1.114   .     S
C149   H152    1.109   .     S
C149   H642    1.112   .     S
H150   C641    1.112   1_554 S
C153   O155    1.221   .     D
C153   H154    1.075   .     S
C156   O158    1.221   .     D
C156   H157    1.070   .     S
C159   H160    1.075   .     S
C159   O161    1.221   .     D
C162   O164    1.222   .     D
C162   H163    1.073   .     S
C165   C185    1.461   .     S
C165   O207    1.303   .     A
C165   O209    1.300   .     A
C166   O210    1.302   .     A
C166   O208    1.301   .     A
C166   C186    1.463   .     S
C167   O225    1.384   .     S
C167   C169    1.427   .     A
C167   C175    1.411   .     A
C168   C176    1.409   .     A
C168   C170    1.429   .     A
C168   O230    1.383   .     S
C169   N205    1.387   .     A
C169   C235    1.486   .     S
C170   C238    1.491   .     S
C170   N206    1.390   .     A
C171   C241    1.481   .     S
C171   C173    1.413   .     A
C171   N205    1.382   .     A
C172   N206    1.384   .     A
C172   C174    1.413   .     A
C172   C244    1.482   .     S
C173   H203    1.082   .     S
C173   C175    1.400   .     A
C174   H204    1.081   .     S
C174   C176    1.398   .     A
C175   C668    1.523   1_554 S
C176   C667    1.523   .     S
C177   O213    1.298   .     A
C177   C179    1.438   .     S
C177   O211    1.289   .     A
C178   O212    1.290   .     A
C178   C180    1.438   .     S
C178   O214    1.297   .     A
C180   C15     1.356   1_655 S
C180   O56     1.388   1_655 S
C181   C191    1.404   .     A
C181   H195    1.083   .     S
C181   C183    1.389   .     A
C182   C184    1.391   .     A
C182   C192    1.404   .     A
C182   H196    1.083   .     S
C183   C185    1.400   .     A
C183   H197    1.079   .     S
C184   H198    1.083   .     S
C184   C186    1.403   .     A
C185   C187    1.402   .     A
C186   C188    1.401   .     A
C187   H199    1.083   .     S
C187   C189    1.391   .     A
C188   H200    1.080   .     S
C188   C190    1.389   .     A
C189   H201    1.083   .     S
C189   C191    1.404   .     A
C190   H202    1.083   .     S
C190   C192    1.403   .     A
C191   C438    1.472   1_545 S
C192   C437    1.472   .     S
Cu193  N206    2.030   .     S
Cu193  O211    1.970   .     S
Cu193  O207    1.959   .     S
Cu193  O214    1.968   .     S
Cu193  Cu194   2.702   .     S
Cu193  O210    1.957   .     S
Cu194  O209    1.957   .     S
Cu194  O212    1.970   .     S
Cu194  N205    2.030   .     S
Cu194  O208    1.959   .     S
Cu194  O213    1.968   .     S
O215   C216    1.411   .     S
O215   C15     1.388   1_655 S
C216   H219    1.113   .     S
C216   H218    1.109   .     S
C216   H53     1.113   1_655 S
O220   C221    1.411   .     S
C221   H223    1.113   .     S
C221   H224    1.109   .     S
H222   C57     1.113   1_655 S
O225   C226    1.411   .     S
C226   H228    1.111   .     S
C226   H227    1.109   .     S
C226   H229    1.114   .     S
O230   C231    1.411   .     S
C231   H233    1.114   .     S
C231   H234    1.109   .     S
C231   H724    1.112   .     S
H232   C723    1.112   1_554 S
C235   O237    1.221   .     D
C235   H236    1.075   .     S
C238   O240    1.221   .     D
C238   H239    1.070   .     S
C241   H242    1.075   .     S
C241   O243    1.221   .     D
C244   O246    1.222   .     D
C244   H245    1.073   .     S
C247   C267    1.461   .     S
C247   O289    1.303   .     A
C247   O291    1.300   .     A
C248   O292    1.302   .     A
C248   O290    1.301   .     A
C248   C268    1.463   .     S
C249   O307    1.384   .     S
C249   C251    1.427   .     A
C249   C257    1.411   .     A
C250   C258    1.409   .     A
C250   C252    1.429   .     A
C250   O312    1.383   .     S
C251   N287    1.387   .     A
C251   C317    1.486   .     S
C252   C320    1.491   .     S
C252   N288    1.390   .     A
C253   C323    1.481   .     S
C253   C255    1.413   .     A
C253   N287    1.382   .     A
C254   N288    1.384   .     A
C254   C256    1.413   .     A
C254   C326    1.482   .     S
C255   H285    1.082   .     S
C255   C257    1.400   .     A
C256   H286    1.081   .     S
C256   C258    1.398   .     A
C257   C750    1.523   1_554 S
C258   C749    1.523   .     S
C259   O295    1.298   .     A
C259   C261    1.438   .     S
C259   O293    1.289   .     A
C260   O294    1.290   .     A
C260   C262    1.438   .     S
C260   O296    1.297   .     A
C261   C426    1.356   1_455 S
C261   O461    1.388   1_455 S
C262   C343    1.356   .     S
C262   O384    1.388   .     S
C263   C273    1.404   .     A
C263   H277    1.083   .     S
C263   C265    1.389   .     A
C264   C266    1.391   .     A
C264   C274    1.404   .     A
C264   H278    1.083   .     S
C265   C267    1.400   .     A
C265   H279    1.079   .     S
C266   H280    1.083   .     S
C266   C268    1.403   .     A
C267   C269    1.402   .     A
C268   C270    1.401   .     A
C269   H281    1.083   .     S
C269   C271    1.391   .     A
C270   H282    1.080   .     S
C270   C272    1.389   .     A
C271   H283    1.083   .     S
C271   C273    1.404   .     A
C272   H284    1.083   .     S
C272   C274    1.403   .     A
C274   C27     1.472   1_565 S
Cu275  N288    2.030   .     S
Cu275  O293    1.970   .     S
Cu275  O289    1.959   .     S
Cu275  O296    1.968   .     S
Cu275  Cu276   2.702   .     S
Cu275  O292    1.957   .     S
Cu276  O291    1.957   .     S
Cu276  O294    1.970   .     S
Cu276  N287    2.030   .     S
Cu276  O290    1.959   .     S
Cu276  O295    1.968   .     S
O297   C298    1.411   .     S
O297   C343    1.388   .     S
C298   H301    1.113   .     S
C298   H300    1.109   .     S
C298   H381    1.113   .     S
H299   C462    1.113   1_455 S
O302   C303    1.411   .     S
O302   C426    1.388   1_455 S
C303   H305    1.113   .     S
C303   H306    1.109   .     S
C303   H468    1.113   1_455 S
H304   C385    1.113   .     S
O307   C308    1.411   .     S
C308   H310    1.111   .     S
C308   H309    1.109   .     S
C308   H311    1.114   .     S
O312   C313    1.411   .     S
C313   H315    1.114   .     S
C313   H316    1.109   .     S
C313   H806    1.112   .     S
H314   C805    1.112   1_554 S
C317   O319    1.221   .     D
C317   H318    1.075   .     S
C320   O322    1.221   .     D
C320   H321    1.070   .     S
C323   H324    1.075   .     S
C323   O325    1.221   .     D
C326   O328    1.222   .     D
C326   H327    1.073   .     S
C329   C349    1.461   .     S
C329   O371    1.303   .     A
C329   O373    1.300   .     A
C330   O374    1.302   .     A
C330   O372    1.301   .     A
C330   C350    1.463   .     S
C331   O389    1.384   .     S
C331   C333    1.427   .     A
C331   C339    1.411   .     A
C332   C340    1.409   .     A
C332   C334    1.429   .     A
C332   O394    1.383   .     S
C333   N369    1.387   .     A
C333   C399    1.486   .     S
C334   C402    1.491   .     S
C334   N370    1.390   .     A
C335   C405    1.481   .     S
C335   C337    1.413   .     A
C335   N369    1.382   .     A
C336   N370    1.384   .     A
C336   C338    1.413   .     A
C336   C408    1.482   .     S
C337   H367    1.082   .     S
C337   C339    1.400   .     A
C338   H368    1.081   .     S
C338   C340    1.398   .     A
C339   C832    1.523   1_554 S
C340   C831    1.523   .     S
C341   O377    1.298   .     A
C341   C343    1.438   .     S
C341   O375    1.289   .     A
C342   O376    1.290   .     A
C342   C344    1.438   .     S
C342   O378    1.297   .     A
C344   C425    1.356   .     S
C344   O466    1.388   .     S
C345   C355    1.404   .     A
C345   H359    1.083   .     S
C345   C347    1.389   .     A
C346   C348    1.391   .     A
C346   C356    1.404   .     A
C346   H360    1.083   .     S
C347   C349    1.400   .     A
C347   H361    1.079   .     S
C348   H362    1.083   .     S
C348   C350    1.403   .     A
C349   C351    1.402   .     A
C350   C352    1.401   .     A
C351   H363    1.083   .     S
C351   C353    1.391   .     A
C352   H364    1.080   .     S
C352   C354    1.389   .     A
C353   H365    1.083   .     S
C353   C355    1.404   .     A
C354   H366    1.083   .     S
C354   C356    1.403   .     A
C356   C109    1.472   1_565 S
Cu357  N370    2.030   .     S
Cu357  O375    1.970   .     S
Cu357  O371    1.959   .     S
Cu357  O378    1.968   .     S
Cu357  Cu358   2.702   .     S
Cu357  O374    1.957   .     S
Cu358  O373    1.957   .     S
Cu358  O376    1.970   .     S
Cu358  N369    2.030   .     S
Cu358  O372    1.959   .     S
Cu358  O377    1.968   .     S
O379   C380    1.411   .     S
O379   C425    1.388   .     S
C380   H383    1.113   .     S
C380   H382    1.109   .     S
C380   H463    1.113   .     S
O384   C385    1.411   .     S
C385   H387    1.113   .     S
C385   H388    1.109   .     S
H386   C467    1.113   .     S
O389   C390    1.411   .     S
C390   H392    1.111   .     S
C390   H391    1.109   .     S
C390   H393    1.114   .     S
O394   C395    1.411   .     S
C395   H397    1.114   .     S
C395   H398    1.109   .     S
C395   H888    1.112   .     S
H396   C887    1.112   1_554 S
C399   O401    1.221   .     D
C399   H400    1.075   .     S
C402   O404    1.221   .     D
C402   H403    1.070   .     S
C405   H406    1.075   .     S
C405   O407    1.221   .     D
C408   O410    1.222   .     D
C408   H409    1.073   .     S
C411   C431    1.461   .     S
C411   O453    1.303   .     A
C411   O455    1.300   .     A
C412   O456    1.302   .     A
C412   O454    1.301   .     A
C412   C432    1.463   .     S
C413   O471    1.384   .     S
C413   C415    1.427   .     A
C413   C421    1.411   .     A
C414   C422    1.409   .     A
C414   C416    1.429   .     A
C414   O476    1.383   .     S
C415   N451    1.387   .     A
C415   C481    1.486   .     S
C416   C484    1.491   .     S
C416   N452    1.390   .     A
C417   C487    1.481   .     S
C417   C419    1.413   .     A
C417   N451    1.382   .     A
C418   N452    1.384   .     A
C418   C420    1.413   .     A
C418   C490    1.482   .     S
C419   H449    1.082   .     S
C419   C421    1.400   .     A
C420   H450    1.081   .     S
C420   C422    1.398   .     A
C421   C914    1.523   1_554 S
C422   C913    1.523   .     S
C423   O459    1.298   .     A
C423   C425    1.438   .     S
C423   O457    1.289   .     A
C424   O458    1.290   .     A
C424   C426    1.438   .     S
C424   O460    1.297   .     A
C426   C261    1.356   1_655 S
C426   O302    1.388   1_655 S
C427   C437    1.404   .     A
C427   H441    1.083   .     S
C427   C429    1.389   .     A
C428   C430    1.391   .     A
C428   C438    1.404   .     A
C428   H442    1.083   .     S
C429   C431    1.400   .     A
C429   H443    1.079   .     S
C430   H444    1.083   .     S
C430   C432    1.403   .     A
C431   C433    1.402   .     A
C432   C434    1.401   .     A
C433   H445    1.083   .     S
C433   C435    1.391   .     A
C434   H446    1.080   .     S
C434   C436    1.389   .     A
C435   H447    1.083   .     S
C435   C437    1.404   .     A
C436   H448    1.083   .     S
C436   C438    1.403   .     A
C438   C191    1.472   1_565 S
Cu439  N452    2.030   .     S
Cu439  O457    1.970   .     S
Cu439  O453    1.959   .     S
Cu439  O460    1.968   .     S
Cu439  Cu440   2.702   .     S
Cu439  O456    1.957   .     S
Cu440  O455    1.957   .     S
Cu440  O458    1.970   .     S
Cu440  N451    2.030   .     S
Cu440  O454    1.959   .     S
Cu440  O459    1.968   .     S
O461   C462    1.411   .     S
O461   C261    1.388   1_655 S
C462   H465    1.113   .     S
C462   H464    1.109   .     S
C462   H299    1.113   1_655 S
O466   C467    1.411   .     S
C467   H469    1.113   .     S
C467   H470    1.109   .     S
H468   C303    1.113   1_655 S
O471   C472    1.411   .     S
C472   H474    1.111   .     S
C472   H473    1.109   .     S
C472   H475    1.114   .     S
O476   C477    1.411   .     S
C477   H479    1.114   .     S
C477   H480    1.109   .     S
C477   H970    1.112   .     S
H478   C969    1.112   1_554 S
C481   O483    1.221   .     D
C481   H482    1.075   .     S
C484   O486    1.221   .     D
C484   H485    1.070   .     S
C487   H488    1.075   .     S
C487   O489    1.221   .     D
C490   O492    1.222   .     D
C490   H491    1.073   .     S
C493   C513    1.461   .     S
C493   O535    1.303   .     A
C493   O537    1.300   .     A
C494   O538    1.302   .     A
C494   O536    1.301   .     A
C494   C514    1.463   .     S
C495   O553    1.384   .     S
C495   C497    1.427   .     A
C495   C503    1.411   .     A
C496   C504    1.409   .     A
C496   C498    1.429   .     A
C496   O558    1.383   .     S
C497   N533    1.387   .     A
C497   C563    1.486   .     S
C498   C566    1.491   .     S
C498   N534    1.390   .     A
C499   C569    1.481   .     S
C499   C501    1.413   .     A
C499   N533    1.382   .     A
C500   N534    1.384   .     A
C500   C502    1.413   .     A
C500   C572    1.482   .     S
C501   H531    1.082   .     S
C501   C503    1.400   .     A
C502   H532    1.081   .     S
C502   C504    1.398   .     A
C504   C11     1.523   1_556 S
C505   O541    1.298   .     A
C505   C507    1.438   .     S
C505   O539    1.289   .     A
C506   O540    1.290   .     A
C506   C508    1.438   .     S
C506   O542    1.297   .     A
C507   C672    1.356   1_455 S
C507   O707    1.388   1_455 S
C508   C589    1.356   .     S
C508   O630    1.388   .     S
C509   C519    1.404   .     A
C509   H523    1.083   .     S
C509   C511    1.389   .     A
C510   C512    1.391   .     A
C510   C520    1.404   .     A
C510   H524    1.083   .     S
C511   C513    1.400   .     A
C511   H525    1.079   .     S
C512   H526    1.083   .     S
C512   C514    1.403   .     A
C513   C515    1.402   .     A
C514   C516    1.401   .     A
C515   H527    1.083   .     S
C515   C517    1.391   .     A
C516   H528    1.080   .     S
C516   C518    1.389   .     A
C517   H529    1.083   .     S
C517   C519    1.404   .     A
C518   H530    1.083   .     S
C518   C520    1.403   .     A
C519   C766    1.472   1_545 S
C520   C765    1.472   .     S
Cu521  N534    2.030   .     S
Cu521  O539    1.970   .     S
Cu521  O535    1.959   .     S
Cu521  O542    1.968   .     S
Cu521  Cu522   2.702   .     S
Cu521  O538    1.957   .     S
Cu522  O537    1.957   .     S
Cu522  O540    1.970   .     S
Cu522  N533    2.030   .     S
Cu522  O536    1.959   .     S
Cu522  O541    1.968   .     S
O543   C544    1.411   .     S
O543   C589    1.388   .     S
C544   H547    1.113   .     S
C544   H546    1.109   .     S
C544   H627    1.113   .     S
H545   C708    1.113   1_455 S
O548   C549    1.411   .     S
O548   C672    1.388   1_455 S
C549   H551    1.113   .     S
C549   H552    1.109   .     S
C549   H714    1.113   1_455 S
H550   C631    1.113   .     S
O553   C554    1.411   .     S
C554   H556    1.111   .     S
C554   H555    1.109   .     S
C554   H557    1.114   .     S
O558   C559    1.411   .     S
C559   H561    1.114   .     S
C559   H562    1.109   .     S
C559   H68     1.112   1_556 S
C563   O565    1.221   .     D
C563   H564    1.075   .     S
C566   O568    1.221   .     D
C566   H567    1.070   .     S
C569   H570    1.075   .     S
C569   O571    1.221   .     D
C572   O574    1.222   .     D
C572   H573    1.073   .     S
C575   C595    1.461   .     S
C575   O617    1.303   .     A
C575   O619    1.300   .     A
C576   O620    1.302   .     A
C576   O618    1.301   .     A
C576   C596    1.463   .     S
C577   O635    1.384   .     S
C577   C579    1.427   .     A
C577   C585    1.411   .     A
C578   C586    1.409   .     A
C578   C580    1.429   .     A
C578   O640    1.383   .     S
C579   N615    1.387   .     A
C579   C645    1.486   .     S
C580   C648    1.491   .     S
C580   N616    1.390   .     A
C581   C651    1.481   .     S
C581   C583    1.413   .     A
C581   N615    1.382   .     A
C582   N616    1.384   .     A
C582   C584    1.413   .     A
C582   C654    1.482   .     S
C583   H613    1.082   .     S
C583   C585    1.400   .     A
C584   H614    1.081   .     S
C584   C586    1.398   .     A
C586   C93     1.523   1_556 S
C587   O623    1.298   .     A
C587   C589    1.438   .     S
C587   O621    1.289   .     A
C588   O622    1.290   .     A
C588   C590    1.438   .     S
C588   O624    1.297   .     A
C590   C671    1.356   .     S
C590   O712    1.388   .     S
C591   C601    1.404   .     A
C591   H605    1.083   .     S
C591   C593    1.389   .     A
C592   C594    1.391   .     A
C592   C602    1.404   .     A
C592   H606    1.083   .     S
C593   C595    1.400   .     A
C593   H607    1.079   .     S
C594   H608    1.083   .     S
C594   C596    1.403   .     A
C595   C597    1.402   .     A
C596   C598    1.401   .     A
C597   H609    1.083   .     S
C597   C599    1.391   .     A
C598   H610    1.080   .     S
C598   C600    1.389   .     A
C599   H611    1.083   .     S
C599   C601    1.404   .     A
C600   H612    1.083   .     S
C600   C602    1.403   .     A
C601   C848    1.472   1_545 S
C602   C847    1.472   .     S
Cu603  N616    2.030   .     S
Cu603  O621    1.970   .     S
Cu603  O617    1.959   .     S
Cu603  O624    1.968   .     S
Cu603  Cu604   2.702   .     S
Cu603  O620    1.957   .     S
Cu604  O619    1.957   .     S
Cu604  O622    1.970   .     S
Cu604  N615    2.030   .     S
Cu604  O618    1.959   .     S
Cu604  O623    1.968   .     S
O625   C626    1.411   .     S
O625   C671    1.388   .     S
C626   H629    1.113   .     S
C626   H628    1.109   .     S
C626   H709    1.113   .     S
O630   C631    1.411   .     S
C631   H633    1.113   .     S
C631   H634    1.109   .     S
H632   C713    1.113   .     S
O635   C636    1.411   .     S
C636   H638    1.111   .     S
C636   H637    1.109   .     S
C636   H639    1.114   .     S
O640   C641    1.411   .     S
C641   H643    1.114   .     S
C641   H644    1.109   .     S
C641   H150    1.112   1_556 S
C645   O647    1.221   .     D
C645   H646    1.075   .     S
C648   O650    1.221   .     D
C648   H649    1.070   .     S
C651   H652    1.075   .     S
C651   O653    1.221   .     D
C654   O656    1.222   .     D
C654   H655    1.073   .     S
C657   C677    1.461   .     S
C657   O699    1.303   .     A
C657   O701    1.300   .     A
C658   O702    1.302   .     A
C658   O700    1.301   .     A
C658   C678    1.463   .     S
C659   O717    1.384   .     S
C659   C661    1.427   .     A
C659   C667    1.411   .     A
C660   C668    1.409   .     A
C660   C662    1.429   .     A
C660   O722    1.383   .     S
C661   N697    1.387   .     A
C661   C727    1.486   .     S
C662   C730    1.491   .     S
C662   N698    1.390   .     A
C663   C733    1.481   .     S
C663   C665    1.413   .     A
C663   N697    1.382   .     A
C664   N698    1.384   .     A
C664   C666    1.413   .     A
C664   C736    1.482   .     S
C665   H695    1.082   .     S
C665   C667    1.400   .     A
C666   H696    1.081   .     S
C666   C668    1.398   .     A
C668   C175    1.523   1_556 S
C669   O705    1.298   .     A
C669   C671    1.438   .     S
C669   O703    1.289   .     A
C670   O704    1.290   .     A
C670   C672    1.438   .     S
C670   O706    1.297   .     A
C672   C507    1.356   1_655 S
C672   O548    1.388   1_655 S
C673   C683    1.404   .     A
C673   H687    1.083   .     S
C673   C675    1.389   .     A
C674   C676    1.391   .     A
C674   C684    1.404   .     A
C674   H688    1.083   .     S
C675   C677    1.400   .     A
C675   H689    1.079   .     S
C676   H690    1.083   .     S
C676   C678    1.403   .     A
C677   C679    1.402   .     A
C678   C680    1.401   .     A
C679   H691    1.083   .     S
C679   C681    1.391   .     A
C680   H692    1.080   .     S
C680   C682    1.389   .     A
C681   H693    1.083   .     S
C681   C683    1.404   .     A
C682   H694    1.083   .     S
C682   C684    1.403   .     A
C683   C930    1.472   1_545 S
C684   C929    1.472   .     S
Cu685  N698    2.030   .     S
Cu685  O703    1.970   .     S
Cu685  O699    1.959   .     S
Cu685  O706    1.968   .     S
Cu685  Cu686   2.702   .     S
Cu685  O702    1.957   .     S
Cu686  O701    1.957   .     S
Cu686  O704    1.970   .     S
Cu686  N697    2.030   .     S
Cu686  O700    1.959   .     S
Cu686  O705    1.968   .     S
O707   C708    1.411   .     S
O707   C507    1.388   1_655 S
C708   H711    1.113   .     S
C708   H710    1.109   .     S
C708   H545    1.113   1_655 S
O712   C713    1.411   .     S
C713   H715    1.113   .     S
C713   H716    1.109   .     S
H714   C549    1.113   1_655 S
O717   C718    1.411   .     S
C718   H720    1.111   .     S
C718   H719    1.109   .     S
C718   H721    1.114   .     S
O722   C723    1.411   .     S
C723   H725    1.114   .     S
C723   H726    1.109   .     S
C723   H232    1.112   1_556 S
C727   O729    1.221   .     D
C727   H728    1.075   .     S
C730   O732    1.221   .     D
C730   H731    1.070   .     S
C733   H734    1.075   .     S
C733   O735    1.221   .     D
C736   O738    1.222   .     D
C736   H737    1.073   .     S
C739   C759    1.461   .     S
C739   O781    1.303   .     A
C739   O783    1.300   .     A
C740   O784    1.302   .     A
C740   O782    1.301   .     A
C740   C760    1.463   .     S
C741   O799    1.384   .     S
C741   C743    1.427   .     A
C741   C749    1.411   .     A
C742   C750    1.409   .     A
C742   C744    1.429   .     A
C742   O804    1.383   .     S
C743   N779    1.387   .     A
C743   C809    1.486   .     S
C744   C812    1.491   .     S
C744   N780    1.390   .     A
C745   C815    1.481   .     S
C745   C747    1.413   .     A
C745   N779    1.382   .     A
C746   N780    1.384   .     A
C746   C748    1.413   .     A
C746   C818    1.482   .     S
C747   H777    1.082   .     S
C747   C749    1.400   .     A
C748   H778    1.081   .     S
C748   C750    1.398   .     A
C750   C257    1.523   1_556 S
C751   O787    1.298   .     A
C751   C753    1.438   .     S
C751   O785    1.289   .     A
C752   O786    1.290   .     A
C752   C754    1.438   .     S
C752   O788    1.297   .     A
C753   C918    1.356   1_455 S
C753   O953    1.388   1_455 S
C754   C835    1.356   .     S
C754   O876    1.388   .     S
C755   C765    1.404   .     A
C755   H769    1.083   .     S
C755   C757    1.389   .     A
C756   C758    1.391   .     A
C756   C766    1.404   .     A
C756   H770    1.083   .     S
C757   C759    1.400   .     A
C757   H771    1.079   .     S
C758   H772    1.083   .     S
C758   C760    1.403   .     A
C759   C761    1.402   .     A
C760   C762    1.401   .     A
C761   H773    1.083   .     S
C761   C763    1.391   .     A
C762   H774    1.080   .     S
C762   C764    1.389   .     A
C763   H775    1.083   .     S
C763   C765    1.404   .     A
C764   H776    1.083   .     S
C764   C766    1.403   .     A
C766   C519    1.472   1_565 S
Cu767  N780    2.030   .     S
Cu767  O785    1.970   .     S
Cu767  O781    1.959   .     S
Cu767  O788    1.968   .     S
Cu767  Cu768   2.702   .     S
Cu767  O784    1.957   .     S
Cu768  O783    1.957   .     S
Cu768  O786    1.970   .     S
Cu768  N779    2.030   .     S
Cu768  O782    1.959   .     S
Cu768  O787    1.968   .     S
O789   C790    1.411   .     S
O789   C835    1.388   .     S
C790   H793    1.113   .     S
C790   H792    1.109   .     S
C790   H873    1.113   .     S
H791   C954    1.113   1_455 S
O794   C795    1.411   .     S
O794   C918    1.388   1_455 S
C795   H797    1.113   .     S
C795   H798    1.109   .     S
C795   H960    1.113   1_455 S
H796   C877    1.113   .     S
O799   C800    1.411   .     S
C800   H802    1.111   .     S
C800   H801    1.109   .     S
C800   H803    1.114   .     S
O804   C805    1.411   .     S
C805   H807    1.114   .     S
C805   H808    1.109   .     S
C805   H314    1.112   1_556 S
C809   O811    1.221   .     D
C809   H810    1.075   .     S
C812   O814    1.221   .     D
C812   H813    1.070   .     S
C815   H816    1.075   .     S
C815   O817    1.221   .     D
C818   O820    1.222   .     D
C818   H819    1.073   .     S
C821   C841    1.461   .     S
C821   O863    1.303   .     A
C821   O865    1.300   .     A
C822   O866    1.302   .     A
C822   O864    1.301   .     A
C822   C842    1.463   .     S
C823   O881    1.384   .     S
C823   C825    1.427   .     A
C823   C831    1.411   .     A
C824   C832    1.409   .     A
C824   C826    1.429   .     A
C824   O886    1.383   .     S
C825   N861    1.387   .     A
C825   C891    1.486   .     S
C826   C894    1.491   .     S
C826   N862    1.390   .     A
C827   C897    1.481   .     S
C827   C829    1.413   .     A
C827   N861    1.382   .     A
C828   N862    1.384   .     A
C828   C830    1.413   .     A
C828   C900    1.482   .     S
C829   H859    1.082   .     S
C829   C831    1.400   .     A
C830   H860    1.081   .     S
C830   C832    1.398   .     A
C832   C339    1.523   1_556 S
C833   O869    1.298   .     A
C833   C835    1.438   .     S
C833   O867    1.289   .     A
C834   O868    1.290   .     A
C834   C836    1.438   .     S
C834   O870    1.297   .     A
C836   C917    1.356   .     S
C836   O958    1.388   .     S
C837   C847    1.404   .     A
C837   H851    1.083   .     S
C837   C839    1.389   .     A
C838   C840    1.391   .     A
C838   C848    1.404   .     A
C838   H852    1.083   .     S
C839   C841    1.400   .     A
C839   H853    1.079   .     S
C840   H854    1.083   .     S
C840   C842    1.403   .     A
C841   C843    1.402   .     A
C842   C844    1.401   .     A
C843   H855    1.083   .     S
C843   C845    1.391   .     A
C844   H856    1.080   .     S
C844   C846    1.389   .     A
C845   H857    1.083   .     S
C845   C847    1.404   .     A
C846   H858    1.083   .     S
C846   C848    1.403   .     A
C848   C601    1.472   1_565 S
Cu849  N862    2.030   .     S
Cu849  O867    1.970   .     S
Cu849  O863    1.959   .     S
Cu849  O870    1.968   .     S
Cu849  Cu850   2.702   .     S
Cu849  O866    1.957   .     S
Cu850  O865    1.957   .     S
Cu850  O868    1.970   .     S
Cu850  N861    2.030   .     S
Cu850  O864    1.959   .     S
Cu850  O869    1.968   .     S
O871   C872    1.411   .     S
O871   C917    1.388   .     S
C872   H875    1.113   .     S
C872   H874    1.109   .     S
C872   H955    1.113   .     S
O876   C877    1.411   .     S
C877   H879    1.113   .     S
C877   H880    1.109   .     S
H878   C959    1.113   .     S
O881   C882    1.411   .     S
C882   H884    1.111   .     S
C882   H883    1.109   .     S
C882   H885    1.114   .     S
O886   C887    1.411   .     S
C887   H889    1.114   .     S
C887   H890    1.109   .     S
C887   H396    1.112   1_556 S
C891   O893    1.221   .     D
C891   H892    1.075   .     S
C894   O896    1.221   .     D
C894   H895    1.070   .     S
C897   H898    1.075   .     S
C897   O899    1.221   .     D
C900   O902    1.222   .     D
C900   H901    1.073   .     S
C903   C923    1.461   .     S
C903   O945    1.303   .     A
C903   O947    1.300   .     A
C904   O948    1.302   .     A
C904   O946    1.301   .     A
C904   C924    1.463   .     S
C905   O963    1.384   .     S
C905   C907    1.427   .     A
C905   C913    1.411   .     A
C906   C914    1.409   .     A
C906   C908    1.429   .     A
C906   O968    1.383   .     S
C907   N943    1.387   .     A
C907   C973    1.486   .     S
C908   C976    1.491   .     S
C908   N944    1.390   .     A
C909   C979    1.481   .     S
C909   C911    1.413   .     A
C909   N943    1.382   .     A
C910   N944    1.384   .     A
C910   C912    1.413   .     A
C910   C982    1.482   .     S
C911   H941    1.082   .     S
C911   C913    1.400   .     A
C912   H942    1.081   .     S
C912   C914    1.398   .     A
C914   C421    1.523   1_556 S
C915   O951    1.298   .     A
C915   C917    1.438   .     S
C915   O949    1.289   .     A
C916   O950    1.290   .     A
C916   C918    1.438   .     S
C916   O952    1.297   .     A
C918   C753    1.356   1_655 S
C918   O794    1.388   1_655 S
C919   C929    1.404   .     A
C919   H933    1.083   .     S
C919   C921    1.389   .     A
C920   C922    1.391   .     A
C920   C930    1.404   .     A
C920   H934    1.083   .     S
C921   C923    1.400   .     A
C921   H935    1.079   .     S
C922   H936    1.083   .     S
C922   C924    1.403   .     A
C923   C925    1.402   .     A
C924   C926    1.401   .     A
C925   H937    1.083   .     S
C925   C927    1.391   .     A
C926   H938    1.080   .     S
C926   C928    1.389   .     A
C927   H939    1.083   .     S
C927   C929    1.404   .     A
C928   H940    1.083   .     S
C928   C930    1.403   .     A
C930   C683    1.472   1_565 S
Cu931  N944    2.030   .     S
Cu931  O949    1.970   .     S
Cu931  O945    1.959   .     S
Cu931  O952    1.968   .     S
Cu931  Cu932   2.702   .     S
Cu931  O948    1.957   .     S
Cu932  O947    1.957   .     S
Cu932  O950    1.970   .     S
Cu932  N943    2.030   .     S
Cu932  O946    1.959   .     S
Cu932  O951    1.968   .     S
O953   C954    1.411   .     S
O953   C753    1.388   1_655 S
C954   H957    1.113   .     S
C954   H956    1.109   .     S
C954   H791    1.113   1_655 S
O958   C959    1.411   .     S
C959   H961    1.113   .     S
C959   H962    1.109   .     S
H960   C795    1.113   1_655 S
O963   C964    1.411   .     S
C964   H966    1.111   .     S
C964   H965    1.109   .     S
C964   H967    1.114   .     S
O968   C969    1.411   .     S
C969   H971    1.114   .     S
C969   H972    1.109   .     S
C969   H478    1.112   1_556 S
C973   O975    1.221   .     D
C973   H974    1.075   .     S
C976   O978    1.221   .     D
C976   H977    1.070   .     S
C979   H980    1.075   .     S
C979   O981    1.221   .     D
C982   O984    1.222   .     D
C982   H983    1.073   .     S
