data_str_m1_o10_o16_pcu_sym.122
_audit_creation_date              2020-01-03
_audit_creation_method            'Materials Studio'
_symmetry_space_group_name_H-M    'P1'
_symmetry_Int_Tables_number       1
_symmetry_cell_setting            triclinic
loop_
_symmetry_equiv_pos_as_xyz
  x,y,z
_cell_length_a                    32.5359
_cell_length_b                    32.5432
_cell_length_c                    31.0438
_cell_angle_alpha                 96.3597
_cell_angle_beta                  74.3736
_cell_angle_gamma                 98.8326
loop_
_atom_site_label
_atom_site_type_symbol
_atom_site_fract_x
_atom_site_fract_y
_atom_site_fract_z
_atom_site_U_iso_or_equiv
_atom_site_adp_type
_atom_site_occupancy
C1     C     0.05266   0.15911   0.26044   0.00000  Uiso   1.00
C2     C     0.16721   0.15618   0.05963   0.00000  Uiso   1.00
C3     C     0.23351   0.12963   0.05633   0.00000  Uiso   1.00
C4     C     0.28088   0.17478   0.24047   0.00000  Uiso   1.00
C5     C     0.14063   0.19211   0.42015   0.00000  Uiso   1.00
C6     C     0.32688   0.18073   0.23818   0.00000  Uiso   1.00
C7     C     0.00774   0.15664   0.26210   0.00000  Uiso   1.00
C8     C     0.18070   0.32256   0.23617   0.00000  Uiso   1.00
C9     C     0.15194   0.01166   0.26357   0.00000  Uiso   1.00
C10    C     0.15627   0.05584   0.26000   0.00000  Uiso   1.00
C11    C     0.17665   0.27796   0.24001   0.00000  Uiso   1.00
C12    C     0.08865   0.20616   0.49050   0.00000  Uiso   1.00
C13    C     0.18554   0.14833   0.12931   0.00000  Uiso   1.00
C14    C     0.14936   0.18541   0.37083   0.00000  Uiso   1.00
C15    C     0.24665   0.13172   0.00985   0.00000  Uiso   1.00
C16    C     0.19445   0.14239   0.08089   0.00000  Uiso   1.00
C17    C     0.10134   0.20558   0.44408   0.00000  Uiso   1.00
C18    C     0.28677   0.11426   0.48482   0.00000  Uiso   1.00
C19    C     0.28606   0.08371   0.44913   0.00000  Uiso   1.00
C20    C     0.32347   0.06657   0.42613   0.00000  Uiso   1.00
C21    C     0.02839   0.07922   0.43899   0.00000  Uiso   1.00
C22    C     0.02925   0.10895   0.47491   0.00000  Uiso   1.00
C23    C     0.11381   0.19148   0.01375   0.00000  Uiso   1.00
C24    C     0.32536   0.12655   0.49772   0.00000  Uiso   1.00
C25    C     0.02255   0.21423   0.21171   0.00000  Uiso   1.00
C26    C     0.01554   0.25604   0.22317   0.00000  Uiso   1.00
C27    C     0.04350   0.28791   0.19966   0.00000  Uiso   1.00
C28    C     0.07850   0.27827   0.16445   0.00000  Uiso   1.00
C29    C     0.08542   0.23674   0.15246   0.00000  Uiso   1.00
C30    C     0.05747   0.20475   0.17578   0.00000  Uiso   1.00
C31    C     0.15394   0.17786   0.49098   0.00000  Uiso   1.00
C32    C     0.16864   0.18135   0.44392   0.00000  Uiso   1.00
C33    C     0.18008   0.16118   0.01326   0.00000  Uiso   1.00
C34    C     0.22102   0.14974   0.48843   0.00000  Uiso   1.00
C35    C     0.23661   0.15887   0.44350   0.00000  Uiso   1.00
C36    C     0.21127   0.17497   0.42196   0.00000  Uiso   1.00
H37    H     0.25383   0.11820   0.07365   0.00000  Uiso   1.00
H38    H     0.31971   0.13179   0.28054   0.00000  Uiso   1.00
H39    H     0.25650   0.07311   0.43920   0.00000  Uiso   1.00
H40    H     0.32274   0.04328   0.39852   0.00000  Uiso   1.00
H41    H     0.05729   0.06579   0.42130   0.00000  Uiso   1.00
H42    H     0.05879   0.11821   0.48514   0.00000  Uiso   1.00
H43    H     0.32664   0.14972   0.02537   0.00000  Uiso   1.00
H44    H     0.32214   0.26397   0.25071   0.00000  Uiso   1.00
H45    H     0.03815   0.32009   0.20888   0.00000  Uiso   1.00
H46    H     0.10022   0.30299   0.14643   0.00000  Uiso   1.00
H47    H     0.11252   0.22938   0.12515   0.00000  Uiso   1.00
H48    H     0.20733   0.00393   0.21095   0.00000  Uiso   1.00
H49    H     0.06312   0.17271   0.16593   0.00000  Uiso   1.00
H50    H     0.12489   0.33100   0.28882   0.00000  Uiso   1.00
H51    H     0.26904   0.15449   0.42467   0.00000  Uiso   1.00
H52    H     0.13727   0.16481   0.08081   0.00000  Uiso   1.00
H53    H     0.07962   0.21450   0.42680   0.00000  Uiso   1.00
H54    H     0.10083   0.19153   0.04950   0.00000  Uiso   1.00
H55    H     0.05812   0.21641   0.00853   0.00000  Uiso   1.00
H56    H     0.22621   0.18330   0.38803   0.00000  Uiso   1.00
O57    O     0.16667   0.16667   0.25000   0.00000  Uiso   1.00
O58    O     0.15451   0.12637   0.15459   0.00000  Uiso   1.00
O59    O     0.12940   0.20391   0.34968   0.00000  Uiso   1.00
O60    O     0.20824   0.17759   0.14606   0.00000  Uiso   1.00
O61    O     0.17451   0.15880   0.34968   0.00000  Uiso   1.00
O62    O     0.17930   0.08019   0.28214   0.00000  Uiso   1.00
O63    O     0.14632   0.26085   0.27014   0.00000  Uiso   1.00
O64    O     0.07412   0.13291   0.23413   0.00000  Uiso   1.00
O65    O     0.26693   0.19272   0.21361   0.00000  Uiso   1.00
O66    O     0.07071   0.18878   0.28213   0.00000  Uiso   1.00
O67    O     0.25491   0.15226   0.27014   0.00000  Uiso   1.00
O68    O     0.13760   0.06944   0.23413   0.00000  Uiso   1.00
O69    O     0.20345   0.25620   0.21361   0.00000  Uiso   1.00
Zn70   Zn    0.19338   0.13994   0.28734   0.00000  Uiso   1.00
Zn71   Zn    0.13379   0.12458   0.21876   0.00000  Uiso   1.00
Zn72   Zn    0.21056   0.19775   0.20657   0.00000  Uiso   1.00
Zn73   Zn    0.12893   0.20439   0.28734   0.00000  Uiso   1.00
C74    C     0.38600   0.15911   0.26044   0.00000  Uiso   1.00
C75    C     0.50054   0.15618   0.05963   0.00000  Uiso   1.00
C76    C     0.56684   0.12963   0.05633   0.00000  Uiso   1.00
C77    C     0.61421   0.17478   0.24047   0.00000  Uiso   1.00
C78    C     0.47396   0.19211   0.42015   0.00000  Uiso   1.00
C79    C     0.66021   0.18073   0.23818   0.00000  Uiso   1.00
C80    C     0.34107   0.15664   0.26210   0.00000  Uiso   1.00
C81    C     0.51403   0.32256   0.23617   0.00000  Uiso   1.00
C82    C     0.48527   0.01166   0.26357   0.00000  Uiso   1.00
C83    C     0.48961   0.05584   0.26000   0.00000  Uiso   1.00
C84    C     0.50998   0.27796   0.24001   0.00000  Uiso   1.00
C85    C     0.42199   0.20616   0.49050   0.00000  Uiso   1.00
C86    C     0.51887   0.14833   0.12931   0.00000  Uiso   1.00
C87    C     0.48269   0.18541   0.37083   0.00000  Uiso   1.00
C88    C     0.57999   0.13172   0.00985   0.00000  Uiso   1.00
C89    C     0.52778   0.14239   0.08089   0.00000  Uiso   1.00
C90    C     0.43468   0.20558   0.44408   0.00000  Uiso   1.00
C91    C     0.62010   0.11426   0.48482   0.00000  Uiso   1.00
C92    C     0.61939   0.08371   0.44913   0.00000  Uiso   1.00
C93    C     0.65681   0.06657   0.42613   0.00000  Uiso   1.00
C94    C     0.36172   0.07922   0.43899   0.00000  Uiso   1.00
C95    C     0.36259   0.10895   0.47491   0.00000  Uiso   1.00
C96    C     0.44715   0.19148   0.01375   0.00000  Uiso   1.00
C97    C     0.65870   0.12655   0.49772   0.00000  Uiso   1.00
C98    C     0.35589   0.21423   0.21171   0.00000  Uiso   1.00
C99    C     0.34888   0.25604   0.22317   0.00000  Uiso   1.00
C100   C     0.37683   0.28791   0.19966   0.00000  Uiso   1.00
C101   C     0.41183   0.27827   0.16445   0.00000  Uiso   1.00
C102   C     0.41876   0.23674   0.15246   0.00000  Uiso   1.00
C103   C     0.39081   0.20475   0.17578   0.00000  Uiso   1.00
C104   C     0.48727   0.17786   0.49098   0.00000  Uiso   1.00
C105   C     0.50197   0.18135   0.44392   0.00000  Uiso   1.00
C106   C     0.51342   0.16118   0.01326   0.00000  Uiso   1.00
C107   C     0.55435   0.14974   0.48843   0.00000  Uiso   1.00
C108   C     0.56994   0.15887   0.44350   0.00000  Uiso   1.00
C109   C     0.54460   0.17497   0.42196   0.00000  Uiso   1.00
H110   H     0.58717   0.11820   0.07365   0.00000  Uiso   1.00
H111   H     0.65304   0.13179   0.28054   0.00000  Uiso   1.00
H112   H     0.58983   0.07311   0.43920   0.00000  Uiso   1.00
H113   H     0.65607   0.04328   0.39852   0.00000  Uiso   1.00
H114   H     0.39062   0.06579   0.42130   0.00000  Uiso   1.00
H115   H     0.39212   0.11821   0.48514   0.00000  Uiso   1.00
H116   H     0.65997   0.14972   0.02537   0.00000  Uiso   1.00
H117   H     0.65548   0.26397   0.25071   0.00000  Uiso   1.00
H118   H     0.37149   0.32009   0.20888   0.00000  Uiso   1.00
H119   H     0.43355   0.30299   0.14643   0.00000  Uiso   1.00
H120   H     0.44585   0.22938   0.12515   0.00000  Uiso   1.00
H121   H     0.54067   0.00393   0.21095   0.00000  Uiso   1.00
H122   H     0.39645   0.17271   0.16593   0.00000  Uiso   1.00
H123   H     0.45823   0.33100   0.28882   0.00000  Uiso   1.00
H124   H     0.60238   0.15449   0.42467   0.00000  Uiso   1.00
H125   H     0.47061   0.16481   0.08081   0.00000  Uiso   1.00
H126   H     0.41296   0.21450   0.42680   0.00000  Uiso   1.00
H127   H     0.43416   0.19153   0.04950   0.00000  Uiso   1.00
H128   H     0.39145   0.21641   0.00853   0.00000  Uiso   1.00
H129   H     0.55954   0.18330   0.38803   0.00000  Uiso   1.00
O130   O     0.50000   0.16667   0.25000   0.00000  Uiso   1.00
O131   O     0.48784   0.12637   0.15459   0.00000  Uiso   1.00
O132   O     0.46274   0.20391   0.34968   0.00000  Uiso   1.00
O133   O     0.54157   0.17759   0.14606   0.00000  Uiso   1.00
O134   O     0.50785   0.15880   0.34968   0.00000  Uiso   1.00
O135   O     0.51264   0.08019   0.28214   0.00000  Uiso   1.00
O136   O     0.47965   0.26085   0.27014   0.00000  Uiso   1.00
O137   O     0.40745   0.13291   0.23413   0.00000  Uiso   1.00
O138   O     0.60026   0.19272   0.21361   0.00000  Uiso   1.00
O139   O     0.40405   0.18878   0.28213   0.00000  Uiso   1.00
O140   O     0.58824   0.15226   0.27014   0.00000  Uiso   1.00
O141   O     0.47093   0.06944   0.23413   0.00000  Uiso   1.00
O142   O     0.53678   0.25620   0.21361   0.00000  Uiso   1.00
Zn143  Zn    0.52672   0.13994   0.28734   0.00000  Uiso   1.00
Zn144  Zn    0.46713   0.12458   0.21876   0.00000  Uiso   1.00
Zn145  Zn    0.54389   0.19775   0.20657   0.00000  Uiso   1.00
Zn146  Zn    0.46226   0.20439   0.28734   0.00000  Uiso   1.00
C147   C     0.71933   0.15911   0.26044   0.00000  Uiso   1.00
C148   C     0.83388   0.15618   0.05963   0.00000  Uiso   1.00
C149   C     0.90018   0.12963   0.05633   0.00000  Uiso   1.00
C150   C     0.94755   0.17478   0.24047   0.00000  Uiso   1.00
C151   C     0.80729   0.19211   0.42015   0.00000  Uiso   1.00
C152   C     0.99355   0.18073   0.23818   0.00000  Uiso   1.00
C153   C     0.67440   0.15664   0.26210   0.00000  Uiso   1.00
C154   C     0.84736   0.32256   0.23617   0.00000  Uiso   1.00
C155   C     0.81860   0.01166   0.26357   0.00000  Uiso   1.00
C156   C     0.82294   0.05584   0.26000   0.00000  Uiso   1.00
C157   C     0.84332   0.27796   0.24001   0.00000  Uiso   1.00
C158   C     0.75532   0.20616   0.49050   0.00000  Uiso   1.00
C159   C     0.85221   0.14833   0.12931   0.00000  Uiso   1.00
C160   C     0.81603   0.18541   0.37083   0.00000  Uiso   1.00
C161   C     0.91332   0.13172   0.00985   0.00000  Uiso   1.00
C162   C     0.86112   0.14239   0.08089   0.00000  Uiso   1.00
C163   C     0.76801   0.20558   0.44408   0.00000  Uiso   1.00
C164   C     0.95344   0.11426   0.48482   0.00000  Uiso   1.00
C165   C     0.95273   0.08371   0.44913   0.00000  Uiso   1.00
C166   C     0.99014   0.06657   0.42613   0.00000  Uiso   1.00
C167   C     0.69505   0.07922   0.43899   0.00000  Uiso   1.00
C168   C     0.69592   0.10895   0.47491   0.00000  Uiso   1.00
C169   C     0.78048   0.19148   0.01375   0.00000  Uiso   1.00
C170   C     0.99203   0.12655   0.49772   0.00000  Uiso   1.00
C171   C     0.68922   0.21423   0.21171   0.00000  Uiso   1.00
C172   C     0.68221   0.25604   0.22317   0.00000  Uiso   1.00
C173   C     0.71017   0.28791   0.19966   0.00000  Uiso   1.00
C174   C     0.74517   0.27827   0.16445   0.00000  Uiso   1.00
C175   C     0.75209   0.23674   0.15246   0.00000  Uiso   1.00
C176   C     0.72414   0.20475   0.17578   0.00000  Uiso   1.00
C177   C     0.82060   0.17786   0.49098   0.00000  Uiso   1.00
C178   C     0.83531   0.18135   0.44392   0.00000  Uiso   1.00
C179   C     0.84675   0.16118   0.01326   0.00000  Uiso   1.00
C180   C     0.88768   0.14974   0.48843   0.00000  Uiso   1.00
C181   C     0.90328   0.15887   0.44350   0.00000  Uiso   1.00
C182   C     0.87794   0.17497   0.42196   0.00000  Uiso   1.00
H183   H     0.92050   0.11820   0.07365   0.00000  Uiso   1.00
H184   H     0.98638   0.13179   0.28054   0.00000  Uiso   1.00
H185   H     0.92316   0.07311   0.43920   0.00000  Uiso   1.00
H186   H     0.98941   0.04328   0.39852   0.00000  Uiso   1.00
H187   H     0.72395   0.06579   0.42130   0.00000  Uiso   1.00
H188   H     0.72546   0.11821   0.48514   0.00000  Uiso   1.00
H189   H     0.99330   0.14972   0.02537   0.00000  Uiso   1.00
H190   H     0.98881   0.26397   0.25071   0.00000  Uiso   1.00
H191   H     0.70482   0.32009   0.20888   0.00000  Uiso   1.00
H192   H     0.76689   0.30299   0.14643   0.00000  Uiso   1.00
H193   H     0.77918   0.22938   0.12515   0.00000  Uiso   1.00
H194   H     0.87400   0.00393   0.21095   0.00000  Uiso   1.00
H195   H     0.72978   0.17271   0.16593   0.00000  Uiso   1.00
H196   H     0.79156   0.33100   0.28882   0.00000  Uiso   1.00
H197   H     0.93571   0.15449   0.42467   0.00000  Uiso   1.00
H198   H     0.80394   0.16481   0.08081   0.00000  Uiso   1.00
H199   H     0.74629   0.21450   0.42680   0.00000  Uiso   1.00
H200   H     0.76750   0.19153   0.04950   0.00000  Uiso   1.00
H201   H     0.72478   0.21641   0.00853   0.00000  Uiso   1.00
H202   H     0.89287   0.18330   0.38803   0.00000  Uiso   1.00
O203   O     0.83333   0.16667   0.25000   0.00000  Uiso   1.00
O204   O     0.82118   0.12637   0.15459   0.00000  Uiso   1.00
O205   O     0.79607   0.20391   0.34968   0.00000  Uiso   1.00
O206   O     0.87491   0.17759   0.14606   0.00000  Uiso   1.00
O207   O     0.84118   0.15880   0.34968   0.00000  Uiso   1.00
O208   O     0.84597   0.08019   0.28214   0.00000  Uiso   1.00
O209   O     0.81298   0.26085   0.27014   0.00000  Uiso   1.00
O210   O     0.74078   0.13291   0.23413   0.00000  Uiso   1.00
O211   O     0.93360   0.19272   0.21361   0.00000  Uiso   1.00
O212   O     0.73738   0.18878   0.28213   0.00000  Uiso   1.00
O213   O     0.92158   0.15226   0.27014   0.00000  Uiso   1.00
O214   O     0.80426   0.06944   0.23413   0.00000  Uiso   1.00
O215   O     0.87012   0.25620   0.21361   0.00000  Uiso   1.00
Zn216  Zn    0.86005   0.13994   0.28734   0.00000  Uiso   1.00
Zn217  Zn    0.80046   0.12458   0.21876   0.00000  Uiso   1.00
Zn218  Zn    0.87723   0.19775   0.20657   0.00000  Uiso   1.00
Zn219  Zn    0.79560   0.20439   0.28734   0.00000  Uiso   1.00
C220   C     0.05266   0.49245   0.26044   0.00000  Uiso   1.00
C221   C     0.16721   0.48951   0.05963   0.00000  Uiso   1.00
C222   C     0.23351   0.46297   0.05633   0.00000  Uiso   1.00
C223   C     0.28088   0.50811   0.24047   0.00000  Uiso   1.00
C224   C     0.14063   0.52544   0.42015   0.00000  Uiso   1.00
C225   C     0.32688   0.51407   0.23818   0.00000  Uiso   1.00
C226   C     0.00774   0.48997   0.26210   0.00000  Uiso   1.00
C227   C     0.18070   0.65590   0.23617   0.00000  Uiso   1.00
C228   C     0.15194   0.34499   0.26357   0.00000  Uiso   1.00
C229   C     0.15627   0.38917   0.26000   0.00000  Uiso   1.00
C230   C     0.17665   0.61130   0.24001   0.00000  Uiso   1.00
C231   C     0.08865   0.53950   0.49050   0.00000  Uiso   1.00
C232   C     0.18554   0.48166   0.12931   0.00000  Uiso   1.00
C233   C     0.14936   0.51874   0.37083   0.00000  Uiso   1.00
C234   C     0.24665   0.46506   0.00985   0.00000  Uiso   1.00
C235   C     0.19445   0.47572   0.08089   0.00000  Uiso   1.00
C236   C     0.10134   0.53892   0.44408   0.00000  Uiso   1.00
C237   C     0.28677   0.44760   0.48482   0.00000  Uiso   1.00
C238   C     0.28606   0.41704   0.44913   0.00000  Uiso   1.00
C239   C     0.32347   0.39991   0.42613   0.00000  Uiso   1.00
C240   C     0.02839   0.41255   0.43899   0.00000  Uiso   1.00
C241   C     0.02925   0.44228   0.47491   0.00000  Uiso   1.00
C242   C     0.11381   0.52482   0.01375   0.00000  Uiso   1.00
C243   C     0.32536   0.45988   0.49772   0.00000  Uiso   1.00
C244   C     0.02255   0.54757   0.21171   0.00000  Uiso   1.00
C245   C     0.01554   0.58937   0.22317   0.00000  Uiso   1.00
C246   C     0.04350   0.62124   0.19966   0.00000  Uiso   1.00
C247   C     0.07850   0.61161   0.16445   0.00000  Uiso   1.00
C248   C     0.08542   0.57007   0.15246   0.00000  Uiso   1.00
C249   C     0.05747   0.53809   0.17578   0.00000  Uiso   1.00
C250   C     0.15394   0.51120   0.49098   0.00000  Uiso   1.00
C251   C     0.16864   0.51468   0.44392   0.00000  Uiso   1.00
C252   C     0.18008   0.49451   0.01326   0.00000  Uiso   1.00
C253   C     0.22102   0.48307   0.48843   0.00000  Uiso   1.00
C254   C     0.23661   0.49220   0.44350   0.00000  Uiso   1.00
C255   C     0.21127   0.50830   0.42196   0.00000  Uiso   1.00
H256   H     0.25383   0.45153   0.07365   0.00000  Uiso   1.00
H257   H     0.31971   0.46512   0.28054   0.00000  Uiso   1.00
H258   H     0.25650   0.40644   0.43920   0.00000  Uiso   1.00
H259   H     0.32274   0.37661   0.39852   0.00000  Uiso   1.00
H260   H     0.05729   0.39912   0.42130   0.00000  Uiso   1.00
H261   H     0.05879   0.45154   0.48514   0.00000  Uiso   1.00
H262   H     0.32664   0.48306   0.02537   0.00000  Uiso   1.00
H263   H     0.32214   0.59730   0.25071   0.00000  Uiso   1.00
H264   H     0.03815   0.65343   0.20888   0.00000  Uiso   1.00
H265   H     0.10022   0.63632   0.14643   0.00000  Uiso   1.00
H266   H     0.11252   0.56272   0.12515   0.00000  Uiso   1.00
H267   H     0.20733   0.33726   0.21095   0.00000  Uiso   1.00
H268   H     0.06312   0.50604   0.16593   0.00000  Uiso   1.00
H269   H     0.12489   0.66434   0.28882   0.00000  Uiso   1.00
H270   H     0.26904   0.48782   0.42467   0.00000  Uiso   1.00
H271   H     0.13727   0.49814   0.08081   0.00000  Uiso   1.00
H272   H     0.07962   0.54784   0.42680   0.00000  Uiso   1.00
H273   H     0.10083   0.52486   0.04950   0.00000  Uiso   1.00
H274   H     0.05812   0.54975   0.00853   0.00000  Uiso   1.00
H275   H     0.22621   0.51663   0.38803   0.00000  Uiso   1.00
O276   O     0.16667   0.50000   0.25000   0.00000  Uiso   1.00
O277   O     0.15451   0.45970   0.15459   0.00000  Uiso   1.00
O278   O     0.12940   0.53724   0.34968   0.00000  Uiso   1.00
O279   O     0.20824   0.51092   0.14606   0.00000  Uiso   1.00
O280   O     0.17451   0.49213   0.34968   0.00000  Uiso   1.00
O281   O     0.17930   0.41352   0.28214   0.00000  Uiso   1.00
O282   O     0.14632   0.59418   0.27014   0.00000  Uiso   1.00
O283   O     0.07412   0.46625   0.23413   0.00000  Uiso   1.00
O284   O     0.26693   0.52605   0.21361   0.00000  Uiso   1.00
O285   O     0.07071   0.52211   0.28213   0.00000  Uiso   1.00
O286   O     0.25491   0.48559   0.27014   0.00000  Uiso   1.00
O287   O     0.13760   0.40277   0.23413   0.00000  Uiso   1.00
O288   O     0.20345   0.58953   0.21361   0.00000  Uiso   1.00
Zn289  Zn    0.19338   0.47327   0.28734   0.00000  Uiso   1.00
Zn290  Zn    0.13379   0.45791   0.21876   0.00000  Uiso   1.00
Zn291  Zn    0.21056   0.53109   0.20657   0.00000  Uiso   1.00
Zn292  Zn    0.12893   0.53773   0.28734   0.00000  Uiso   1.00
C293   C     0.38600   0.49245   0.26044   0.00000  Uiso   1.00
C294   C     0.50054   0.48951   0.05963   0.00000  Uiso   1.00
C295   C     0.56684   0.46297   0.05633   0.00000  Uiso   1.00
C296   C     0.61421   0.50811   0.24047   0.00000  Uiso   1.00
C297   C     0.47396   0.52544   0.42015   0.00000  Uiso   1.00
C298   C     0.66021   0.51407   0.23818   0.00000  Uiso   1.00
C299   C     0.34107   0.48997   0.26210   0.00000  Uiso   1.00
C300   C     0.51403   0.65590   0.23617   0.00000  Uiso   1.00
C301   C     0.48527   0.34499   0.26357   0.00000  Uiso   1.00
C302   C     0.48961   0.38917   0.26000   0.00000  Uiso   1.00
C303   C     0.50998   0.61130   0.24001   0.00000  Uiso   1.00
C304   C     0.42199   0.53950   0.49050   0.00000  Uiso   1.00
C305   C     0.51887   0.48166   0.12931   0.00000  Uiso   1.00
C306   C     0.48269   0.51874   0.37083   0.00000  Uiso   1.00
C307   C     0.57999   0.46506   0.00985   0.00000  Uiso   1.00
C308   C     0.52778   0.47572   0.08089   0.00000  Uiso   1.00
C309   C     0.43468   0.53892   0.44408   0.00000  Uiso   1.00
C310   C     0.62010   0.44760   0.48482   0.00000  Uiso   1.00
C311   C     0.61939   0.41704   0.44913   0.00000  Uiso   1.00
C312   C     0.65681   0.39991   0.42613   0.00000  Uiso   1.00
C313   C     0.36172   0.41255   0.43899   0.00000  Uiso   1.00
C314   C     0.36259   0.44228   0.47491   0.00000  Uiso   1.00
C315   C     0.44715   0.52482   0.01375   0.00000  Uiso   1.00
C316   C     0.65870   0.45988   0.49772   0.00000  Uiso   1.00
C317   C     0.35589   0.54757   0.21171   0.00000  Uiso   1.00
C318   C     0.34888   0.58937   0.22317   0.00000  Uiso   1.00
C319   C     0.37683   0.62124   0.19966   0.00000  Uiso   1.00
C320   C     0.41183   0.61161   0.16445   0.00000  Uiso   1.00
C321   C     0.41876   0.57007   0.15246   0.00000  Uiso   1.00
C322   C     0.39081   0.53809   0.17578   0.00000  Uiso   1.00
C323   C     0.48727   0.51120   0.49098   0.00000  Uiso   1.00
C324   C     0.50197   0.51468   0.44392   0.00000  Uiso   1.00
C325   C     0.51342   0.49451   0.01326   0.00000  Uiso   1.00
C326   C     0.55435   0.48307   0.48843   0.00000  Uiso   1.00
C327   C     0.56994   0.49220   0.44350   0.00000  Uiso   1.00
C328   C     0.54460   0.50830   0.42196   0.00000  Uiso   1.00
H329   H     0.58717   0.45153   0.07365   0.00000  Uiso   1.00
H330   H     0.65304   0.46512   0.28054   0.00000  Uiso   1.00
H331   H     0.58983   0.40644   0.43920   0.00000  Uiso   1.00
H332   H     0.65607   0.37661   0.39852   0.00000  Uiso   1.00
H333   H     0.39062   0.39912   0.42130   0.00000  Uiso   1.00
H334   H     0.39212   0.45154   0.48514   0.00000  Uiso   1.00
H335   H     0.65997   0.48306   0.02537   0.00000  Uiso   1.00
H336   H     0.65548   0.59730   0.25071   0.00000  Uiso   1.00
H337   H     0.37149   0.65343   0.20888   0.00000  Uiso   1.00
H338   H     0.43355   0.63632   0.14643   0.00000  Uiso   1.00
H339   H     0.44585   0.56272   0.12515   0.00000  Uiso   1.00
H340   H     0.54067   0.33726   0.21095   0.00000  Uiso   1.00
H341   H     0.39645   0.50604   0.16593   0.00000  Uiso   1.00
H342   H     0.45823   0.66434   0.28882   0.00000  Uiso   1.00
H343   H     0.60238   0.48782   0.42467   0.00000  Uiso   1.00
H344   H     0.47061   0.49814   0.08081   0.00000  Uiso   1.00
H345   H     0.41296   0.54784   0.42680   0.00000  Uiso   1.00
H346   H     0.43416   0.52486   0.04950   0.00000  Uiso   1.00
H347   H     0.39145   0.54975   0.00853   0.00000  Uiso   1.00
H348   H     0.55954   0.51663   0.38803   0.00000  Uiso   1.00
O349   O     0.50000   0.50000   0.25000   0.00000  Uiso   1.00
O350   O     0.48784   0.45970   0.15459   0.00000  Uiso   1.00
O351   O     0.46274   0.53724   0.34968   0.00000  Uiso   1.00
O352   O     0.54157   0.51092   0.14606   0.00000  Uiso   1.00
O353   O     0.50785   0.49213   0.34968   0.00000  Uiso   1.00
O354   O     0.51264   0.41352   0.28214   0.00000  Uiso   1.00
O355   O     0.47965   0.59418   0.27014   0.00000  Uiso   1.00
O356   O     0.40745   0.46625   0.23413   0.00000  Uiso   1.00
O357   O     0.60026   0.52605   0.21361   0.00000  Uiso   1.00
O358   O     0.40405   0.52211   0.28213   0.00000  Uiso   1.00
O359   O     0.58824   0.48559   0.27014   0.00000  Uiso   1.00
O360   O     0.47093   0.40277   0.23413   0.00000  Uiso   1.00
O361   O     0.53678   0.58953   0.21361   0.00000  Uiso   1.00
Zn362  Zn    0.52672   0.47327   0.28734   0.00000  Uiso   1.00
Zn363  Zn    0.46713   0.45791   0.21876   0.00000  Uiso   1.00
Zn364  Zn    0.54389   0.53109   0.20657   0.00000  Uiso   1.00
Zn365  Zn    0.46226   0.53773   0.28734   0.00000  Uiso   1.00
C366   C     0.71933   0.49245   0.26044   0.00000  Uiso   1.00
C367   C     0.83388   0.48951   0.05963   0.00000  Uiso   1.00
C368   C     0.90018   0.46297   0.05633   0.00000  Uiso   1.00
C369   C     0.94755   0.50811   0.24047   0.00000  Uiso   1.00
C370   C     0.80729   0.52544   0.42015   0.00000  Uiso   1.00
C371   C     0.99355   0.51407   0.23818   0.00000  Uiso   1.00
C372   C     0.67440   0.48997   0.26210   0.00000  Uiso   1.00
C373   C     0.84736   0.65590   0.23617   0.00000  Uiso   1.00
C374   C     0.81860   0.34499   0.26357   0.00000  Uiso   1.00
C375   C     0.82294   0.38917   0.26000   0.00000  Uiso   1.00
C376   C     0.84332   0.61130   0.24001   0.00000  Uiso   1.00
C377   C     0.75532   0.53950   0.49050   0.00000  Uiso   1.00
C378   C     0.85221   0.48166   0.12931   0.00000  Uiso   1.00
C379   C     0.81603   0.51874   0.37083   0.00000  Uiso   1.00
C380   C     0.91332   0.46506   0.00985   0.00000  Uiso   1.00
C381   C     0.86112   0.47572   0.08089   0.00000  Uiso   1.00
C382   C     0.76801   0.53892   0.44408   0.00000  Uiso   1.00
C383   C     0.95344   0.44760   0.48482   0.00000  Uiso   1.00
C384   C     0.95273   0.41704   0.44913   0.00000  Uiso   1.00
C385   C     0.99014   0.39991   0.42613   0.00000  Uiso   1.00
C386   C     0.69505   0.41255   0.43899   0.00000  Uiso   1.00
C387   C     0.69592   0.44228   0.47491   0.00000  Uiso   1.00
C388   C     0.78048   0.52482   0.01375   0.00000  Uiso   1.00
C389   C     0.99203   0.45988   0.49772   0.00000  Uiso   1.00
C390   C     0.68922   0.54757   0.21171   0.00000  Uiso   1.00
C391   C     0.68221   0.58937   0.22317   0.00000  Uiso   1.00
C392   C     0.71017   0.62124   0.19966   0.00000  Uiso   1.00
C393   C     0.74517   0.61161   0.16445   0.00000  Uiso   1.00
C394   C     0.75209   0.57007   0.15246   0.00000  Uiso   1.00
C395   C     0.72414   0.53809   0.17578   0.00000  Uiso   1.00
C396   C     0.82060   0.51120   0.49098   0.00000  Uiso   1.00
C397   C     0.83531   0.51468   0.44392   0.00000  Uiso   1.00
C398   C     0.84675   0.49451   0.01326   0.00000  Uiso   1.00
C399   C     0.88768   0.48307   0.48843   0.00000  Uiso   1.00
C400   C     0.90328   0.49220   0.44350   0.00000  Uiso   1.00
C401   C     0.87794   0.50830   0.42196   0.00000  Uiso   1.00
H402   H     0.92050   0.45153   0.07365   0.00000  Uiso   1.00
H403   H     0.98638   0.46512   0.28054   0.00000  Uiso   1.00
H404   H     0.92316   0.40644   0.43920   0.00000  Uiso   1.00
H405   H     0.98941   0.37661   0.39852   0.00000  Uiso   1.00
H406   H     0.72395   0.39912   0.42130   0.00000  Uiso   1.00
H407   H     0.72546   0.45154   0.48514   0.00000  Uiso   1.00
H408   H     0.99330   0.48306   0.02537   0.00000  Uiso   1.00
H409   H     0.98881   0.59730   0.25071   0.00000  Uiso   1.00
H410   H     0.70482   0.65343   0.20888   0.00000  Uiso   1.00
H411   H     0.76689   0.63632   0.14643   0.00000  Uiso   1.00
H412   H     0.77918   0.56272   0.12515   0.00000  Uiso   1.00
H413   H     0.87400   0.33726   0.21095   0.00000  Uiso   1.00
H414   H     0.72978   0.50604   0.16593   0.00000  Uiso   1.00
H415   H     0.79156   0.66434   0.28882   0.00000  Uiso   1.00
H416   H     0.93571   0.48782   0.42467   0.00000  Uiso   1.00
H417   H     0.80394   0.49814   0.08081   0.00000  Uiso   1.00
H418   H     0.74629   0.54784   0.42680   0.00000  Uiso   1.00
H419   H     0.76750   0.52486   0.04950   0.00000  Uiso   1.00
H420   H     0.72478   0.54975   0.00853   0.00000  Uiso   1.00
H421   H     0.89287   0.51663   0.38803   0.00000  Uiso   1.00
O422   O     0.83333   0.50000   0.25000   0.00000  Uiso   1.00
O423   O     0.82118   0.45970   0.15459   0.00000  Uiso   1.00
O424   O     0.79607   0.53724   0.34968   0.00000  Uiso   1.00
O425   O     0.87491   0.51092   0.14606   0.00000  Uiso   1.00
O426   O     0.84118   0.49213   0.34968   0.00000  Uiso   1.00
O427   O     0.84597   0.41352   0.28214   0.00000  Uiso   1.00
O428   O     0.81298   0.59418   0.27014   0.00000  Uiso   1.00
O429   O     0.74078   0.46625   0.23413   0.00000  Uiso   1.00
O430   O     0.93360   0.52605   0.21361   0.00000  Uiso   1.00
O431   O     0.73738   0.52211   0.28213   0.00000  Uiso   1.00
O432   O     0.92158   0.48559   0.27014   0.00000  Uiso   1.00
O433   O     0.80426   0.40277   0.23413   0.00000  Uiso   1.00
O434   O     0.87012   0.58953   0.21361   0.00000  Uiso   1.00
Zn435  Zn    0.86005   0.47327   0.28734   0.00000  Uiso   1.00
Zn436  Zn    0.80046   0.45791   0.21876   0.00000  Uiso   1.00
Zn437  Zn    0.87723   0.53109   0.20657   0.00000  Uiso   1.00
Zn438  Zn    0.79560   0.53773   0.28734   0.00000  Uiso   1.00
C439   C     0.05266   0.82578   0.26044   0.00000  Uiso   1.00
C440   C     0.16721   0.82285   0.05963   0.00000  Uiso   1.00
C441   C     0.23351   0.79630   0.05633   0.00000  Uiso   1.00
C442   C     0.28088   0.84144   0.24047   0.00000  Uiso   1.00
C443   C     0.14063   0.85877   0.42015   0.00000  Uiso   1.00
C444   C     0.32688   0.84740   0.23818   0.00000  Uiso   1.00
C445   C     0.00774   0.82330   0.26210   0.00000  Uiso   1.00
C446   C     0.18070   0.98923   0.23617   0.00000  Uiso   1.00
C447   C     0.15194   0.67833   0.26357   0.00000  Uiso   1.00
C448   C     0.15627   0.72251   0.26000   0.00000  Uiso   1.00
C449   C     0.17665   0.94463   0.24001   0.00000  Uiso   1.00
C450   C     0.08865   0.87283   0.49050   0.00000  Uiso   1.00
C451   C     0.18554   0.81499   0.12931   0.00000  Uiso   1.00
C452   C     0.14936   0.85208   0.37083   0.00000  Uiso   1.00
C453   C     0.24665   0.79839   0.00985   0.00000  Uiso   1.00
C454   C     0.19445   0.80905   0.08089   0.00000  Uiso   1.00
C455   C     0.10134   0.87225   0.44408   0.00000  Uiso   1.00
C456   C     0.28677   0.78093   0.48482   0.00000  Uiso   1.00
C457   C     0.28606   0.75038   0.44913   0.00000  Uiso   1.00
C458   C     0.32347   0.73324   0.42613   0.00000  Uiso   1.00
C459   C     0.02839   0.74588   0.43899   0.00000  Uiso   1.00
C460   C     0.02925   0.77562   0.47491   0.00000  Uiso   1.00
C461   C     0.11381   0.85815   0.01375   0.00000  Uiso   1.00
C462   C     0.32536   0.79322   0.49772   0.00000  Uiso   1.00
C463   C     0.02255   0.88090   0.21171   0.00000  Uiso   1.00
C464   C     0.01554   0.92271   0.22317   0.00000  Uiso   1.00
C465   C     0.04350   0.95457   0.19966   0.00000  Uiso   1.00
C466   C     0.07850   0.94494   0.16445   0.00000  Uiso   1.00
C467   C     0.08542   0.90341   0.15246   0.00000  Uiso   1.00
C468   C     0.05747   0.87142   0.17578   0.00000  Uiso   1.00
C469   C     0.15394   0.84453   0.49098   0.00000  Uiso   1.00
C470   C     0.16864   0.84802   0.44392   0.00000  Uiso   1.00
C471   C     0.18008   0.82784   0.01326   0.00000  Uiso   1.00
C472   C     0.22102   0.81640   0.48843   0.00000  Uiso   1.00
C473   C     0.23661   0.82554   0.44350   0.00000  Uiso   1.00
C474   C     0.21127   0.84163   0.42196   0.00000  Uiso   1.00
H475   H     0.25383   0.78487   0.07365   0.00000  Uiso   1.00
H476   H     0.31971   0.79845   0.28054   0.00000  Uiso   1.00
H477   H     0.25650   0.73978   0.43920   0.00000  Uiso   1.00
H478   H     0.32274   0.70995   0.39852   0.00000  Uiso   1.00
H479   H     0.05729   0.73245   0.42130   0.00000  Uiso   1.00
H480   H     0.05879   0.78487   0.48514   0.00000  Uiso   1.00
H481   H     0.32664   0.81639   0.02537   0.00000  Uiso   1.00
H482   H     0.32214   0.93064   0.25071   0.00000  Uiso   1.00
H483   H     0.03815   0.98676   0.20888   0.00000  Uiso   1.00
H484   H     0.10022   0.96966   0.14643   0.00000  Uiso   1.00
H485   H     0.11252   0.89605   0.12515   0.00000  Uiso   1.00
H486   H     0.20733   0.67060   0.21095   0.00000  Uiso   1.00
H487   H     0.06312   0.83938   0.16593   0.00000  Uiso   1.00
H488   H     0.12489   0.99767   0.28882   0.00000  Uiso   1.00
H489   H     0.26904   0.82115   0.42467   0.00000  Uiso   1.00
H490   H     0.13727   0.83148   0.08081   0.00000  Uiso   1.00
H491   H     0.07962   0.88117   0.42680   0.00000  Uiso   1.00
H492   H     0.10083   0.85820   0.04950   0.00000  Uiso   1.00
H493   H     0.05812   0.88308   0.00853   0.00000  Uiso   1.00
H494   H     0.22621   0.84996   0.38803   0.00000  Uiso   1.00
O495   O     0.16667   0.83333   0.25000   0.00000  Uiso   1.00
O496   O     0.15451   0.79304   0.15459   0.00000  Uiso   1.00
O497   O     0.12940   0.87058   0.34968   0.00000  Uiso   1.00
O498   O     0.20824   0.84425   0.14606   0.00000  Uiso   1.00
O499   O     0.17451   0.82546   0.34968   0.00000  Uiso   1.00
O500   O     0.17930   0.74686   0.28214   0.00000  Uiso   1.00
O501   O     0.14632   0.92751   0.27014   0.00000  Uiso   1.00
O502   O     0.07412   0.79958   0.23413   0.00000  Uiso   1.00
O503   O     0.26693   0.85939   0.21361   0.00000  Uiso   1.00
O504   O     0.07071   0.85544   0.28213   0.00000  Uiso   1.00
O505   O     0.25491   0.81892   0.27014   0.00000  Uiso   1.00
O506   O     0.13760   0.73610   0.23413   0.00000  Uiso   1.00
O507   O     0.20345   0.92286   0.21361   0.00000  Uiso   1.00
Zn508  Zn    0.19338   0.80661   0.28734   0.00000  Uiso   1.00
Zn509  Zn    0.13379   0.79124   0.21876   0.00000  Uiso   1.00
Zn510  Zn    0.21056   0.86442   0.20657   0.00000  Uiso   1.00
Zn511  Zn    0.12893   0.87106   0.28734   0.00000  Uiso   1.00
C512   C     0.38600   0.82578   0.26044   0.00000  Uiso   1.00
C513   C     0.50054   0.82285   0.05963   0.00000  Uiso   1.00
C514   C     0.56684   0.79630   0.05633   0.00000  Uiso   1.00
C515   C     0.61421   0.84144   0.24047   0.00000  Uiso   1.00
C516   C     0.47396   0.85877   0.42015   0.00000  Uiso   1.00
C517   C     0.66021   0.84740   0.23818   0.00000  Uiso   1.00
C518   C     0.34107   0.82330   0.26210   0.00000  Uiso   1.00
C519   C     0.51403   0.98923   0.23617   0.00000  Uiso   1.00
C520   C     0.48527   0.67833   0.26357   0.00000  Uiso   1.00
C521   C     0.48961   0.72251   0.26000   0.00000  Uiso   1.00
C522   C     0.50998   0.94463   0.24001   0.00000  Uiso   1.00
C523   C     0.42199   0.87283   0.49050   0.00000  Uiso   1.00
C524   C     0.51887   0.81499   0.12931   0.00000  Uiso   1.00
C525   C     0.48269   0.85208   0.37083   0.00000  Uiso   1.00
C526   C     0.57999   0.79839   0.00985   0.00000  Uiso   1.00
C527   C     0.52778   0.80905   0.08089   0.00000  Uiso   1.00
C528   C     0.43468   0.87225   0.44408   0.00000  Uiso   1.00
C529   C     0.62010   0.78093   0.48482   0.00000  Uiso   1.00
C530   C     0.61939   0.75038   0.44913   0.00000  Uiso   1.00
C531   C     0.65681   0.73324   0.42613   0.00000  Uiso   1.00
C532   C     0.36172   0.74588   0.43899   0.00000  Uiso   1.00
C533   C     0.36259   0.77562   0.47491   0.00000  Uiso   1.00
C534   C     0.44715   0.85815   0.01375   0.00000  Uiso   1.00
C535   C     0.65870   0.79322   0.49772   0.00000  Uiso   1.00
C536   C     0.35589   0.88090   0.21171   0.00000  Uiso   1.00
C537   C     0.34888   0.92271   0.22317   0.00000  Uiso   1.00
C538   C     0.37683   0.95457   0.19966   0.00000  Uiso   1.00
C539   C     0.41183   0.94494   0.16445   0.00000  Uiso   1.00
C540   C     0.41876   0.90341   0.15246   0.00000  Uiso   1.00
C541   C     0.39081   0.87142   0.17578   0.00000  Uiso   1.00
C542   C     0.48727   0.84453   0.49098   0.00000  Uiso   1.00
C543   C     0.50197   0.84802   0.44392   0.00000  Uiso   1.00
C544   C     0.51342   0.82784   0.01326   0.00000  Uiso   1.00
C545   C     0.55435   0.81640   0.48843   0.00000  Uiso   1.00
C546   C     0.56994   0.82554   0.44350   0.00000  Uiso   1.00
C547   C     0.54460   0.84163   0.42196   0.00000  Uiso   1.00
H548   H     0.58717   0.78487   0.07365   0.00000  Uiso   1.00
H549   H     0.65304   0.79845   0.28054   0.00000  Uiso   1.00
H550   H     0.58983   0.73978   0.43920   0.00000  Uiso   1.00
H551   H     0.65607   0.70995   0.39852   0.00000  Uiso   1.00
H552   H     0.39062   0.73245   0.42130   0.00000  Uiso   1.00
H553   H     0.39212   0.78487   0.48514   0.00000  Uiso   1.00
H554   H     0.65997   0.81639   0.02537   0.00000  Uiso   1.00
H555   H     0.65548   0.93064   0.25071   0.00000  Uiso   1.00
H556   H     0.37149   0.98676   0.20888   0.00000  Uiso   1.00
H557   H     0.43355   0.96966   0.14643   0.00000  Uiso   1.00
H558   H     0.44585   0.89605   0.12515   0.00000  Uiso   1.00
H559   H     0.54067   0.67060   0.21095   0.00000  Uiso   1.00
H560   H     0.39645   0.83938   0.16593   0.00000  Uiso   1.00
H561   H     0.45823   0.99767   0.28882   0.00000  Uiso   1.00
H562   H     0.60238   0.82115   0.42467   0.00000  Uiso   1.00
H563   H     0.47061   0.83148   0.08081   0.00000  Uiso   1.00
H564   H     0.41296   0.88117   0.42680   0.00000  Uiso   1.00
H565   H     0.43416   0.85820   0.04950   0.00000  Uiso   1.00
H566   H     0.39145   0.88308   0.00853   0.00000  Uiso   1.00
H567   H     0.55954   0.84996   0.38803   0.00000  Uiso   1.00
O568   O     0.50000   0.83333   0.25000   0.00000  Uiso   1.00
O569   O     0.48784   0.79304   0.15459   0.00000  Uiso   1.00
O570   O     0.46274   0.87058   0.34968   0.00000  Uiso   1.00
O571   O     0.54157   0.84425   0.14606   0.00000  Uiso   1.00
O572   O     0.50785   0.82546   0.34968   0.00000  Uiso   1.00
O573   O     0.51264   0.74686   0.28214   0.00000  Uiso   1.00
O574   O     0.47965   0.92751   0.27014   0.00000  Uiso   1.00
O575   O     0.40745   0.79958   0.23413   0.00000  Uiso   1.00
O576   O     0.60026   0.85939   0.21361   0.00000  Uiso   1.00
O577   O     0.40405   0.85544   0.28213   0.00000  Uiso   1.00
O578   O     0.58824   0.81892   0.27014   0.00000  Uiso   1.00
O579   O     0.47093   0.73610   0.23413   0.00000  Uiso   1.00
O580   O     0.53678   0.92286   0.21361   0.00000  Uiso   1.00
Zn581  Zn    0.52672   0.80661   0.28734   0.00000  Uiso   1.00
Zn582  Zn    0.46713   0.79124   0.21876   0.00000  Uiso   1.00
Zn583  Zn    0.54389   0.86442   0.20657   0.00000  Uiso   1.00
Zn584  Zn    0.46226   0.87106   0.28734   0.00000  Uiso   1.00
C585   C     0.71933   0.82578   0.26044   0.00000  Uiso   1.00
C586   C     0.83388   0.82285   0.05963   0.00000  Uiso   1.00
C587   C     0.90018   0.79630   0.05633   0.00000  Uiso   1.00
C588   C     0.94755   0.84144   0.24047   0.00000  Uiso   1.00
C589   C     0.80729   0.85877   0.42015   0.00000  Uiso   1.00
C590   C     0.99355   0.84740   0.23818   0.00000  Uiso   1.00
C591   C     0.67440   0.82330   0.26210   0.00000  Uiso   1.00
C592   C     0.84736   0.98923   0.23617   0.00000  Uiso   1.00
C593   C     0.81860   0.67833   0.26357   0.00000  Uiso   1.00
C594   C     0.82294   0.72251   0.26000   0.00000  Uiso   1.00
C595   C     0.84332   0.94463   0.24001   0.00000  Uiso   1.00
C596   C     0.75532   0.87283   0.49050   0.00000  Uiso   1.00
C597   C     0.85221   0.81499   0.12931   0.00000  Uiso   1.00
C598   C     0.81603   0.85208   0.37083   0.00000  Uiso   1.00
C599   C     0.91332   0.79839   0.00985   0.00000  Uiso   1.00
C600   C     0.86112   0.80905   0.08089   0.00000  Uiso   1.00
C601   C     0.76801   0.87225   0.44408   0.00000  Uiso   1.00
C602   C     0.95344   0.78093   0.48482   0.00000  Uiso   1.00
C603   C     0.95273   0.75038   0.44913   0.00000  Uiso   1.00
C604   C     0.99014   0.73324   0.42613   0.00000  Uiso   1.00
C605   C     0.69505   0.74588   0.43899   0.00000  Uiso   1.00
C606   C     0.69592   0.77562   0.47491   0.00000  Uiso   1.00
C607   C     0.78048   0.85815   0.01375   0.00000  Uiso   1.00
C608   C     0.99203   0.79322   0.49772   0.00000  Uiso   1.00
C609   C     0.68922   0.88090   0.21171   0.00000  Uiso   1.00
C610   C     0.68221   0.92271   0.22317   0.00000  Uiso   1.00
C611   C     0.71017   0.95457   0.19966   0.00000  Uiso   1.00
C612   C     0.74517   0.94494   0.16445   0.00000  Uiso   1.00
C613   C     0.75209   0.90341   0.15246   0.00000  Uiso   1.00
C614   C     0.72414   0.87142   0.17578   0.00000  Uiso   1.00
C615   C     0.82060   0.84453   0.49098   0.00000  Uiso   1.00
C616   C     0.83531   0.84802   0.44392   0.00000  Uiso   1.00
C617   C     0.84675   0.82784   0.01326   0.00000  Uiso   1.00
C618   C     0.88768   0.81640   0.48843   0.00000  Uiso   1.00
C619   C     0.90328   0.82554   0.44350   0.00000  Uiso   1.00
C620   C     0.87794   0.84163   0.42196   0.00000  Uiso   1.00
H621   H     0.92050   0.78487   0.07365   0.00000  Uiso   1.00
H622   H     0.98638   0.79845   0.28054   0.00000  Uiso   1.00
H623   H     0.92316   0.73978   0.43920   0.00000  Uiso   1.00
H624   H     0.98941   0.70995   0.39852   0.00000  Uiso   1.00
H625   H     0.72395   0.73245   0.42130   0.00000  Uiso   1.00
H626   H     0.72546   0.78487   0.48514   0.00000  Uiso   1.00
H627   H     0.99330   0.81639   0.02537   0.00000  Uiso   1.00
H628   H     0.98881   0.93064   0.25071   0.00000  Uiso   1.00
H629   H     0.70482   0.98676   0.20888   0.00000  Uiso   1.00
H630   H     0.76689   0.96966   0.14643   0.00000  Uiso   1.00
H631   H     0.77918   0.89605   0.12515   0.00000  Uiso   1.00
H632   H     0.87400   0.67060   0.21095   0.00000  Uiso   1.00
H633   H     0.72978   0.83938   0.16593   0.00000  Uiso   1.00
H634   H     0.79156   0.99767   0.28882   0.00000  Uiso   1.00
H635   H     0.93571   0.82115   0.42467   0.00000  Uiso   1.00
H636   H     0.80394   0.83148   0.08081   0.00000  Uiso   1.00
H637   H     0.74629   0.88117   0.42680   0.00000  Uiso   1.00
H638   H     0.76750   0.85820   0.04950   0.00000  Uiso   1.00
H639   H     0.72478   0.88308   0.00853   0.00000  Uiso   1.00
H640   H     0.89287   0.84996   0.38803   0.00000  Uiso   1.00
O641   O     0.83333   0.83333   0.25000   0.00000  Uiso   1.00
O642   O     0.82118   0.79304   0.15459   0.00000  Uiso   1.00
O643   O     0.79607   0.87058   0.34968   0.00000  Uiso   1.00
O644   O     0.87491   0.84425   0.14606   0.00000  Uiso   1.00
O645   O     0.84118   0.82546   0.34968   0.00000  Uiso   1.00
O646   O     0.84597   0.74686   0.28214   0.00000  Uiso   1.00
O647   O     0.81298   0.92751   0.27014   0.00000  Uiso   1.00
O648   O     0.74078   0.79958   0.23413   0.00000  Uiso   1.00
O649   O     0.93360   0.85939   0.21361   0.00000  Uiso   1.00
O650   O     0.73738   0.85544   0.28213   0.00000  Uiso   1.00
O651   O     0.92158   0.81892   0.27014   0.00000  Uiso   1.00
O652   O     0.80426   0.73610   0.23413   0.00000  Uiso   1.00
O653   O     0.87012   0.92286   0.21361   0.00000  Uiso   1.00
Zn654  Zn    0.86005   0.80661   0.28734   0.00000  Uiso   1.00
Zn655  Zn    0.80046   0.79124   0.21876   0.00000  Uiso   1.00
Zn656  Zn    0.87723   0.86442   0.20657   0.00000  Uiso   1.00
Zn657  Zn    0.79560   0.87106   0.28734   0.00000  Uiso   1.00
C658   C     0.05266   0.15911   0.76044   0.00000  Uiso   1.00
C659   C     0.16721   0.15618   0.55963   0.00000  Uiso   1.00
C660   C     0.23351   0.12963   0.55633   0.00000  Uiso   1.00
C661   C     0.28088   0.17478   0.74047   0.00000  Uiso   1.00
C662   C     0.14063   0.19211   0.92015   0.00000  Uiso   1.00
C663   C     0.32688   0.18073   0.73818   0.00000  Uiso   1.00
C664   C     0.00774   0.15664   0.76210   0.00000  Uiso   1.00
C665   C     0.18070   0.32256   0.73617   0.00000  Uiso   1.00
C666   C     0.15194   0.01166   0.76357   0.00000  Uiso   1.00
C667   C     0.15627   0.05584   0.76000   0.00000  Uiso   1.00
C668   C     0.17665   0.27796   0.74001   0.00000  Uiso   1.00
C669   C     0.08865   0.20616   0.99050   0.00000  Uiso   1.00
C670   C     0.18554   0.14833   0.62931   0.00000  Uiso   1.00
C671   C     0.14936   0.18541   0.87083   0.00000  Uiso   1.00
C672   C     0.24665   0.13172   0.50985   0.00000  Uiso   1.00
C673   C     0.19445   0.14239   0.58089   0.00000  Uiso   1.00
C674   C     0.10134   0.20558   0.94408   0.00000  Uiso   1.00
C675   C     0.28677   0.11426   0.98482   0.00000  Uiso   1.00
C676   C     0.28606   0.08371   0.94913   0.00000  Uiso   1.00
C677   C     0.32347   0.06657   0.92613   0.00000  Uiso   1.00
C678   C     0.02839   0.07922   0.93899   0.00000  Uiso   1.00
C679   C     0.02925   0.10895   0.97491   0.00000  Uiso   1.00
C680   C     0.11381   0.19148   0.51375   0.00000  Uiso   1.00
C681   C     0.32536   0.12655   0.99772   0.00000  Uiso   1.00
C682   C     0.02255   0.21423   0.71171   0.00000  Uiso   1.00
C683   C     0.01554   0.25604   0.72317   0.00000  Uiso   1.00
C684   C     0.04350   0.28791   0.69966   0.00000  Uiso   1.00
C685   C     0.07850   0.27827   0.66445   0.00000  Uiso   1.00
C686   C     0.08542   0.23674   0.65246   0.00000  Uiso   1.00
C687   C     0.05747   0.20475   0.67578   0.00000  Uiso   1.00
C688   C     0.15394   0.17786   0.99098   0.00000  Uiso   1.00
C689   C     0.16864   0.18135   0.94392   0.00000  Uiso   1.00
C690   C     0.18008   0.16118   0.51326   0.00000  Uiso   1.00
C691   C     0.22102   0.14974   0.98843   0.00000  Uiso   1.00
C692   C     0.23661   0.15887   0.94350   0.00000  Uiso   1.00
C693   C     0.21127   0.17497   0.92196   0.00000  Uiso   1.00
H694   H     0.25383   0.11820   0.57365   0.00000  Uiso   1.00
H695   H     0.31971   0.13179   0.78054   0.00000  Uiso   1.00
H696   H     0.25650   0.07311   0.93920   0.00000  Uiso   1.00
H697   H     0.32274   0.04328   0.89852   0.00000  Uiso   1.00
H698   H     0.05729   0.06579   0.92130   0.00000  Uiso   1.00
H699   H     0.05879   0.11821   0.98514   0.00000  Uiso   1.00
H700   H     0.32664   0.14972   0.52537   0.00000  Uiso   1.00
H701   H     0.32214   0.26397   0.75071   0.00000  Uiso   1.00
H702   H     0.03815   0.32009   0.70888   0.00000  Uiso   1.00
H703   H     0.10022   0.30299   0.64643   0.00000  Uiso   1.00
H704   H     0.11252   0.22938   0.62515   0.00000  Uiso   1.00
H705   H     0.20733   0.00393   0.71095   0.00000  Uiso   1.00
H706   H     0.06312   0.17271   0.66593   0.00000  Uiso   1.00
H707   H     0.12489   0.33100   0.78882   0.00000  Uiso   1.00
H708   H     0.26904   0.15449   0.92467   0.00000  Uiso   1.00
H709   H     0.13727   0.16481   0.58081   0.00000  Uiso   1.00
H710   H     0.07962   0.21450   0.92680   0.00000  Uiso   1.00
H711   H     0.10083   0.19153   0.54950   0.00000  Uiso   1.00
H712   H     0.05812   0.21641   0.50853   0.00000  Uiso   1.00
H713   H     0.22621   0.18330   0.88803   0.00000  Uiso   1.00
O714   O     0.16667   0.16667   0.75000   0.00000  Uiso   1.00
O715   O     0.15451   0.12637   0.65459   0.00000  Uiso   1.00
O716   O     0.12940   0.20391   0.84968   0.00000  Uiso   1.00
O717   O     0.20824   0.17759   0.64606   0.00000  Uiso   1.00
O718   O     0.17451   0.15880   0.84968   0.00000  Uiso   1.00
O719   O     0.17930   0.08019   0.78214   0.00000  Uiso   1.00
O720   O     0.14632   0.26085   0.77014   0.00000  Uiso   1.00
O721   O     0.07412   0.13291   0.73413   0.00000  Uiso   1.00
O722   O     0.26693   0.19272   0.71361   0.00000  Uiso   1.00
O723   O     0.07071   0.18878   0.78213   0.00000  Uiso   1.00
O724   O     0.25491   0.15226   0.77014   0.00000  Uiso   1.00
O725   O     0.13760   0.06944   0.73413   0.00000  Uiso   1.00
O726   O     0.20345   0.25620   0.71361   0.00000  Uiso   1.00
Zn727  Zn    0.19338   0.13994   0.78734   0.00000  Uiso   1.00
Zn728  Zn    0.13379   0.12458   0.71876   0.00000  Uiso   1.00
Zn729  Zn    0.21056   0.19775   0.70657   0.00000  Uiso   1.00
Zn730  Zn    0.12893   0.20439   0.78734   0.00000  Uiso   1.00
C731   C     0.38600   0.15911   0.76044   0.00000  Uiso   1.00
C732   C     0.50054   0.15618   0.55963   0.00000  Uiso   1.00
C733   C     0.56684   0.12963   0.55633   0.00000  Uiso   1.00
C734   C     0.61421   0.17478   0.74047   0.00000  Uiso   1.00
C735   C     0.47396   0.19211   0.92015   0.00000  Uiso   1.00
C736   C     0.66021   0.18073   0.73818   0.00000  Uiso   1.00
C737   C     0.34107   0.15664   0.76210   0.00000  Uiso   1.00
C738   C     0.51403   0.32256   0.73617   0.00000  Uiso   1.00
C739   C     0.48527   0.01166   0.76357   0.00000  Uiso   1.00
C740   C     0.48961   0.05584   0.76000   0.00000  Uiso   1.00
C741   C     0.50998   0.27796   0.74001   0.00000  Uiso   1.00
C742   C     0.42199   0.20616   0.99050   0.00000  Uiso   1.00
C743   C     0.51887   0.14833   0.62931   0.00000  Uiso   1.00
C744   C     0.48269   0.18541   0.87083   0.00000  Uiso   1.00
C745   C     0.57999   0.13172   0.50985   0.00000  Uiso   1.00
C746   C     0.52778   0.14239   0.58089   0.00000  Uiso   1.00
C747   C     0.43468   0.20558   0.94408   0.00000  Uiso   1.00
C748   C     0.62010   0.11426   0.98482   0.00000  Uiso   1.00
C749   C     0.61939   0.08371   0.94913   0.00000  Uiso   1.00
C750   C     0.65681   0.06657   0.92613   0.00000  Uiso   1.00
C751   C     0.36172   0.07922   0.93899   0.00000  Uiso   1.00
C752   C     0.36259   0.10895   0.97491   0.00000  Uiso   1.00
C753   C     0.44715   0.19148   0.51375   0.00000  Uiso   1.00
C754   C     0.65870   0.12655   0.99772   0.00000  Uiso   1.00
C755   C     0.35589   0.21423   0.71171   0.00000  Uiso   1.00
C756   C     0.34888   0.25604   0.72317   0.00000  Uiso   1.00
C757   C     0.37683   0.28791   0.69966   0.00000  Uiso   1.00
C758   C     0.41183   0.27827   0.66445   0.00000  Uiso   1.00
C759   C     0.41876   0.23674   0.65246   0.00000  Uiso   1.00
C760   C     0.39081   0.20475   0.67578   0.00000  Uiso   1.00
C761   C     0.48727   0.17786   0.99098   0.00000  Uiso   1.00
C762   C     0.50197   0.18135   0.94392   0.00000  Uiso   1.00
C763   C     0.51342   0.16118   0.51326   0.00000  Uiso   1.00
C764   C     0.55435   0.14974   0.98843   0.00000  Uiso   1.00
C765   C     0.56994   0.15887   0.94350   0.00000  Uiso   1.00
C766   C     0.54460   0.17497   0.92196   0.00000  Uiso   1.00
H767   H     0.58717   0.11820   0.57365   0.00000  Uiso   1.00
H768   H     0.65304   0.13179   0.78054   0.00000  Uiso   1.00
H769   H     0.58983   0.07311   0.93920   0.00000  Uiso   1.00
H770   H     0.65607   0.04328   0.89852   0.00000  Uiso   1.00
H771   H     0.39062   0.06579   0.92130   0.00000  Uiso   1.00
H772   H     0.39212   0.11821   0.98514   0.00000  Uiso   1.00
H773   H     0.65997   0.14972   0.52537   0.00000  Uiso   1.00
H774   H     0.65548   0.26397   0.75071   0.00000  Uiso   1.00
H775   H     0.37149   0.32009   0.70888   0.00000  Uiso   1.00
H776   H     0.43355   0.30299   0.64643   0.00000  Uiso   1.00
H777   H     0.44585   0.22938   0.62515   0.00000  Uiso   1.00
H778   H     0.54067   0.00393   0.71095   0.00000  Uiso   1.00
H779   H     0.39645   0.17271   0.66593   0.00000  Uiso   1.00
H780   H     0.45823   0.33100   0.78882   0.00000  Uiso   1.00
H781   H     0.60238   0.15449   0.92467   0.00000  Uiso   1.00
H782   H     0.47061   0.16481   0.58081   0.00000  Uiso   1.00
H783   H     0.41296   0.21450   0.92680   0.00000  Uiso   1.00
H784   H     0.43416   0.19153   0.54950   0.00000  Uiso   1.00
H785   H     0.39145   0.21641   0.50853   0.00000  Uiso   1.00
H786   H     0.55954   0.18330   0.88803   0.00000  Uiso   1.00
O787   O     0.50000   0.16667   0.75000   0.00000  Uiso   1.00
O788   O     0.48784   0.12637   0.65459   0.00000  Uiso   1.00
O789   O     0.46274   0.20391   0.84968   0.00000  Uiso   1.00
O790   O     0.54157   0.17759   0.64606   0.00000  Uiso   1.00
O791   O     0.50785   0.15880   0.84968   0.00000  Uiso   1.00
O792   O     0.51264   0.08019   0.78214   0.00000  Uiso   1.00
O793   O     0.47965   0.26085   0.77014   0.00000  Uiso   1.00
O794   O     0.40745   0.13291   0.73413   0.00000  Uiso   1.00
O795   O     0.60026   0.19272   0.71361   0.00000  Uiso   1.00
O796   O     0.40405   0.18878   0.78213   0.00000  Uiso   1.00
O797   O     0.58824   0.15226   0.77014   0.00000  Uiso   1.00
O798   O     0.47093   0.06944   0.73413   0.00000  Uiso   1.00
O799   O     0.53678   0.25620   0.71361   0.00000  Uiso   1.00
Zn800  Zn    0.52672   0.13994   0.78734   0.00000  Uiso   1.00
Zn801  Zn    0.46713   0.12458   0.71876   0.00000  Uiso   1.00
Zn802  Zn    0.54389   0.19775   0.70657   0.00000  Uiso   1.00
Zn803  Zn    0.46226   0.20439   0.78734   0.00000  Uiso   1.00
C804   C     0.71933   0.15911   0.76044   0.00000  Uiso   1.00
C805   C     0.83388   0.15618   0.55963   0.00000  Uiso   1.00
C806   C     0.90018   0.12963   0.55633   0.00000  Uiso   1.00
C807   C     0.94755   0.17478   0.74047   0.00000  Uiso   1.00
C808   C     0.80729   0.19211   0.92015   0.00000  Uiso   1.00
C809   C     0.99355   0.18073   0.73818   0.00000  Uiso   1.00
C810   C     0.67440   0.15664   0.76210   0.00000  Uiso   1.00
C811   C     0.84736   0.32256   0.73617   0.00000  Uiso   1.00
C812   C     0.81860   0.01166   0.76357   0.00000  Uiso   1.00
C813   C     0.82294   0.05584   0.76000   0.00000  Uiso   1.00
C814   C     0.84332   0.27796   0.74001   0.00000  Uiso   1.00
C815   C     0.75532   0.20616   0.99050   0.00000  Uiso   1.00
C816   C     0.85221   0.14833   0.62931   0.00000  Uiso   1.00
C817   C     0.81603   0.18541   0.87083   0.00000  Uiso   1.00
C818   C     0.91332   0.13172   0.50985   0.00000  Uiso   1.00
C819   C     0.86112   0.14239   0.58089   0.00000  Uiso   1.00
C820   C     0.76801   0.20558   0.94408   0.00000  Uiso   1.00
C821   C     0.95344   0.11426   0.98482   0.00000  Uiso   1.00
C822   C     0.95273   0.08371   0.94913   0.00000  Uiso   1.00
C823   C     0.99014   0.06657   0.92613   0.00000  Uiso   1.00
C824   C     0.69505   0.07922   0.93899   0.00000  Uiso   1.00
C825   C     0.69592   0.10895   0.97491   0.00000  Uiso   1.00
C826   C     0.78048   0.19148   0.51375   0.00000  Uiso   1.00
C827   C     0.99203   0.12655   0.99772   0.00000  Uiso   1.00
C828   C     0.68922   0.21423   0.71171   0.00000  Uiso   1.00
C829   C     0.68221   0.25604   0.72317   0.00000  Uiso   1.00
C830   C     0.71017   0.28791   0.69966   0.00000  Uiso   1.00
C831   C     0.74517   0.27827   0.66445   0.00000  Uiso   1.00
C832   C     0.75209   0.23674   0.65246   0.00000  Uiso   1.00
C833   C     0.72414   0.20475   0.67578   0.00000  Uiso   1.00
C834   C     0.82060   0.17786   0.99098   0.00000  Uiso   1.00
C835   C     0.83531   0.18135   0.94392   0.00000  Uiso   1.00
C836   C     0.84675   0.16118   0.51326   0.00000  Uiso   1.00
C837   C     0.88768   0.14974   0.98843   0.00000  Uiso   1.00
C838   C     0.90328   0.15887   0.94350   0.00000  Uiso   1.00
C839   C     0.87794   0.17497   0.92196   0.00000  Uiso   1.00
H840   H     0.92050   0.11820   0.57365   0.00000  Uiso   1.00
H841   H     0.98638   0.13179   0.78054   0.00000  Uiso   1.00
H842   H     0.92316   0.07311   0.93920   0.00000  Uiso   1.00
H843   H     0.98941   0.04328   0.89852   0.00000  Uiso   1.00
H844   H     0.72395   0.06579   0.92130   0.00000  Uiso   1.00
H845   H     0.72546   0.11821   0.98514   0.00000  Uiso   1.00
H846   H     0.99330   0.14972   0.52537   0.00000  Uiso   1.00
H847   H     0.98881   0.26397   0.75071   0.00000  Uiso   1.00
H848   H     0.70482   0.32009   0.70888   0.00000  Uiso   1.00
H849   H     0.76689   0.30299   0.64643   0.00000  Uiso   1.00
H850   H     0.77918   0.22938   0.62515   0.00000  Uiso   1.00
H851   H     0.87400   0.00393   0.71095   0.00000  Uiso   1.00
H852   H     0.72978   0.17271   0.66593   0.00000  Uiso   1.00
H853   H     0.79156   0.33100   0.78882   0.00000  Uiso   1.00
H854   H     0.93571   0.15449   0.92467   0.00000  Uiso   1.00
H855   H     0.80394   0.16481   0.58081   0.00000  Uiso   1.00
H856   H     0.74629   0.21450   0.92680   0.00000  Uiso   1.00
H857   H     0.76750   0.19153   0.54950   0.00000  Uiso   1.00
H858   H     0.72478   0.21641   0.50853   0.00000  Uiso   1.00
H859   H     0.89287   0.18330   0.88803   0.00000  Uiso   1.00
O860   O     0.83333   0.16667   0.75000   0.00000  Uiso   1.00
O861   O     0.82118   0.12637   0.65459   0.00000  Uiso   1.00
O862   O     0.79607   0.20391   0.84968   0.00000  Uiso   1.00
O863   O     0.87491   0.17759   0.64606   0.00000  Uiso   1.00
O864   O     0.84118   0.15880   0.84968   0.00000  Uiso   1.00
O865   O     0.84597   0.08019   0.78214   0.00000  Uiso   1.00
O866   O     0.81298   0.26085   0.77014   0.00000  Uiso   1.00
O867   O     0.74078   0.13291   0.73413   0.00000  Uiso   1.00
O868   O     0.93360   0.19272   0.71361   0.00000  Uiso   1.00
O869   O     0.73738   0.18878   0.78213   0.00000  Uiso   1.00
O870   O     0.92158   0.15226   0.77014   0.00000  Uiso   1.00
O871   O     0.80426   0.06944   0.73413   0.00000  Uiso   1.00
O872   O     0.87012   0.25620   0.71361   0.00000  Uiso   1.00
Zn873  Zn    0.86005   0.13994   0.78734   0.00000  Uiso   1.00
Zn874  Zn    0.80046   0.12458   0.71876   0.00000  Uiso   1.00
Zn875  Zn    0.87723   0.19775   0.70657   0.00000  Uiso   1.00
Zn876  Zn    0.79560   0.20439   0.78734   0.00000  Uiso   1.00
C877   C     0.05266   0.49245   0.76044   0.00000  Uiso   1.00
C878   C     0.16721   0.48951   0.55963   0.00000  Uiso   1.00
C879   C     0.23351   0.46297   0.55633   0.00000  Uiso   1.00
C880   C     0.28088   0.50811   0.74047   0.00000  Uiso   1.00
C881   C     0.14063   0.52544   0.92015   0.00000  Uiso   1.00
C882   C     0.32688   0.51407   0.73818   0.00000  Uiso   1.00
C883   C     0.00774   0.48997   0.76210   0.00000  Uiso   1.00
C884   C     0.18070   0.65590   0.73617   0.00000  Uiso   1.00
C885   C     0.15194   0.34499   0.76357   0.00000  Uiso   1.00
C886   C     0.15627   0.38917   0.76000   0.00000  Uiso   1.00
C887   C     0.17665   0.61130   0.74001   0.00000  Uiso   1.00
C888   C     0.08865   0.53950   0.99050   0.00000  Uiso   1.00
C889   C     0.18554   0.48166   0.62931   0.00000  Uiso   1.00
C890   C     0.14936   0.51874   0.87083   0.00000  Uiso   1.00
C891   C     0.24665   0.46506   0.50985   0.00000  Uiso   1.00
C892   C     0.19445   0.47572   0.58089   0.00000  Uiso   1.00
C893   C     0.10134   0.53892   0.94408   0.00000  Uiso   1.00
C894   C     0.28677   0.44760   0.98482   0.00000  Uiso   1.00
C895   C     0.28606   0.41704   0.94913   0.00000  Uiso   1.00
C896   C     0.32347   0.39991   0.92613   0.00000  Uiso   1.00
C897   C     0.02839   0.41255   0.93899   0.00000  Uiso   1.00
C898   C     0.02925   0.44228   0.97491   0.00000  Uiso   1.00
C899   C     0.11381   0.52482   0.51375   0.00000  Uiso   1.00
C900   C     0.32536   0.45988   0.99772   0.00000  Uiso   1.00
C901   C     0.02255   0.54757   0.71171   0.00000  Uiso   1.00
C902   C     0.01554   0.58937   0.72317   0.00000  Uiso   1.00
C903   C     0.04350   0.62124   0.69966   0.00000  Uiso   1.00
C904   C     0.07850   0.61161   0.66445   0.00000  Uiso   1.00
C905   C     0.08542   0.57007   0.65246   0.00000  Uiso   1.00
C906   C     0.05747   0.53809   0.67578   0.00000  Uiso   1.00
C907   C     0.15394   0.51120   0.99098   0.00000  Uiso   1.00
C908   C     0.16864   0.51468   0.94392   0.00000  Uiso   1.00
C909   C     0.18008   0.49451   0.51326   0.00000  Uiso   1.00
C910   C     0.22102   0.48307   0.98843   0.00000  Uiso   1.00
C911   C     0.23661   0.49220   0.94350   0.00000  Uiso   1.00
C912   C     0.21127   0.50830   0.92196   0.00000  Uiso   1.00
H913   H     0.25383   0.45153   0.57365   0.00000  Uiso   1.00
H914   H     0.31971   0.46512   0.78054   0.00000  Uiso   1.00
H915   H     0.25650   0.40644   0.93920   0.00000  Uiso   1.00
H916   H     0.32274   0.37661   0.89852   0.00000  Uiso   1.00
H917   H     0.05729   0.39912   0.92130   0.00000  Uiso   1.00
H918   H     0.05879   0.45154   0.98514   0.00000  Uiso   1.00
H919   H     0.32664   0.48306   0.52537   0.00000  Uiso   1.00
H920   H     0.32214   0.59730   0.75071   0.00000  Uiso   1.00
H921   H     0.03815   0.65343   0.70888   0.00000  Uiso   1.00
H922   H     0.10022   0.63632   0.64643   0.00000  Uiso   1.00
H923   H     0.11252   0.56272   0.62515   0.00000  Uiso   1.00
H924   H     0.20733   0.33726   0.71095   0.00000  Uiso   1.00
H925   H     0.06312   0.50604   0.66593   0.00000  Uiso   1.00
H926   H     0.12489   0.66434   0.78882   0.00000  Uiso   1.00
H927   H     0.26904   0.48782   0.92467   0.00000  Uiso   1.00
H928   H     0.13727   0.49814   0.58081   0.00000  Uiso   1.00
H929   H     0.07962   0.54784   0.92680   0.00000  Uiso   1.00
H930   H     0.10083   0.52486   0.54950   0.00000  Uiso   1.00
H931   H     0.05812   0.54975   0.50853   0.00000  Uiso   1.00
H932   H     0.22621   0.51663   0.88803   0.00000  Uiso   1.00
O933   O     0.16667   0.50000   0.75000   0.00000  Uiso   1.00
O934   O     0.15451   0.45970   0.65459   0.00000  Uiso   1.00
O935   O     0.12940   0.53724   0.84968   0.00000  Uiso   1.00
O936   O     0.20824   0.51092   0.64606   0.00000  Uiso   1.00
O937   O     0.17451   0.49213   0.84968   0.00000  Uiso   1.00
O938   O     0.17930   0.41352   0.78214   0.00000  Uiso   1.00
O939   O     0.14632   0.59418   0.77014   0.00000  Uiso   1.00
O940   O     0.07412   0.46625   0.73413   0.00000  Uiso   1.00
O941   O     0.26693   0.52605   0.71361   0.00000  Uiso   1.00
O942   O     0.07071   0.52211   0.78213   0.00000  Uiso   1.00
O943   O     0.25491   0.48559   0.77014   0.00000  Uiso   1.00
O944   O     0.13760   0.40277   0.73413   0.00000  Uiso   1.00
O945   O     0.20345   0.58953   0.71361   0.00000  Uiso   1.00
Zn946  Zn    0.19338   0.47327   0.78734   0.00000  Uiso   1.00
Zn947  Zn    0.13379   0.45791   0.71876   0.00000  Uiso   1.00
Zn948  Zn    0.21056   0.53109   0.70657   0.00000  Uiso   1.00
Zn949  Zn    0.12893   0.53773   0.78734   0.00000  Uiso   1.00
C950   C     0.38600   0.49245   0.76044   0.00000  Uiso   1.00
C951   C     0.50054   0.48951   0.55963   0.00000  Uiso   1.00
C952   C     0.56684   0.46297   0.55633   0.00000  Uiso   1.00
C953   C     0.61421   0.50811   0.74047   0.00000  Uiso   1.00
C954   C     0.47396   0.52544   0.92015   0.00000  Uiso   1.00
C955   C     0.66021   0.51407   0.73818   0.00000  Uiso   1.00
C956   C     0.34107   0.48997   0.76210   0.00000  Uiso   1.00
C957   C     0.51403   0.65590   0.73617   0.00000  Uiso   1.00
C958   C     0.48527   0.34499   0.76357   0.00000  Uiso   1.00
C959   C     0.48961   0.38917   0.76000   0.00000  Uiso   1.00
C960   C     0.50998   0.61130   0.74001   0.00000  Uiso   1.00
C961   C     0.42199   0.53950   0.99050   0.00000  Uiso   1.00
C962   C     0.51887   0.48166   0.62931   0.00000  Uiso   1.00
C963   C     0.48269   0.51874   0.87083   0.00000  Uiso   1.00
C964   C     0.57999   0.46506   0.50985   0.00000  Uiso   1.00
C965   C     0.52778   0.47572   0.58089   0.00000  Uiso   1.00
C966   C     0.43468   0.53892   0.94408   0.00000  Uiso   1.00
C967   C     0.62010   0.44760   0.98482   0.00000  Uiso   1.00
C968   C     0.61939   0.41704   0.94913   0.00000  Uiso   1.00
C969   C     0.65681   0.39991   0.92613   0.00000  Uiso   1.00
C970   C     0.36172   0.41255   0.93899   0.00000  Uiso   1.00
C971   C     0.36259   0.44228   0.97491   0.00000  Uiso   1.00
C972   C     0.44715   0.52482   0.51375   0.00000  Uiso   1.00
C973   C     0.65870   0.45988   0.99772   0.00000  Uiso   1.00
C974   C     0.35589   0.54757   0.71171   0.00000  Uiso   1.00
C975   C     0.34888   0.58937   0.72317   0.00000  Uiso   1.00
C976   C     0.37683   0.62124   0.69966   0.00000  Uiso   1.00
C977   C     0.41183   0.61161   0.66445   0.00000  Uiso   1.00
C978   C     0.41876   0.57007   0.65246   0.00000  Uiso   1.00
C979   C     0.39081   0.53809   0.67578   0.00000  Uiso   1.00
C980   C     0.48727   0.51120   0.99098   0.00000  Uiso   1.00
C981   C     0.50197   0.51468   0.94392   0.00000  Uiso   1.00
C982   C     0.51342   0.49451   0.51326   0.00000  Uiso   1.00
C983   C     0.55435   0.48307   0.98843   0.00000  Uiso   1.00
C984   C     0.56994   0.49220   0.94350   0.00000  Uiso   1.00
C985   C     0.54460   0.50830   0.92196   0.00000  Uiso   1.00
H986   H     0.58717   0.45153   0.57365   0.00000  Uiso   1.00
H987   H     0.65304   0.46512   0.78054   0.00000  Uiso   1.00
H988   H     0.58983   0.40644   0.93920   0.00000  Uiso   1.00
H989   H     0.65607   0.37661   0.89852   0.00000  Uiso   1.00
H990   H     0.39062   0.39912   0.92130   0.00000  Uiso   1.00
H991   H     0.39212   0.45154   0.98514   0.00000  Uiso   1.00
H992   H     0.65997   0.48306   0.52537   0.00000  Uiso   1.00
H993   H     0.65548   0.59730   0.75071   0.00000  Uiso   1.00
H994   H     0.37149   0.65343   0.70888   0.00000  Uiso   1.00
H995   H     0.43355   0.63632   0.64643   0.00000  Uiso   1.00
H996   H     0.44585   0.56272   0.62515   0.00000  Uiso   1.00
H997   H     0.54067   0.33726   0.71095   0.00000  Uiso   1.00
H998   H     0.39645   0.50604   0.66593   0.00000  Uiso   1.00
H999   H     0.45823   0.66434   0.78882   0.00000  Uiso   1.00
H1000  H     0.60238   0.48782   0.92467   0.00000  Uiso   1.00
H1001  H     0.47061   0.49814   0.58081   0.00000  Uiso   1.00
H1002  H     0.41296   0.54784   0.92680   0.00000  Uiso   1.00
H1003  H     0.43416   0.52486   0.54950   0.00000  Uiso   1.00
H1004  H     0.39145   0.54975   0.50853   0.00000  Uiso   1.00
H1005  H     0.55954   0.51663   0.88803   0.00000  Uiso   1.00
O1006  O     0.50000   0.50000   0.75000   0.00000  Uiso   1.00
O1007  O     0.48784   0.45970   0.65459   0.00000  Uiso   1.00
O1008  O     0.46274   0.53724   0.84968   0.00000  Uiso   1.00
O1009  O     0.54157   0.51092   0.64606   0.00000  Uiso   1.00
O1010  O     0.50785   0.49213   0.84968   0.00000  Uiso   1.00
O1011  O     0.51264   0.41352   0.78214   0.00000  Uiso   1.00
O1012  O     0.47965   0.59418   0.77014   0.00000  Uiso   1.00
O1013  O     0.40745   0.46625   0.73413   0.00000  Uiso   1.00
O1014  O     0.60026   0.52605   0.71361   0.00000  Uiso   1.00
O1015  O     0.40405   0.52211   0.78213   0.00000  Uiso   1.00
O1016  O     0.58824   0.48559   0.77014   0.00000  Uiso   1.00
O1017  O     0.47093   0.40277   0.73413   0.00000  Uiso   1.00
O1018  O     0.53678   0.58953   0.71361   0.00000  Uiso   1.00
Zn1019 Zn    0.52672   0.47327   0.78734   0.00000  Uiso   1.00
Zn1020 Zn    0.46713   0.45791   0.71876   0.00000  Uiso   1.00
Zn1021 Zn    0.54389   0.53109   0.70657   0.00000  Uiso   1.00
Zn1022 Zn    0.46226   0.53773   0.78734   0.00000  Uiso   1.00
C1023  C     0.71933   0.49245   0.76044   0.00000  Uiso   1.00
C1024  C     0.83388   0.48951   0.55963   0.00000  Uiso   1.00
C1025  C     0.90018   0.46297   0.55633   0.00000  Uiso   1.00
C1026  C     0.94755   0.50811   0.74047   0.00000  Uiso   1.00
C1027  C     0.80729   0.52544   0.92015   0.00000  Uiso   1.00
C1028  C     0.99355   0.51407   0.73818   0.00000  Uiso   1.00
C1029  C     0.67440   0.48997   0.76210   0.00000  Uiso   1.00
C1030  C     0.84736   0.65590   0.73617   0.00000  Uiso   1.00
C1031  C     0.81860   0.34499   0.76357   0.00000  Uiso   1.00
C1032  C     0.82294   0.38917   0.76000   0.00000  Uiso   1.00
C1033  C     0.84332   0.61130   0.74001   0.00000  Uiso   1.00
C1034  C     0.75532   0.53950   0.99050   0.00000  Uiso   1.00
C1035  C     0.85221   0.48166   0.62931   0.00000  Uiso   1.00
C1036  C     0.81603   0.51874   0.87083   0.00000  Uiso   1.00
C1037  C     0.91332   0.46506   0.50985   0.00000  Uiso   1.00
C1038  C     0.86112   0.47572   0.58089   0.00000  Uiso   1.00
C1039  C     0.76801   0.53892   0.94408   0.00000  Uiso   1.00
C1040  C     0.95344   0.44760   0.98482   0.00000  Uiso   1.00
C1041  C     0.95273   0.41704   0.94913   0.00000  Uiso   1.00
C1042  C     0.99014   0.39991   0.92613   0.00000  Uiso   1.00
C1043  C     0.69505   0.41255   0.93899   0.00000  Uiso   1.00
C1044  C     0.69592   0.44228   0.97491   0.00000  Uiso   1.00
C1045  C     0.78048   0.52482   0.51375   0.00000  Uiso   1.00
C1046  C     0.99203   0.45988   0.99772   0.00000  Uiso   1.00
C1047  C     0.68922   0.54757   0.71171   0.00000  Uiso   1.00
C1048  C     0.68221   0.58937   0.72317   0.00000  Uiso   1.00
C1049  C     0.71017   0.62124   0.69966   0.00000  Uiso   1.00
C1050  C     0.74517   0.61161   0.66445   0.00000  Uiso   1.00
C1051  C     0.75209   0.57007   0.65246   0.00000  Uiso   1.00
C1052  C     0.72414   0.53809   0.67578   0.00000  Uiso   1.00
C1053  C     0.82060   0.51120   0.99098   0.00000  Uiso   1.00
C1054  C     0.83531   0.51468   0.94392   0.00000  Uiso   1.00
C1055  C     0.84675   0.49451   0.51326   0.00000  Uiso   1.00
C1056  C     0.88768   0.48307   0.98843   0.00000  Uiso   1.00
C1057  C     0.90328   0.49220   0.94350   0.00000  Uiso   1.00
C1058  C     0.87794   0.50830   0.92196   0.00000  Uiso   1.00
H1059  H     0.92050   0.45153   0.57365   0.00000  Uiso   1.00
H1060  H     0.98638   0.46512   0.78054   0.00000  Uiso   1.00
H1061  H     0.92316   0.40644   0.93920   0.00000  Uiso   1.00
H1062  H     0.98941   0.37661   0.89852   0.00000  Uiso   1.00
H1063  H     0.72395   0.39912   0.92130   0.00000  Uiso   1.00
H1064  H     0.72546   0.45154   0.98514   0.00000  Uiso   1.00
H1065  H     0.99330   0.48306   0.52537   0.00000  Uiso   1.00
H1066  H     0.98881   0.59730   0.75071   0.00000  Uiso   1.00
H1067  H     0.70482   0.65343   0.70888   0.00000  Uiso   1.00
H1068  H     0.76689   0.63632   0.64643   0.00000  Uiso   1.00
H1069  H     0.77918   0.56272   0.62515   0.00000  Uiso   1.00
H1070  H     0.87400   0.33726   0.71095   0.00000  Uiso   1.00
H1071  H     0.72978   0.50604   0.66593   0.00000  Uiso   1.00
H1072  H     0.79156   0.66434   0.78882   0.00000  Uiso   1.00
H1073  H     0.93571   0.48782   0.92467   0.00000  Uiso   1.00
H1074  H     0.80394   0.49814   0.58081   0.00000  Uiso   1.00
H1075  H     0.74629   0.54784   0.92680   0.00000  Uiso   1.00
H1076  H     0.76750   0.52486   0.54950   0.00000  Uiso   1.00
H1077  H     0.72478   0.54975   0.50853   0.00000  Uiso   1.00
H1078  H     0.89287   0.51663   0.88803   0.00000  Uiso   1.00
O1079  O     0.83333   0.50000   0.75000   0.00000  Uiso   1.00
O1080  O     0.82118   0.45970   0.65459   0.00000  Uiso   1.00
O1081  O     0.79607   0.53724   0.84968   0.00000  Uiso   1.00
O1082  O     0.87491   0.51092   0.64606   0.00000  Uiso   1.00
O1083  O     0.84118   0.49213   0.84968   0.00000  Uiso   1.00
O1084  O     0.84597   0.41352   0.78214   0.00000  Uiso   1.00
O1085  O     0.81298   0.59418   0.77014   0.00000  Uiso   1.00
O1086  O     0.74078   0.46625   0.73413   0.00000  Uiso   1.00
O1087  O     0.93360   0.52605   0.71361   0.00000  Uiso   1.00
O1088  O     0.73738   0.52211   0.78213   0.00000  Uiso   1.00
O1089  O     0.92158   0.48559   0.77014   0.00000  Uiso   1.00
O1090  O     0.80426   0.40277   0.73413   0.00000  Uiso   1.00
O1091  O     0.87012   0.58953   0.71361   0.00000  Uiso   1.00
Zn1092 Zn    0.86005   0.47327   0.78734   0.00000  Uiso   1.00
Zn1093 Zn    0.80046   0.45791   0.71876   0.00000  Uiso   1.00
Zn1094 Zn    0.87723   0.53109   0.70657   0.00000  Uiso   1.00
Zn1095 Zn    0.79560   0.53773   0.78734   0.00000  Uiso   1.00
C1096  C     0.05266   0.82578   0.76044   0.00000  Uiso   1.00
C1097  C     0.16721   0.82285   0.55963   0.00000  Uiso   1.00
C1098  C     0.23351   0.79630   0.55633   0.00000  Uiso   1.00
C1099  C     0.28088   0.84144   0.74047   0.00000  Uiso   1.00
C1100  C     0.14063   0.85877   0.92015   0.00000  Uiso   1.00
C1101  C     0.32688   0.84740   0.73818   0.00000  Uiso   1.00
C1102  C     0.00774   0.82330   0.76210   0.00000  Uiso   1.00
C1103  C     0.18070   0.98923   0.73617   0.00000  Uiso   1.00
C1104  C     0.15194   0.67833   0.76357   0.00000  Uiso   1.00
C1105  C     0.15627   0.72251   0.76000   0.00000  Uiso   1.00
C1106  C     0.17665   0.94463   0.74001   0.00000  Uiso   1.00
C1107  C     0.08865   0.87283   0.99050   0.00000  Uiso   1.00
C1108  C     0.18554   0.81499   0.62931   0.00000  Uiso   1.00
C1109  C     0.14936   0.85208   0.87083   0.00000  Uiso   1.00
C1110  C     0.24665   0.79839   0.50985   0.00000  Uiso   1.00
C1111  C     0.19445   0.80905   0.58089   0.00000  Uiso   1.00
C1112  C     0.10134   0.87225   0.94408   0.00000  Uiso   1.00
C1113  C     0.28677   0.78093   0.98482   0.00000  Uiso   1.00
C1114  C     0.28606   0.75038   0.94913   0.00000  Uiso   1.00
C1115  C     0.32347   0.73324   0.92613   0.00000  Uiso   1.00
C1116  C     0.02839   0.74588   0.93899   0.00000  Uiso   1.00
C1117  C     0.02925   0.77562   0.97491   0.00000  Uiso   1.00
C1118  C     0.11381   0.85815   0.51375   0.00000  Uiso   1.00
C1119  C     0.32536   0.79322   0.99772   0.00000  Uiso   1.00
C1120  C     0.02255   0.88090   0.71171   0.00000  Uiso   1.00
C1121  C     0.01554   0.92271   0.72317   0.00000  Uiso   1.00
C1122  C     0.04350   0.95457   0.69966   0.00000  Uiso   1.00
C1123  C     0.07850   0.94494   0.66445   0.00000  Uiso   1.00
C1124  C     0.08542   0.90341   0.65246   0.00000  Uiso   1.00
C1125  C     0.05747   0.87142   0.67578   0.00000  Uiso   1.00
C1126  C     0.15394   0.84453   0.99098   0.00000  Uiso   1.00
C1127  C     0.16864   0.84802   0.94392   0.00000  Uiso   1.00
C1128  C     0.18008   0.82784   0.51326   0.00000  Uiso   1.00
C1129  C     0.22102   0.81640   0.98843   0.00000  Uiso   1.00
C1130  C     0.23661   0.82554   0.94350   0.00000  Uiso   1.00
C1131  C     0.21127   0.84163   0.92196   0.00000  Uiso   1.00
H1132  H     0.25383   0.78487   0.57365   0.00000  Uiso   1.00
H1133  H     0.31971   0.79845   0.78054   0.00000  Uiso   1.00
H1134  H     0.25650   0.73978   0.93920   0.00000  Uiso   1.00
H1135  H     0.32274   0.70995   0.89852   0.00000  Uiso   1.00
H1136  H     0.05729   0.73245   0.92130   0.00000  Uiso   1.00
H1137  H     0.05879   0.78487   0.98514   0.00000  Uiso   1.00
H1138  H     0.32664   0.81639   0.52537   0.00000  Uiso   1.00
H1139  H     0.32214   0.93064   0.75071   0.00000  Uiso   1.00
H1140  H     0.03815   0.98676   0.70888   0.00000  Uiso   1.00
H1141  H     0.10022   0.96966   0.64643   0.00000  Uiso   1.00
H1142  H     0.11252   0.89605   0.62515   0.00000  Uiso   1.00
H1143  H     0.20733   0.67060   0.71095   0.00000  Uiso   1.00
H1144  H     0.06312   0.83938   0.66593   0.00000  Uiso   1.00
H1145  H     0.12489   0.99767   0.78882   0.00000  Uiso   1.00
H1146  H     0.26904   0.82115   0.92467   0.00000  Uiso   1.00
H1147  H     0.13727   0.83148   0.58081   0.00000  Uiso   1.00
H1148  H     0.07962   0.88117   0.92680   0.00000  Uiso   1.00
H1149  H     0.10083   0.85820   0.54950   0.00000  Uiso   1.00
H1150  H     0.05812   0.88308   0.50853   0.00000  Uiso   1.00
H1151  H     0.22621   0.84996   0.88803   0.00000  Uiso   1.00
O1152  O     0.16667   0.83333   0.75000   0.00000  Uiso   1.00
O1153  O     0.15451   0.79304   0.65459   0.00000  Uiso   1.00
O1154  O     0.12940   0.87058   0.84968   0.00000  Uiso   1.00
O1155  O     0.20824   0.84425   0.64606   0.00000  Uiso   1.00
O1156  O     0.17451   0.82546   0.84968   0.00000  Uiso   1.00
O1157  O     0.17930   0.74686   0.78214   0.00000  Uiso   1.00
O1158  O     0.14632   0.92751   0.77014   0.00000  Uiso   1.00
O1159  O     0.07412   0.79958   0.73413   0.00000  Uiso   1.00
O1160  O     0.26693   0.85939   0.71361   0.00000  Uiso   1.00
O1161  O     0.07071   0.85544   0.78213   0.00000  Uiso   1.00
O1162  O     0.25491   0.81892   0.77014   0.00000  Uiso   1.00
O1163  O     0.13760   0.73610   0.73413   0.00000  Uiso   1.00
O1164  O     0.20345   0.92286   0.71361   0.00000  Uiso   1.00
Zn1165 Zn    0.19338   0.80661   0.78734   0.00000  Uiso   1.00
Zn1166 Zn    0.13379   0.79124   0.71876   0.00000  Uiso   1.00
Zn1167 Zn    0.21056   0.86442   0.70657   0.00000  Uiso   1.00
Zn1168 Zn    0.12893   0.87106   0.78734   0.00000  Uiso   1.00
C1169  C     0.38600   0.82578   0.76044   0.00000  Uiso   1.00
C1170  C     0.50054   0.82285   0.55963   0.00000  Uiso   1.00
C1171  C     0.56684   0.79630   0.55633   0.00000  Uiso   1.00
C1172  C     0.61421   0.84144   0.74047   0.00000  Uiso   1.00
C1173  C     0.47396   0.85877   0.92015   0.00000  Uiso   1.00
C1174  C     0.66021   0.84740   0.73818   0.00000  Uiso   1.00
C1175  C     0.34107   0.82330   0.76210   0.00000  Uiso   1.00
C1176  C     0.51403   0.98923   0.73617   0.00000  Uiso   1.00
C1177  C     0.48527   0.67833   0.76357   0.00000  Uiso   1.00
C1178  C     0.48961   0.72251   0.76000   0.00000  Uiso   1.00
C1179  C     0.50998   0.94463   0.74001   0.00000  Uiso   1.00
C1180  C     0.42199   0.87283   0.99050   0.00000  Uiso   1.00
C1181  C     0.51887   0.81499   0.62931   0.00000  Uiso   1.00
C1182  C     0.48269   0.85208   0.87083   0.00000  Uiso   1.00
C1183  C     0.57999   0.79839   0.50985   0.00000  Uiso   1.00
C1184  C     0.52778   0.80905   0.58089   0.00000  Uiso   1.00
C1185  C     0.43468   0.87225   0.94408   0.00000  Uiso   1.00
C1186  C     0.62010   0.78093   0.98482   0.00000  Uiso   1.00
C1187  C     0.61939   0.75038   0.94913   0.00000  Uiso   1.00
C1188  C     0.65681   0.73324   0.92613   0.00000  Uiso   1.00
C1189  C     0.36172   0.74588   0.93899   0.00000  Uiso   1.00
C1190  C     0.36259   0.77562   0.97491   0.00000  Uiso   1.00
C1191  C     0.44715   0.85815   0.51375   0.00000  Uiso   1.00
C1192  C     0.65870   0.79322   0.99772   0.00000  Uiso   1.00
C1193  C     0.35589   0.88090   0.71171   0.00000  Uiso   1.00
C1194  C     0.34888   0.92271   0.72317   0.00000  Uiso   1.00
C1195  C     0.37683   0.95457   0.69966   0.00000  Uiso   1.00
C1196  C     0.41183   0.94494   0.66445   0.00000  Uiso   1.00
C1197  C     0.41876   0.90341   0.65246   0.00000  Uiso   1.00
C1198  C     0.39081   0.87142   0.67578   0.00000  Uiso   1.00
C1199  C     0.48727   0.84453   0.99098   0.00000  Uiso   1.00
C1200  C     0.50197   0.84802   0.94392   0.00000  Uiso   1.00
C1201  C     0.51342   0.82784   0.51326   0.00000  Uiso   1.00
C1202  C     0.55435   0.81640   0.98843   0.00000  Uiso   1.00
C1203  C     0.56994   0.82554   0.94350   0.00000  Uiso   1.00
C1204  C     0.54460   0.84163   0.92196   0.00000  Uiso   1.00
H1205  H     0.58717   0.78487   0.57365   0.00000  Uiso   1.00
H1206  H     0.65304   0.79845   0.78054   0.00000  Uiso   1.00
H1207  H     0.58983   0.73978   0.93920   0.00000  Uiso   1.00
H1208  H     0.65607   0.70995   0.89852   0.00000  Uiso   1.00
H1209  H     0.39062   0.73245   0.92130   0.00000  Uiso   1.00
H1210  H     0.39212   0.78487   0.98514   0.00000  Uiso   1.00
H1211  H     0.65997   0.81639   0.52537   0.00000  Uiso   1.00
H1212  H     0.65548   0.93064   0.75071   0.00000  Uiso   1.00
H1213  H     0.37149   0.98676   0.70888   0.00000  Uiso   1.00
H1214  H     0.43355   0.96966   0.64643   0.00000  Uiso   1.00
H1215  H     0.44585   0.89605   0.62515   0.00000  Uiso   1.00
H1216  H     0.54067   0.67060   0.71095   0.00000  Uiso   1.00
H1217  H     0.39645   0.83938   0.66593   0.00000  Uiso   1.00
H1218  H     0.45823   0.99767   0.78882   0.00000  Uiso   1.00
H1219  H     0.60238   0.82115   0.92467   0.00000  Uiso   1.00
H1220  H     0.47061   0.83148   0.58081   0.00000  Uiso   1.00
H1221  H     0.41296   0.88117   0.92680   0.00000  Uiso   1.00
H1222  H     0.43416   0.85820   0.54950   0.00000  Uiso   1.00
H1223  H     0.39145   0.88308   0.50853   0.00000  Uiso   1.00
H1224  H     0.55954   0.84996   0.88803   0.00000  Uiso   1.00
O1225  O     0.50000   0.83333   0.75000   0.00000  Uiso   1.00
O1226  O     0.48784   0.79304   0.65459   0.00000  Uiso   1.00
O1227  O     0.46274   0.87058   0.84968   0.00000  Uiso   1.00
O1228  O     0.54157   0.84425   0.64606   0.00000  Uiso   1.00
O1229  O     0.50785   0.82546   0.84968   0.00000  Uiso   1.00
O1230  O     0.51264   0.74686   0.78214   0.00000  Uiso   1.00
O1231  O     0.47965   0.92751   0.77014   0.00000  Uiso   1.00
O1232  O     0.40745   0.79958   0.73413   0.00000  Uiso   1.00
O1233  O     0.60026   0.85939   0.71361   0.00000  Uiso   1.00
O1234  O     0.40405   0.85544   0.78213   0.00000  Uiso   1.00
O1235  O     0.58824   0.81892   0.77014   0.00000  Uiso   1.00
O1236  O     0.47093   0.73610   0.73413   0.00000  Uiso   1.00
O1237  O     0.53678   0.92286   0.71361   0.00000  Uiso   1.00
Zn1238 Zn    0.52672   0.80661   0.78734   0.00000  Uiso   1.00
Zn1239 Zn    0.46713   0.79124   0.71876   0.00000  Uiso   1.00
Zn1240 Zn    0.54389   0.86442   0.70657   0.00000  Uiso   1.00
Zn1241 Zn    0.46226   0.87106   0.78734   0.00000  Uiso   1.00
C1242  C     0.71933   0.82578   0.76044   0.00000  Uiso   1.00
C1243  C     0.83388   0.82285   0.55963   0.00000  Uiso   1.00
C1244  C     0.90018   0.79630   0.55633   0.00000  Uiso   1.00
C1245  C     0.94755   0.84144   0.74047   0.00000  Uiso   1.00
C1246  C     0.80729   0.85877   0.92015   0.00000  Uiso   1.00
C1247  C     0.99355   0.84740   0.73818   0.00000  Uiso   1.00
C1248  C     0.67440   0.82330   0.76210   0.00000  Uiso   1.00
C1249  C     0.84736   0.98923   0.73617   0.00000  Uiso   1.00
C1250  C     0.81860   0.67833   0.76357   0.00000  Uiso   1.00
C1251  C     0.82294   0.72251   0.76000   0.00000  Uiso   1.00
C1252  C     0.84332   0.94463   0.74001   0.00000  Uiso   1.00
C1253  C     0.75532   0.87283   0.99050   0.00000  Uiso   1.00
C1254  C     0.85221   0.81499   0.62931   0.00000  Uiso   1.00
C1255  C     0.81603   0.85208   0.87083   0.00000  Uiso   1.00
C1256  C     0.91332   0.79839   0.50985   0.00000  Uiso   1.00
C1257  C     0.86112   0.80905   0.58089   0.00000  Uiso   1.00
C1258  C     0.76801   0.87225   0.94408   0.00000  Uiso   1.00
C1259  C     0.95344   0.78093   0.98482   0.00000  Uiso   1.00
C1260  C     0.95273   0.75038   0.94913   0.00000  Uiso   1.00
C1261  C     0.99014   0.73324   0.92613   0.00000  Uiso   1.00
C1262  C     0.69505   0.74588   0.93899   0.00000  Uiso   1.00
C1263  C     0.69592   0.77562   0.97491   0.00000  Uiso   1.00
C1264  C     0.78048   0.85815   0.51375   0.00000  Uiso   1.00
C1265  C     0.99203   0.79322   0.99772   0.00000  Uiso   1.00
C1266  C     0.68922   0.88090   0.71171   0.00000  Uiso   1.00
C1267  C     0.68221   0.92271   0.72317   0.00000  Uiso   1.00
C1268  C     0.71017   0.95457   0.69966   0.00000  Uiso   1.00
C1269  C     0.74517   0.94494   0.66445   0.00000  Uiso   1.00
C1270  C     0.75209   0.90341   0.65246   0.00000  Uiso   1.00
C1271  C     0.72414   0.87142   0.67578   0.00000  Uiso   1.00
C1272  C     0.82060   0.84453   0.99098   0.00000  Uiso   1.00
C1273  C     0.83531   0.84802   0.94392   0.00000  Uiso   1.00
C1274  C     0.84675   0.82784   0.51326   0.00000  Uiso   1.00
C1275  C     0.88768   0.81640   0.98843   0.00000  Uiso   1.00
C1276  C     0.90328   0.82554   0.94350   0.00000  Uiso   1.00
C1277  C     0.87794   0.84163   0.92196   0.00000  Uiso   1.00
H1278  H     0.92050   0.78487   0.57365   0.00000  Uiso   1.00
H1279  H     0.98638   0.79845   0.78054   0.00000  Uiso   1.00
H1280  H     0.92316   0.73978   0.93920   0.00000  Uiso   1.00
H1281  H     0.98941   0.70995   0.89852   0.00000  Uiso   1.00
H1282  H     0.72395   0.73245   0.92130   0.00000  Uiso   1.00
H1283  H     0.72546   0.78487   0.98514   0.00000  Uiso   1.00
H1284  H     0.99330   0.81639   0.52537   0.00000  Uiso   1.00
H1285  H     0.98881   0.93064   0.75071   0.00000  Uiso   1.00
H1286  H     0.70482   0.98676   0.70888   0.00000  Uiso   1.00
H1287  H     0.76689   0.96966   0.64643   0.00000  Uiso   1.00
H1288  H     0.77918   0.89605   0.62515   0.00000  Uiso   1.00
H1289  H     0.87400   0.67060   0.71095   0.00000  Uiso   1.00
H1290  H     0.72978   0.83938   0.66593   0.00000  Uiso   1.00
H1291  H     0.79156   0.99767   0.78882   0.00000  Uiso   1.00
H1292  H     0.93571   0.82115   0.92467   0.00000  Uiso   1.00
H1293  H     0.80394   0.83148   0.58081   0.00000  Uiso   1.00
H1294  H     0.74629   0.88117   0.92680   0.00000  Uiso   1.00
H1295  H     0.76750   0.85820   0.54950   0.00000  Uiso   1.00
H1296  H     0.72478   0.88308   0.50853   0.00000  Uiso   1.00
H1297  H     0.89287   0.84996   0.88803   0.00000  Uiso   1.00
O1298  O     0.83333   0.83333   0.75000   0.00000  Uiso   1.00
O1299  O     0.82118   0.79304   0.65459   0.00000  Uiso   1.00
O1300  O     0.79607   0.87058   0.84968   0.00000  Uiso   1.00
O1301  O     0.87491   0.84425   0.64606   0.00000  Uiso   1.00
O1302  O     0.84118   0.82546   0.84968   0.00000  Uiso   1.00
O1303  O     0.84597   0.74686   0.78214   0.00000  Uiso   1.00
O1304  O     0.81298   0.92751   0.77014   0.00000  Uiso   1.00
O1305  O     0.74078   0.79958   0.73413   0.00000  Uiso   1.00
O1306  O     0.93360   0.85939   0.71361   0.00000  Uiso   1.00
O1307  O     0.73738   0.85544   0.78213   0.00000  Uiso   1.00
O1308  O     0.92158   0.81892   0.77014   0.00000  Uiso   1.00
O1309  O     0.80426   0.73610   0.73413   0.00000  Uiso   1.00
O1310  O     0.87012   0.92286   0.71361   0.00000  Uiso   1.00
Zn1311 Zn    0.86005   0.80661   0.78734   0.00000  Uiso   1.00
Zn1312 Zn    0.80046   0.79124   0.71876   0.00000  Uiso   1.00
Zn1313 Zn    0.87723   0.86442   0.70657   0.00000  Uiso   1.00
Zn1314 Zn    0.79560   0.87106   0.78734   0.00000  Uiso   1.00
loop_
_geom_bond_atom_site_label_1
_geom_bond_atom_site_label_2
_geom_bond_distance
_geom_bond_site_symmetry_2
_ccdc_geom_bond_type
C1     O66     1.275   .     A
C1     O64     1.266   .     A
C1     C7      1.439   .     S
C2     C16     1.388   .     A
C2     H52     1.076   .     S
C2     C33     1.407   .     A
C3     C15     1.396   .     A
C3     H37     1.085   .     S
C3     C16     1.392   .     A
C4     O65     1.279   .     A
C4     C6      1.463   .     S
C4     O67     1.280   .     A
C5     C17     1.402   .     A
C5     C32     1.420   .     A
C5     C14     1.478   .     S
C6     C80     1.343   .     S
C6     C98     1.490   .     S
C7     C152    1.343   1_455 S
C7     H184    1.086   1_455 S
C8     C11     1.452   .     S
C8     C228    1.332   .     S
C8     H267    1.088   .     S
C9     C10     1.437   .     S
C9     C446    1.332   1_545 S
C9     H488    1.086   1_545 S
C10    O62     1.279   .     A
C10    O68     1.278   .     A
C11    O63     1.268   .     A
C11    O69     1.269   .     A
C12    C17     1.387   .     A
C12    C680    1.391   .     S
C12    H712    1.083   .     S
C13    O60     1.266   .     A
C13    O58     1.273   .     A
C13    C16     1.449   .     S
C14    O59     1.285   .     A
C14    O61     1.286   .     A
C15    C675    1.488   1_554 S
C15    C691    1.420   1_554 S
C17    H53     1.083   .     S
C18    C24     1.407   .     A
C18    C19     1.407   .     A
C18    C672    1.488   .     S
C19    H39     1.083   .     S
C19    C20     1.398   .     A
C20    H40     1.082   .     S
C20    C94     1.397   .     S
C21    C22     1.397   .     A
C21    H41     1.082   .     S
C21    C166    1.397   1_455 S
C22    H42     1.081   .     S
C22    C170    1.399   1_455 S
C23    H54     1.076   .     S
C23    C669    1.391   1_554 S
C23    C688    1.418   1_554 S
C24    C95     1.399   .     S
C24    H700    1.083   .     S
C25    C26     1.405   .     A
C25    C30     1.407   .     A
C25    C152    1.490   1_455 S
C26    C27     1.399   .     A
C26    H190    1.083   1_455 S
C27    H45     1.083   .     S
C27    C28     1.397   .     A
C28    H46     1.082   .     S
C28    C29     1.398   .     A
C29    H47     1.082   .     S
C29    C30     1.399   .     A
C30    H49     1.083   .     S
C31    C32     1.421   .     A
C31    C680    1.418   .     S
C31    C690    1.428   .     S
C32    C36     1.407   .     A
C33    C688    1.428   1_554 S
C33    C691    1.429   1_554 S
C34    C35     1.398   .     A
C34    C672    1.420   .     S
C34    C690    1.429   .     S
C35    C36     1.382   .     A
C35    H51     1.082   .     S
C36    H56     1.080   .     S
H38    C80     1.086   .     S
H43    C681    1.083   1_554 S
H44    C99     1.083   .     S
H48    C446    1.088   1_545 S
H50    C228    1.086   .     S
H55    C669    1.083   1_554 S
O57    Zn73    1.934   .     S
O57    Zn70    1.963   .     S
O57    Zn71    1.943   .     S
O57    Zn72    1.924   .     S
O58    Zn71    1.928   .     S
O59    Zn73    1.941   .     S
O60    Zn72    1.937   .     S
O61    Zn70    1.926   .     S
O62    Zn70    1.927   .     S
O63    Zn73    1.928   .     S
O64    Zn71    1.925   .     S
O65    Zn72    1.938   .     S
O66    Zn73    1.930   .     S
O67    Zn70    1.918   .     S
O68    Zn71    1.937   .     S
O69    Zn72    1.932   .     S
C74    O139    1.275   .     A
C74    O137    1.266   .     A
C74    C80     1.439   .     S
C75    C89     1.388   .     A
C75    H125    1.076   .     S
C75    C106    1.407   .     A
C76    C88     1.396   .     A
C76    H110    1.085   .     S
C76    C89     1.392   .     A
C77    O138    1.279   .     A
C77    C79     1.463   .     S
C77    O140    1.280   .     A
C78    C90     1.402   .     A
C78    C105    1.420   .     A
C78    C87     1.478   .     S
C79    C153    1.343   .     S
C79    C171    1.490   .     S
C81    C84     1.452   .     S
C81    C301    1.332   .     S
C81    H340    1.088   .     S
C82    C83     1.437   .     S
C82    C519    1.332   1_545 S
C82    H561    1.086   1_545 S
C83    O135    1.279   .     A
C83    O141    1.278   .     A
C84    O136    1.268   .     A
C84    O142    1.269   .     A
C85    C90     1.387   .     A
C85    C753    1.391   .     S
C85    H785    1.083   .     S
C86    O133    1.266   .     A
C86    O131    1.273   .     A
C86    C89     1.449   .     S
C87    O132    1.285   .     A
C87    O134    1.286   .     A
C88    C748    1.488   1_554 S
C88    C764    1.420   1_554 S
C90    H126    1.083   .     S
C91    C97     1.407   .     A
C91    C92     1.407   .     A
C91    C745    1.488   .     S
C92    H112    1.083   .     S
C92    C93     1.398   .     A
C93    H113    1.082   .     S
C93    C167    1.397   .     S
C94    C95     1.397   .     A
C94    H114    1.082   .     S
C95    H115    1.081   .     S
C96    H127    1.076   .     S
C96    C742    1.391   1_554 S
C96    C761    1.418   1_554 S
C97    C168    1.399   .     S
C97    H773    1.083   .     S
C98    C99     1.405   .     A
C98    C103    1.407   .     A
C99    C100    1.399   .     A
C100   H118    1.083   .     S
C100   C101    1.397   .     A
C101   H119    1.082   .     S
C101   C102    1.398   .     A
C102   H120    1.082   .     S
C102   C103    1.399   .     A
C103   H122    1.083   .     S
C104   C105    1.421   .     A
C104   C753    1.418   .     S
C104   C763    1.428   .     S
C105   C109    1.407   .     A
C106   C761    1.428   1_554 S
C106   C764    1.429   1_554 S
C107   C108    1.398   .     A
C107   C745    1.420   .     S
C107   C763    1.429   .     S
C108   C109    1.382   .     A
C108   H124    1.082   .     S
C109   H129    1.080   .     S
H111   C153    1.086   .     S
H116   C754    1.083   1_554 S
H117   C172    1.083   .     S
H121   C519    1.088   1_545 S
H123   C301    1.086   .     S
H128   C742    1.083   1_554 S
O130   Zn146   1.934   .     S
O130   Zn143   1.963   .     S
O130   Zn144   1.943   .     S
O130   Zn145   1.924   .     S
O131   Zn144   1.928   .     S
O132   Zn146   1.941   .     S
O133   Zn145   1.937   .     S
O134   Zn143   1.926   .     S
O135   Zn143   1.927   .     S
O136   Zn146   1.928   .     S
O137   Zn144   1.925   .     S
O138   Zn145   1.938   .     S
O139   Zn146   1.930   .     S
O140   Zn143   1.918   .     S
O141   Zn144   1.937   .     S
O142   Zn145   1.932   .     S
C147   O212    1.275   .     A
C147   O210    1.266   .     A
C147   C153    1.439   .     S
C148   C162    1.388   .     A
C148   H198    1.076   .     S
C148   C179    1.407   .     A
C149   C161    1.396   .     A
C149   H183    1.085   .     S
C149   C162    1.392   .     A
C150   O211    1.279   .     A
C150   C152    1.463   .     S
C150   O213    1.280   .     A
C151   C163    1.402   .     A
C151   C178    1.420   .     A
C151   C160    1.478   .     S
C152   C7      1.343   1_655 S
C152   C25     1.490   1_655 S
C154   C157    1.452   .     S
C154   C374    1.332   .     S
C154   H413    1.088   .     S
C155   C156    1.437   .     S
C155   C592    1.332   1_545 S
C155   H634    1.086   1_545 S
C156   O208    1.279   .     A
C156   O214    1.278   .     A
C157   O209    1.268   .     A
C157   O215    1.269   .     A
C158   C163    1.387   .     A
C158   C826    1.391   .     S
C158   H858    1.083   .     S
C159   O206    1.266   .     A
C159   O204    1.273   .     A
C159   C162    1.449   .     S
C160   O205    1.285   .     A
C160   O207    1.286   .     A
C161   C821    1.488   1_554 S
C161   C837    1.420   1_554 S
C163   H199    1.083   .     S
C164   C170    1.407   .     A
C164   C165    1.407   .     A
C164   C818    1.488   .     S
C165   H185    1.083   .     S
C165   C166    1.398   .     A
C166   H186    1.082   .     S
C166   C21     1.397   1_655 S
C167   C168    1.397   .     A
C167   H187    1.082   .     S
C168   H188    1.081   .     S
C169   H200    1.076   .     S
C169   C815    1.391   1_554 S
C169   C834    1.418   1_554 S
C170   C22     1.399   1_655 S
C170   H846    1.083   .     S
C171   C172    1.405   .     A
C171   C176    1.407   .     A
C172   C173    1.399   .     A
C173   H191    1.083   .     S
C173   C174    1.397   .     A
C174   H192    1.082   .     S
C174   C175    1.398   .     A
C175   H193    1.082   .     S
C175   C176    1.399   .     A
C176   H195    1.083   .     S
C177   C178    1.421   .     A
C177   C826    1.418   .     S
C177   C836    1.428   .     S
C178   C182    1.407   .     A
C179   C834    1.428   1_554 S
C179   C837    1.429   1_554 S
C180   C181    1.398   .     A
C180   C818    1.420   .     S
C180   C836    1.429   .     S
C181   C182    1.382   .     A
C181   H197    1.082   .     S
C182   H202    1.080   .     S
H184   C7      1.086   1_655 S
H189   C827    1.083   1_554 S
H190   C26     1.083   1_655 S
H194   C592    1.088   1_545 S
H196   C374    1.086   .     S
H201   C815    1.083   1_554 S
O203   Zn219   1.934   .     S
O203   Zn216   1.963   .     S
O203   Zn217   1.943   .     S
O203   Zn218   1.924   .     S
O204   Zn217   1.928   .     S
O205   Zn219   1.941   .     S
O206   Zn218   1.937   .     S
O207   Zn216   1.926   .     S
O208   Zn216   1.927   .     S
O209   Zn219   1.928   .     S
O210   Zn217   1.925   .     S
O211   Zn218   1.938   .     S
O212   Zn219   1.930   .     S
O213   Zn216   1.918   .     S
O214   Zn217   1.937   .     S
O215   Zn218   1.932   .     S
C220   O285    1.275   .     A
C220   O283    1.266   .     A
C220   C226    1.439   .     S
C221   C235    1.388   .     A
C221   H271    1.076   .     S
C221   C252    1.407   .     A
C222   C234    1.396   .     A
C222   H256    1.085   .     S
C222   C235    1.392   .     A
C223   O284    1.279   .     A
C223   C225    1.463   .     S
C223   O286    1.280   .     A
C224   C236    1.402   .     A
C224   C251    1.420   .     A
C224   C233    1.478   .     S
C225   C299    1.343   .     S
C225   C317    1.490   .     S
C226   C371    1.343   1_455 S
C226   H403    1.086   1_455 S
C227   C230    1.452   .     S
C227   C447    1.332   .     S
C227   H486    1.088   .     S
C228   C229    1.437   .     S
C229   O281    1.279   .     A
C229   O287    1.278   .     A
C230   O282    1.268   .     A
C230   O288    1.269   .     A
C231   C236    1.387   .     A
C231   C899    1.391   .     S
C231   H931    1.083   .     S
C232   O279    1.266   .     A
C232   O277    1.273   .     A
C232   C235    1.449   .     S
C233   O278    1.285   .     A
C233   O280    1.286   .     A
C234   C894    1.488   1_554 S
C234   C910    1.420   1_554 S
C236   H272    1.083   .     S
C237   C243    1.407   .     A
C237   C238    1.407   .     A
C237   C891    1.488   .     S
C238   H258    1.083   .     S
C238   C239    1.398   .     A
C239   H259    1.082   .     S
C239   C313    1.397   .     S
C240   C241    1.397   .     A
C240   H260    1.082   .     S
C240   C385    1.397   1_455 S
C241   H261    1.081   .     S
C241   C389    1.399   1_455 S
C242   H273    1.076   .     S
C242   C888    1.391   1_554 S
C242   C907    1.418   1_554 S
C243   C314    1.399   .     S
C243   H919    1.083   .     S
C244   C245    1.405   .     A
C244   C249    1.407   .     A
C244   C371    1.490   1_455 S
C245   C246    1.399   .     A
C245   H409    1.083   1_455 S
C246   H264    1.083   .     S
C246   C247    1.397   .     A
C247   H265    1.082   .     S
C247   C248    1.398   .     A
C248   H266    1.082   .     S
C248   C249    1.399   .     A
C249   H268    1.083   .     S
C250   C251    1.421   .     A
C250   C899    1.418   .     S
C250   C909    1.428   .     S
C251   C255    1.407   .     A
C252   C907    1.428   1_554 S
C252   C910    1.429   1_554 S
C253   C254    1.398   .     A
C253   C891    1.420   .     S
C253   C909    1.429   .     S
C254   C255    1.382   .     A
C254   H270    1.082   .     S
C255   H275    1.080   .     S
H257   C299    1.086   .     S
H262   C900    1.083   1_554 S
H263   C318    1.083   .     S
H269   C447    1.086   .     S
H274   C888    1.083   1_554 S
O276   Zn292   1.934   .     S
O276   Zn289   1.963   .     S
O276   Zn290   1.943   .     S
O276   Zn291   1.924   .     S
O277   Zn290   1.928   .     S
O278   Zn292   1.941   .     S
O279   Zn291   1.937   .     S
O280   Zn289   1.926   .     S
O281   Zn289   1.927   .     S
O282   Zn292   1.928   .     S
O283   Zn290   1.925   .     S
O284   Zn291   1.938   .     S
O285   Zn292   1.930   .     S
O286   Zn289   1.918   .     S
O287   Zn290   1.937   .     S
O288   Zn291   1.932   .     S
C293   O358    1.275   .     A
C293   O356    1.266   .     A
C293   C299    1.439   .     S
C294   C308    1.388   .     A
C294   H344    1.076   .     S
C294   C325    1.407   .     A
C295   C307    1.396   .     A
C295   H329    1.085   .     S
C295   C308    1.392   .     A
C296   O357    1.279   .     A
C296   C298    1.463   .     S
C296   O359    1.280   .     A
C297   C309    1.402   .     A
C297   C324    1.420   .     A
C297   C306    1.478   .     S
C298   C372    1.343   .     S
C298   C390    1.490   .     S
C300   C303    1.452   .     S
C300   C520    1.332   .     S
C300   H559    1.088   .     S
C301   C302    1.437   .     S
C302   O354    1.279   .     A
C302   O360    1.278   .     A
C303   O355    1.268   .     A
C303   O361    1.269   .     A
C304   C309    1.387   .     A
C304   C972    1.391   .     S
C304   H1004   1.083   .     S
C305   O352    1.266   .     A
C305   O350    1.273   .     A
C305   C308    1.449   .     S
C306   O351    1.285   .     A
C306   O353    1.286   .     A
C307   C967    1.488   1_554 S
C307   C983    1.420   1_554 S
C309   H345    1.083   .     S
C310   C316    1.407   .     A
C310   C311    1.407   .     A
C310   C964    1.488   .     S
C311   H331    1.083   .     S
C311   C312    1.398   .     A
C312   H332    1.082   .     S
C312   C386    1.397   .     S
C313   C314    1.397   .     A
C313   H333    1.082   .     S
C314   H334    1.081   .     S
C315   H346    1.076   .     S
C315   C961    1.391   1_554 S
C315   C980    1.418   1_554 S
C316   C387    1.399   .     S
C316   H992    1.083   .     S
C317   C318    1.405   .     A
C317   C322    1.407   .     A
C318   C319    1.399   .     A
C319   H337    1.083   .     S
C319   C320    1.397   .     A
C320   H338    1.082   .     S
C320   C321    1.398   .     A
C321   H339    1.082   .     S
C321   C322    1.399   .     A
C322   H341    1.083   .     S
C323   C324    1.421   .     A
C323   C972    1.418   .     S
C323   C982    1.428   .     S
C324   C328    1.407   .     A
C325   C980    1.428   1_554 S
C325   C983    1.429   1_554 S
C326   C327    1.398   .     A
C326   C964    1.420   .     S
C326   C982    1.429   .     S
C327   C328    1.382   .     A
C327   H343    1.082   .     S
C328   H348    1.080   .     S
H330   C372    1.086   .     S
H335   C973    1.083   1_554 S
H336   C391    1.083   .     S
H342   C520    1.086   .     S
H347   C961    1.083   1_554 S
O349   Zn365   1.934   .     S
O349   Zn362   1.963   .     S
O349   Zn363   1.943   .     S
O349   Zn364   1.924   .     S
O350   Zn363   1.928   .     S
O351   Zn365   1.941   .     S
O352   Zn364   1.937   .     S
O353   Zn362   1.926   .     S
O354   Zn362   1.927   .     S
O355   Zn365   1.928   .     S
O356   Zn363   1.925   .     S
O357   Zn364   1.938   .     S
O358   Zn365   1.930   .     S
O359   Zn362   1.918   .     S
O360   Zn363   1.937   .     S
O361   Zn364   1.932   .     S
C366   O431    1.275   .     A
C366   O429    1.266   .     A
C366   C372    1.439   .     S
C367   C381    1.388   .     A
C367   H417    1.076   .     S
C367   C398    1.407   .     A
C368   C380    1.396   .     A
C368   H402    1.085   .     S
C368   C381    1.392   .     A
C369   O430    1.279   .     A
C369   C371    1.463   .     S
C369   O432    1.280   .     A
C370   C382    1.402   .     A
C370   C397    1.420   .     A
C370   C379    1.478   .     S
C371   C226    1.343   1_655 S
C371   C244    1.490   1_655 S
C373   C376    1.452   .     S
C373   C593    1.332   .     S
C373   H632    1.088   .     S
C374   C375    1.437   .     S
C375   O427    1.279   .     A
C375   O433    1.278   .     A
C376   O428    1.268   .     A
C376   O434    1.269   .     A
C377   C382    1.387   .     A
C377   C1045   1.391   .     S
C377   H1077   1.083   .     S
C378   O425    1.266   .     A
C378   O423    1.273   .     A
C378   C381    1.449   .     S
C379   O424    1.285   .     A
C379   O426    1.286   .     A
C380   C1040   1.488   1_554 S
C380   C1056   1.420   1_554 S
C382   H418    1.083   .     S
C383   C389    1.407   .     A
C383   C384    1.407   .     A
C383   C1037   1.488   .     S
C384   H404    1.083   .     S
C384   C385    1.398   .     A
C385   H405    1.082   .     S
C385   C240    1.397   1_655 S
C386   C387    1.397   .     A
C386   H406    1.082   .     S
C387   H407    1.081   .     S
C388   H419    1.076   .     S
C388   C1034   1.391   1_554 S
C388   C1053   1.418   1_554 S
C389   C241    1.399   1_655 S
C389   H1065   1.083   .     S
C390   C391    1.405   .     A
C390   C395    1.407   .     A
C391   C392    1.399   .     A
C392   H410    1.083   .     S
C392   C393    1.397   .     A
C393   H411    1.082   .     S
C393   C394    1.398   .     A
C394   H412    1.082   .     S
C394   C395    1.399   .     A
C395   H414    1.083   .     S
C396   C397    1.421   .     A
C396   C1045   1.418   .     S
C396   C1055   1.428   .     S
C397   C401    1.407   .     A
C398   C1053   1.428   1_554 S
C398   C1056   1.429   1_554 S
C399   C400    1.398   .     A
C399   C1037   1.420   .     S
C399   C1055   1.429   .     S
C400   C401    1.382   .     A
C400   H416    1.082   .     S
C401   H421    1.080   .     S
H403   C226    1.086   1_655 S
H408   C1046   1.083   1_554 S
H409   C245    1.083   1_655 S
H415   C593    1.086   .     S
H420   C1034   1.083   1_554 S
O422   Zn438   1.934   .     S
O422   Zn435   1.963   .     S
O422   Zn436   1.943   .     S
O422   Zn437   1.924   .     S
O423   Zn436   1.928   .     S
O424   Zn438   1.941   .     S
O425   Zn437   1.937   .     S
O426   Zn435   1.926   .     S
O427   Zn435   1.927   .     S
O428   Zn438   1.928   .     S
O429   Zn436   1.925   .     S
O430   Zn437   1.938   .     S
O431   Zn438   1.930   .     S
O432   Zn435   1.918   .     S
O433   Zn436   1.937   .     S
O434   Zn437   1.932   .     S
C439   O504    1.275   .     A
C439   O502    1.266   .     A
C439   C445    1.439   .     S
C440   C454    1.388   .     A
C440   H490    1.076   .     S
C440   C471    1.407   .     A
C441   C453    1.396   .     A
C441   H475    1.085   .     S
C441   C454    1.392   .     A
C442   O503    1.279   .     A
C442   C444    1.463   .     S
C442   O505    1.280   .     A
C443   C455    1.402   .     A
C443   C470    1.420   .     A
C443   C452    1.478   .     S
C444   C518    1.343   .     S
C444   C536    1.490   .     S
C445   C590    1.343   1_455 S
C445   H622    1.086   1_455 S
C446   C449    1.452   .     S
C446   C9      1.332   1_565 S
C446   H48     1.088   1_565 S
C447   C448    1.437   .     S
C448   O500    1.279   .     A
C448   O506    1.278   .     A
C449   O501    1.268   .     A
C449   O507    1.269   .     A
C450   C455    1.387   .     A
C450   C1118   1.391   .     S
C450   H1150   1.083   .     S
C451   O498    1.266   .     A
C451   O496    1.273   .     A
C451   C454    1.449   .     S
C452   O497    1.285   .     A
C452   O499    1.286   .     A
C453   C1113   1.488   1_554 S
C453   C1129   1.420   1_554 S
C455   H491    1.083   .     S
C456   C462    1.407   .     A
C456   C457    1.407   .     A
C456   C1110   1.488   .     S
C457   H477    1.083   .     S
C457   C458    1.398   .     A
C458   H478    1.082   .     S
C458   C532    1.397   .     S
C459   C460    1.397   .     A
C459   H479    1.082   .     S
C459   C604    1.397   1_455 S
C460   H480    1.081   .     S
C460   C608    1.399   1_455 S
C461   H492    1.076   .     S
C461   C1107   1.391   1_554 S
C461   C1126   1.418   1_554 S
C462   C533    1.399   .     S
C462   H1138   1.083   .     S
C463   C464    1.405   .     A
C463   C468    1.407   .     A
C463   C590    1.490   1_455 S
C464   C465    1.399   .     A
C464   H628    1.083   1_455 S
C465   H483    1.083   .     S
C465   C466    1.397   .     A
C466   H484    1.082   .     S
C466   C467    1.398   .     A
C467   H485    1.082   .     S
C467   C468    1.399   .     A
C468   H487    1.083   .     S
C469   C470    1.421   .     A
C469   C1118   1.418   .     S
C469   C1128   1.428   .     S
C470   C474    1.407   .     A
C471   C1126   1.428   1_554 S
C471   C1129   1.429   1_554 S
C472   C473    1.398   .     A
C472   C1110   1.420   .     S
C472   C1128   1.429   .     S
C473   C474    1.382   .     A
C473   H489    1.082   .     S
C474   H494    1.080   .     S
H476   C518    1.086   .     S
H481   C1119   1.083   1_554 S
H482   C537    1.083   .     S
H488   C9      1.086   1_565 S
H493   C1107   1.083   1_554 S
O495   Zn511   1.934   .     S
O495   Zn508   1.963   .     S
O495   Zn509   1.943   .     S
O495   Zn510   1.924   .     S
O496   Zn509   1.928   .     S
O497   Zn511   1.941   .     S
O498   Zn510   1.937   .     S
O499   Zn508   1.926   .     S
O500   Zn508   1.927   .     S
O501   Zn511   1.928   .     S
O502   Zn509   1.925   .     S
O503   Zn510   1.938   .     S
O504   Zn511   1.930   .     S
O505   Zn508   1.918   .     S
O506   Zn509   1.937   .     S
O507   Zn510   1.932   .     S
C512   O577    1.275   .     A
C512   O575    1.266   .     A
C512   C518    1.439   .     S
C513   C527    1.388   .     A
C513   H563    1.076   .     S
C513   C544    1.407   .     A
C514   C526    1.396   .     A
C514   H548    1.085   .     S
C514   C527    1.392   .     A
C515   O576    1.279   .     A
C515   C517    1.463   .     S
C515   O578    1.280   .     A
C516   C528    1.402   .     A
C516   C543    1.420   .     A
C516   C525    1.478   .     S
C517   C591    1.343   .     S
C517   C609    1.490   .     S
C519   C522    1.452   .     S
C519   C82     1.332   1_565 S
C519   H121    1.088   1_565 S
C520   C521    1.437   .     S
C521   O573    1.279   .     A
C521   O579    1.278   .     A
C522   O574    1.268   .     A
C522   O580    1.269   .     A
C523   C528    1.387   .     A
C523   C1191   1.391   .     S
C523   H1223   1.083   .     S
C524   O571    1.266   .     A
C524   O569    1.273   .     A
C524   C527    1.449   .     S
C525   O570    1.285   .     A
C525   O572    1.286   .     A
C526   C1186   1.488   1_554 S
C526   C1202   1.420   1_554 S
C528   H564    1.083   .     S
C529   C535    1.407   .     A
C529   C530    1.407   .     A
C529   C1183   1.488   .     S
C530   H550    1.083   .     S
C530   C531    1.398   .     A
C531   H551    1.082   .     S
C531   C605    1.397   .     S
C532   C533    1.397   .     A
C532   H552    1.082   .     S
C533   H553    1.081   .     S
C534   H565    1.076   .     S
C534   C1180   1.391   1_554 S
C534   C1199   1.418   1_554 S
C535   C606    1.399   .     S
C535   H1211   1.083   .     S
C536   C537    1.405   .     A
C536   C541    1.407   .     A
C537   C538    1.399   .     A
C538   H556    1.083   .     S
C538   C539    1.397   .     A
C539   H557    1.082   .     S
C539   C540    1.398   .     A
C540   H558    1.082   .     S
C540   C541    1.399   .     A
C541   H560    1.083   .     S
C542   C543    1.421   .     A
C542   C1191   1.418   .     S
C542   C1201   1.428   .     S
C543   C547    1.407   .     A
C544   C1199   1.428   1_554 S
C544   C1202   1.429   1_554 S
C545   C546    1.398   .     A
C545   C1183   1.420   .     S
C545   C1201   1.429   .     S
C546   C547    1.382   .     A
C546   H562    1.082   .     S
C547   H567    1.080   .     S
H549   C591    1.086   .     S
H554   C1192   1.083   1_554 S
H555   C610    1.083   .     S
H561   C82     1.086   1_565 S
H566   C1180   1.083   1_554 S
O568   Zn584   1.934   .     S
O568   Zn581   1.963   .     S
O568   Zn582   1.943   .     S
O568   Zn583   1.924   .     S
O569   Zn582   1.928   .     S
O570   Zn584   1.941   .     S
O571   Zn583   1.937   .     S
O572   Zn581   1.926   .     S
O573   Zn581   1.927   .     S
O574   Zn584   1.928   .     S
O575   Zn582   1.925   .     S
O576   Zn583   1.938   .     S
O577   Zn584   1.930   .     S
O578   Zn581   1.918   .     S
O579   Zn582   1.937   .     S
O580   Zn583   1.932   .     S
C585   O650    1.275   .     A
C585   O648    1.266   .     A
C585   C591    1.439   .     S
C586   C600    1.388   .     A
C586   H636    1.076   .     S
C586   C617    1.407   .     A
C587   C599    1.396   .     A
C587   H621    1.085   .     S
C587   C600    1.392   .     A
C588   O649    1.279   .     A
C588   C590    1.463   .     S
C588   O651    1.280   .     A
C589   C601    1.402   .     A
C589   C616    1.420   .     A
C589   C598    1.478   .     S
C590   C445    1.343   1_655 S
C590   C463    1.490   1_655 S
C592   C595    1.452   .     S
C592   C155    1.332   1_565 S
C592   H194    1.088   1_565 S
C593   C594    1.437   .     S
C594   O646    1.279   .     A
C594   O652    1.278   .     A
C595   O647    1.268   .     A
C595   O653    1.269   .     A
C596   C601    1.387   .     A
C596   C1264   1.391   .     S
C596   H1296   1.083   .     S
C597   O644    1.266   .     A
C597   O642    1.273   .     A
C597   C600    1.449   .     S
C598   O643    1.285   .     A
C598   O645    1.286   .     A
C599   C1259   1.488   1_554 S
C599   C1275   1.420   1_554 S
C601   H637    1.083   .     S
C602   C608    1.407   .     A
C602   C603    1.407   .     A
C602   C1256   1.488   .     S
C603   H623    1.083   .     S
C603   C604    1.398   .     A
C604   H624    1.082   .     S
C604   C459    1.397   1_655 S
C605   C606    1.397   .     A
C605   H625    1.082   .     S
C606   H626    1.081   .     S
C607   H638    1.076   .     S
C607   C1253   1.391   1_554 S
C607   C1272   1.418   1_554 S
C608   C460    1.399   1_655 S
C608   H1284   1.083   .     S
C609   C610    1.405   .     A
C609   C614    1.407   .     A
C610   C611    1.399   .     A
C611   H629    1.083   .     S
C611   C612    1.397   .     A
C612   H630    1.082   .     S
C612   C613    1.398   .     A
C613   H631    1.082   .     S
C613   C614    1.399   .     A
C614   H633    1.083   .     S
C615   C616    1.421   .     A
C615   C1264   1.418   .     S
C615   C1274   1.428   .     S
C616   C620    1.407   .     A
C617   C1272   1.428   1_554 S
C617   C1275   1.429   1_554 S
C618   C619    1.398   .     A
C618   C1256   1.420   .     S
C618   C1274   1.429   .     S
C619   C620    1.382   .     A
C619   H635    1.082   .     S
C620   H640    1.080   .     S
H622   C445    1.086   1_655 S
H627   C1265   1.083   1_554 S
H628   C464    1.083   1_655 S
H634   C155    1.086   1_565 S
H639   C1253   1.083   1_554 S
O641   Zn657   1.934   .     S
O641   Zn654   1.963   .     S
O641   Zn655   1.943   .     S
O641   Zn656   1.924   .     S
O642   Zn655   1.928   .     S
O643   Zn657   1.941   .     S
O644   Zn656   1.937   .     S
O645   Zn654   1.926   .     S
O646   Zn654   1.927   .     S
O647   Zn657   1.928   .     S
O648   Zn655   1.925   .     S
O649   Zn656   1.938   .     S
O650   Zn657   1.930   .     S
O651   Zn654   1.918   .     S
O652   Zn655   1.937   .     S
O653   Zn656   1.932   .     S
C658   O723    1.275   .     A
C658   O721    1.266   .     A
C658   C664    1.439   .     S
C659   C673    1.388   .     A
C659   H709    1.076   .     S
C659   C690    1.407   .     A
C660   C672    1.396   .     A
C660   H694    1.085   .     S
C660   C673    1.392   .     A
C661   O722    1.279   .     A
C661   C663    1.463   .     S
C661   O724    1.280   .     A
C662   C674    1.402   .     A
C662   C689    1.420   .     A
C662   C671    1.478   .     S
C663   C737    1.343   .     S
C663   C755    1.490   .     S
C664   C809    1.343   1_455 S
C664   H841    1.086   1_455 S
C665   C668    1.452   .     S
C665   C885    1.332   .     S
C665   H924    1.088   .     S
C666   C667    1.437   .     S
C666   C1103   1.332   1_545 S
C666   H1145   1.086   1_545 S
C667   O719    1.279   .     A
C667   O725    1.278   .     A
C668   O720    1.268   .     A
C668   O726    1.269   .     A
C669   C674    1.387   .     A
C669   C23     1.391   1_556 S
C669   H55     1.083   1_556 S
C670   O717    1.266   .     A
C670   O715    1.273   .     A
C670   C673    1.449   .     S
C671   O716    1.285   .     A
C671   O718    1.286   .     A
C674   H710    1.083   .     S
C675   C681    1.407   .     A
C675   C676    1.407   .     A
C675   C15     1.488   1_556 S
C676   H696    1.083   .     S
C676   C677    1.398   .     A
C677   H697    1.082   .     S
C677   C751    1.397   .     S
C678   C679    1.397   .     A
C678   H698    1.082   .     S
C678   C823    1.397   1_455 S
C679   H699    1.081   .     S
C679   C827    1.399   1_455 S
C680   H711    1.076   .     S
C681   C752    1.399   .     S
C681   H43     1.083   1_556 S
C682   C683    1.405   .     A
C682   C687    1.407   .     A
C682   C809    1.490   1_455 S
C683   C684    1.399   .     A
C683   H847    1.083   1_455 S
C684   H702    1.083   .     S
C684   C685    1.397   .     A
C685   H703    1.082   .     S
C685   C686    1.398   .     A
C686   H704    1.082   .     S
C686   C687    1.399   .     A
C687   H706    1.083   .     S
C688   C689    1.421   .     A
C688   C23     1.418   1_556 S
C688   C33     1.428   1_556 S
C689   C693    1.407   .     A
C691   C692    1.398   .     A
C691   C15     1.420   1_556 S
C691   C33     1.429   1_556 S
C692   C693    1.382   .     A
C692   H708    1.082   .     S
C693   H713    1.080   .     S
H695   C737    1.086   .     S
H701   C756    1.083   .     S
H705   C1103   1.088   1_545 S
H707   C885    1.086   .     S
O714   Zn730   1.934   .     S
O714   Zn727   1.963   .     S
O714   Zn728   1.943   .     S
O714   Zn729   1.924   .     S
O715   Zn728   1.928   .     S
O716   Zn730   1.941   .     S
O717   Zn729   1.937   .     S
O718   Zn727   1.926   .     S
O719   Zn727   1.927   .     S
O720   Zn730   1.928   .     S
O721   Zn728   1.925   .     S
O722   Zn729   1.938   .     S
O723   Zn730   1.930   .     S
O724   Zn727   1.918   .     S
O725   Zn728   1.937   .     S
O726   Zn729   1.932   .     S
C731   O796    1.275   .     A
C731   O794    1.266   .     A
C731   C737    1.439   .     S
C732   C746    1.388   .     A
C732   H782    1.076   .     S
C732   C763    1.407   .     A
C733   C745    1.396   .     A
C733   H767    1.085   .     S
C733   C746    1.392   .     A
C734   O795    1.279   .     A
C734   C736    1.463   .     S
C734   O797    1.280   .     A
C735   C747    1.402   .     A
C735   C762    1.420   .     A
C735   C744    1.478   .     S
C736   C810    1.343   .     S
C736   C828    1.490   .     S
C738   C741    1.452   .     S
C738   C958    1.332   .     S
C738   H997    1.088   .     S
C739   C740    1.437   .     S
C739   C1176   1.332   1_545 S
C739   H1218   1.086   1_545 S
C740   O792    1.279   .     A
C740   O798    1.278   .     A
C741   O793    1.268   .     A
C741   O799    1.269   .     A
C742   C747    1.387   .     A
C742   C96     1.391   1_556 S
C742   H128    1.083   1_556 S
C743   O790    1.266   .     A
C743   O788    1.273   .     A
C743   C746    1.449   .     S
C744   O789    1.285   .     A
C744   O791    1.286   .     A
C747   H783    1.083   .     S
C748   C754    1.407   .     A
C748   C749    1.407   .     A
C748   C88     1.488   1_556 S
C749   H769    1.083   .     S
C749   C750    1.398   .     A
C750   H770    1.082   .     S
C750   C824    1.397   .     S
C751   C752    1.397   .     A
C751   H771    1.082   .     S
C752   H772    1.081   .     S
C753   H784    1.076   .     S
C754   C825    1.399   .     S
C754   H116    1.083   1_556 S
C755   C756    1.405   .     A
C755   C760    1.407   .     A
C756   C757    1.399   .     A
C757   H775    1.083   .     S
C757   C758    1.397   .     A
C758   H776    1.082   .     S
C758   C759    1.398   .     A
C759   H777    1.082   .     S
C759   C760    1.399   .     A
C760   H779    1.083   .     S
C761   C762    1.421   .     A
C761   C96     1.418   1_556 S
C761   C106    1.428   1_556 S
C762   C766    1.407   .     A
C764   C765    1.398   .     A
C764   C88     1.420   1_556 S
C764   C106    1.429   1_556 S
C765   C766    1.382   .     A
C765   H781    1.082   .     S
C766   H786    1.080   .     S
H768   C810    1.086   .     S
H774   C829    1.083   .     S
H778   C1176   1.088   1_545 S
H780   C958    1.086   .     S
O787   Zn803   1.934   .     S
O787   Zn800   1.963   .     S
O787   Zn801   1.943   .     S
O787   Zn802   1.924   .     S
O788   Zn801   1.928   .     S
O789   Zn803   1.941   .     S
O790   Zn802   1.937   .     S
O791   Zn800   1.926   .     S
O792   Zn800   1.927   .     S
O793   Zn803   1.928   .     S
O794   Zn801   1.925   .     S
O795   Zn802   1.938   .     S
O796   Zn803   1.930   .     S
O797   Zn800   1.918   .     S
O798   Zn801   1.937   .     S
O799   Zn802   1.932   .     S
C804   O869    1.275   .     A
C804   O867    1.266   .     A
C804   C810    1.439   .     S
C805   C819    1.388   .     A
C805   H855    1.076   .     S
C805   C836    1.407   .     A
C806   C818    1.396   .     A
C806   H840    1.085   .     S
C806   C819    1.392   .     A
C807   O868    1.279   .     A
C807   C809    1.463   .     S
C807   O870    1.280   .     A
C808   C820    1.402   .     A
C808   C835    1.420   .     A
C808   C817    1.478   .     S
C809   C664    1.343   1_655 S
C809   C682    1.490   1_655 S
C811   C814    1.452   .     S
C811   C1031   1.332   .     S
C811   H1070   1.088   .     S
C812   C813    1.437   .     S
C812   C1249   1.332   1_545 S
C812   H1291   1.086   1_545 S
C813   O865    1.279   .     A
C813   O871    1.278   .     A
C814   O866    1.268   .     A
C814   O872    1.269   .     A
C815   C820    1.387   .     A
C815   C169    1.391   1_556 S
C815   H201    1.083   1_556 S
C816   O863    1.266   .     A
C816   O861    1.273   .     A
C816   C819    1.449   .     S
C817   O862    1.285   .     A
C817   O864    1.286   .     A
C820   H856    1.083   .     S
C821   C827    1.407   .     A
C821   C822    1.407   .     A
C821   C161    1.488   1_556 S
C822   H842    1.083   .     S
C822   C823    1.398   .     A
C823   H843    1.082   .     S
C823   C678    1.397   1_655 S
C824   C825    1.397   .     A
C824   H844    1.082   .     S
C825   H845    1.081   .     S
C826   H857    1.076   .     S
C827   C679    1.399   1_655 S
C827   H189    1.083   1_556 S
C828   C829    1.405   .     A
C828   C833    1.407   .     A
C829   C830    1.399   .     A
C830   H848    1.083   .     S
C830   C831    1.397   .     A
C831   H849    1.082   .     S
C831   C832    1.398   .     A
C832   H850    1.082   .     S
C832   C833    1.399   .     A
C833   H852    1.083   .     S
C834   C835    1.421   .     A
C834   C169    1.418   1_556 S
C834   C179    1.428   1_556 S
C835   C839    1.407   .     A
C837   C838    1.398   .     A
C837   C161    1.420   1_556 S
C837   C179    1.429   1_556 S
C838   C839    1.382   .     A
C838   H854    1.082   .     S
C839   H859    1.080   .     S
H841   C664    1.086   1_655 S
H847   C683    1.083   1_655 S
H851   C1249   1.088   1_545 S
H853   C1031   1.086   .     S
O860   Zn876   1.934   .     S
O860   Zn873   1.963   .     S
O860   Zn874   1.943   .     S
O860   Zn875   1.924   .     S
O861   Zn874   1.928   .     S
O862   Zn876   1.941   .     S
O863   Zn875   1.937   .     S
O864   Zn873   1.926   .     S
O865   Zn873   1.927   .     S
O866   Zn876   1.928   .     S
O867   Zn874   1.925   .     S
O868   Zn875   1.938   .     S
O869   Zn876   1.930   .     S
O870   Zn873   1.918   .     S
O871   Zn874   1.937   .     S
O872   Zn875   1.932   .     S
C877   O942    1.275   .     A
C877   O940    1.266   .     A
C877   C883    1.439   .     S
C878   C892    1.388   .     A
C878   H928    1.076   .     S
C878   C909    1.407   .     A
C879   C891    1.396   .     A
C879   H913    1.085   .     S
C879   C892    1.392   .     A
C880   O941    1.279   .     A
C880   C882    1.463   .     S
C880   O943    1.280   .     A
C881   C893    1.402   .     A
C881   C908    1.420   .     A
C881   C890    1.478   .     S
C882   C956    1.343   .     S
C882   C974    1.490   .     S
C883   C1028   1.343   1_455 S
C883   H1060   1.086   1_455 S
C884   C887    1.452   .     S
C884   C1104   1.332   .     S
C884   H1143   1.088   .     S
C885   C886    1.437   .     S
C886   O938    1.279   .     A
C886   O944    1.278   .     A
C887   O939    1.268   .     A
C887   O945    1.269   .     A
C888   C893    1.387   .     A
C888   C242    1.391   1_556 S
C888   H274    1.083   1_556 S
C889   O936    1.266   .     A
C889   O934    1.273   .     A
C889   C892    1.449   .     S
C890   O935    1.285   .     A
C890   O937    1.286   .     A
C893   H929    1.083   .     S
C894   C900    1.407   .     A
C894   C895    1.407   .     A
C894   C234    1.488   1_556 S
C895   H915    1.083   .     S
C895   C896    1.398   .     A
C896   H916    1.082   .     S
C896   C970    1.397   .     S
C897   C898    1.397   .     A
C897   H917    1.082   .     S
C897   C1042   1.397   1_455 S
C898   H918    1.081   .     S
C898   C1046   1.399   1_455 S
C899   H930    1.076   .     S
C900   C971    1.399   .     S
C900   H262    1.083   1_556 S
C901   C902    1.405   .     A
C901   C906    1.407   .     A
C901   C1028   1.490   1_455 S
C902   C903    1.399   .     A
C902   H1066   1.083   1_455 S
C903   H921    1.083   .     S
C903   C904    1.397   .     A
C904   H922    1.082   .     S
C904   C905    1.398   .     A
C905   H923    1.082   .     S
C905   C906    1.399   .     A
C906   H925    1.083   .     S
C907   C908    1.421   .     A
C907   C242    1.418   1_556 S
C907   C252    1.428   1_556 S
C908   C912    1.407   .     A
C910   C911    1.398   .     A
C910   C234    1.420   1_556 S
C910   C252    1.429   1_556 S
C911   C912    1.382   .     A
C911   H927    1.082   .     S
C912   H932    1.080   .     S
H914   C956    1.086   .     S
H920   C975    1.083   .     S
H926   C1104   1.086   .     S
O933   Zn949   1.934   .     S
O933   Zn946   1.963   .     S
O933   Zn947   1.943   .     S
O933   Zn948   1.924   .     S
O934   Zn947   1.928   .     S
O935   Zn949   1.941   .     S
O936   Zn948   1.937   .     S
O937   Zn946   1.926   .     S
O938   Zn946   1.927   .     S
O939   Zn949   1.928   .     S
O940   Zn947   1.925   .     S
O941   Zn948   1.938   .     S
O942   Zn949   1.930   .     S
O943   Zn946   1.918   .     S
O944   Zn947   1.937   .     S
O945   Zn948   1.932   .     S
C950   O1015   1.275   .     A
C950   O1013   1.266   .     A
C950   C956    1.439   .     S
C951   C965    1.388   .     A
C951   H1001   1.076   .     S
C951   C982    1.407   .     A
C952   C964    1.396   .     A
C952   H986    1.085   .     S
C952   C965    1.392   .     A
C953   O1014   1.279   .     A
C953   C955    1.463   .     S
C953   O1016   1.280   .     A
C954   C966    1.402   .     A
C954   C981    1.420   .     A
C954   C963    1.478   .     S
C955   C1029   1.343   .     S
C955   C1047   1.490   .     S
C957   C960    1.452   .     S
C957   C1177   1.332   .     S
C957   H1216   1.088   .     S
C958   C959    1.437   .     S
C959   O1011   1.279   .     A
C959   O1017   1.278   .     A
C960   O1012   1.268   .     A
C960   O1018   1.269   .     A
C961   C966    1.387   .     A
C961   C315    1.391   1_556 S
C961   H347    1.083   1_556 S
C962   O1009   1.266   .     A
C962   O1007   1.273   .     A
C962   C965    1.449   .     S
C963   O1008   1.285   .     A
C963   O1010   1.286   .     A
C966   H1002   1.083   .     S
C967   C973    1.407   .     A
C967   C968    1.407   .     A
C967   C307    1.488   1_556 S
C968   H988    1.083   .     S
C968   C969    1.398   .     A
C969   H989    1.082   .     S
C969   C1043   1.397   .     S
C970   C971    1.397   .     A
C970   H990    1.082   .     S
C971   H991    1.081   .     S
C972   H1003   1.076   .     S
C973   C1044   1.399   .     S
C973   H335    1.083   1_556 S
C974   C975    1.405   .     A
C974   C979    1.407   .     A
C975   C976    1.399   .     A
C976   H994    1.083   .     S
C976   C977    1.397   .     A
C977   H995    1.082   .     S
C977   C978    1.398   .     A
C978   H996    1.082   .     S
C978   C979    1.399   .     A
C979   H998    1.083   .     S
C980   C981    1.421   .     A
C980   C315    1.418   1_556 S
C980   C325    1.428   1_556 S
C981   C985    1.407   .     A
C983   C984    1.398   .     A
C983   C307    1.420   1_556 S
C983   C325    1.429   1_556 S
C984   C985    1.382   .     A
C984   H1000   1.082   .     S
C985   H1005   1.080   .     S
H987   C1029   1.086   .     S
H993   C1048   1.083   .     S
H999   C1177   1.086   .     S
O1006  Zn1022  1.934   .     S
O1006  Zn1019  1.963   .     S
O1006  Zn1020  1.943   .     S
O1006  Zn1021  1.924   .     S
O1007  Zn1020  1.928   .     S
O1008  Zn1022  1.941   .     S
O1009  Zn1021  1.937   .     S
O1010  Zn1019  1.926   .     S
O1011  Zn1019  1.927   .     S
O1012  Zn1022  1.928   .     S
O1013  Zn1020  1.925   .     S
O1014  Zn1021  1.938   .     S
O1015  Zn1022  1.930   .     S
O1016  Zn1019  1.918   .     S
O1017  Zn1020  1.937   .     S
O1018  Zn1021  1.932   .     S
C1023  O1088   1.275   .     A
C1023  O1086   1.266   .     A
C1023  C1029   1.439   .     S
C1024  C1038   1.388   .     A
C1024  H1074   1.076   .     S
C1024  C1055   1.407   .     A
C1025  C1037   1.396   .     A
C1025  H1059   1.085   .     S
C1025  C1038   1.392   .     A
C1026  O1087   1.279   .     A
C1026  C1028   1.463   .     S
C1026  O1089   1.280   .     A
C1027  C1039   1.402   .     A
C1027  C1054   1.420   .     A
C1027  C1036   1.478   .     S
C1028  C883    1.343   1_655 S
C1028  C901    1.490   1_655 S
C1030  C1033   1.452   .     S
C1030  C1250   1.332   .     S
C1030  H1289   1.088   .     S
C1031  C1032   1.437   .     S
C1032  O1084   1.279   .     A
C1032  O1090   1.278   .     A
C1033  O1085   1.268   .     A
C1033  O1091   1.269   .     A
C1034  C1039   1.387   .     A
C1034  C388    1.391   1_556 S
C1034  H420    1.083   1_556 S
C1035  O1082   1.266   .     A
C1035  O1080   1.273   .     A
C1035  C1038   1.449   .     S
C1036  O1081   1.285   .     A
C1036  O1083   1.286   .     A
C1039  H1075   1.083   .     S
C1040  C1046   1.407   .     A
C1040  C1041   1.407   .     A
C1040  C380    1.488   1_556 S
C1041  H1061   1.083   .     S
C1041  C1042   1.398   .     A
C1042  H1062   1.082   .     S
C1042  C897    1.397   1_655 S
C1043  C1044   1.397   .     A
C1043  H1063   1.082   .     S
C1044  H1064   1.081   .     S
C1045  H1076   1.076   .     S
C1046  C898    1.399   1_655 S
C1046  H408    1.083   1_556 S
C1047  C1048   1.405   .     A
C1047  C1052   1.407   .     A
C1048  C1049   1.399   .     A
C1049  H1067   1.083   .     S
C1049  C1050   1.397   .     A
C1050  H1068   1.082   .     S
C1050  C1051   1.398   .     A
C1051  H1069   1.082   .     S
C1051  C1052   1.399   .     A
C1052  H1071   1.083   .     S
C1053  C1054   1.421   .     A
C1053  C388    1.418   1_556 S
C1053  C398    1.428   1_556 S
C1054  C1058   1.407   .     A
C1056  C1057   1.398   .     A
C1056  C380    1.420   1_556 S
C1056  C398    1.429   1_556 S
C1057  C1058   1.382   .     A
C1057  H1073   1.082   .     S
C1058  H1078   1.080   .     S
H1060  C883    1.086   1_655 S
H1066  C902    1.083   1_655 S
H1072  C1250   1.086   .     S
O1079  Zn1095  1.934   .     S
O1079  Zn1092  1.963   .     S
O1079  Zn1093  1.943   .     S
O1079  Zn1094  1.924   .     S
O1080  Zn1093  1.928   .     S
O1081  Zn1095  1.941   .     S
O1082  Zn1094  1.937   .     S
O1083  Zn1092  1.926   .     S
O1084  Zn1092  1.927   .     S
O1085  Zn1095  1.928   .     S
O1086  Zn1093  1.925   .     S
O1087  Zn1094  1.938   .     S
O1088  Zn1095  1.930   .     S
O1089  Zn1092  1.918   .     S
O1090  Zn1093  1.937   .     S
O1091  Zn1094  1.932   .     S
C1096  O1161   1.275   .     A
C1096  O1159   1.266   .     A
C1096  C1102   1.439   .     S
C1097  C1111   1.388   .     A
C1097  H1147   1.076   .     S
C1097  C1128   1.407   .     A
C1098  C1110   1.396   .     A
C1098  H1132   1.085   .     S
C1098  C1111   1.392   .     A
C1099  O1160   1.279   .     A
C1099  C1101   1.463   .     S
C1099  O1162   1.280   .     A
C1100  C1112   1.402   .     A
C1100  C1127   1.420   .     A
C1100  C1109   1.478   .     S
C1101  C1175   1.343   .     S
C1101  C1193   1.490   .     S
C1102  C1247   1.343   1_455 S
C1102  H1279   1.086   1_455 S
C1103  C1106   1.452   .     S
C1103  C666    1.332   1_565 S
C1103  H705    1.088   1_565 S
C1104  C1105   1.437   .     S
C1105  O1157   1.279   .     A
C1105  O1163   1.278   .     A
C1106  O1158   1.268   .     A
C1106  O1164   1.269   .     A
C1107  C1112   1.387   .     A
C1107  C461    1.391   1_556 S
C1107  H493    1.083   1_556 S
C1108  O1155   1.266   .     A
C1108  O1153   1.273   .     A
C1108  C1111   1.449   .     S
C1109  O1154   1.285   .     A
C1109  O1156   1.286   .     A
C1112  H1148   1.083   .     S
C1113  C1119   1.407   .     A
C1113  C1114   1.407   .     A
C1113  C453    1.488   1_556 S
C1114  H1134   1.083   .     S
C1114  C1115   1.398   .     A
C1115  H1135   1.082   .     S
C1115  C1189   1.397   .     S
C1116  C1117   1.397   .     A
C1116  H1136   1.082   .     S
C1116  C1261   1.397   1_455 S
C1117  H1137   1.081   .     S
C1117  C1265   1.399   1_455 S
C1118  H1149   1.076   .     S
C1119  C1190   1.399   .     S
C1119  H481    1.083   1_556 S
C1120  C1121   1.405   .     A
C1120  C1125   1.407   .     A
C1120  C1247   1.490   1_455 S
C1121  C1122   1.399   .     A
C1121  H1285   1.083   1_455 S
C1122  H1140   1.083   .     S
C1122  C1123   1.397   .     A
C1123  H1141   1.082   .     S
C1123  C1124   1.398   .     A
C1124  H1142   1.082   .     S
C1124  C1125   1.399   .     A
C1125  H1144   1.083   .     S
C1126  C1127   1.421   .     A
C1126  C461    1.418   1_556 S
C1126  C471    1.428   1_556 S
C1127  C1131   1.407   .     A
C1129  C1130   1.398   .     A
C1129  C453    1.420   1_556 S
C1129  C471    1.429   1_556 S
C1130  C1131   1.382   .     A
C1130  H1146   1.082   .     S
C1131  H1151   1.080   .     S
H1133  C1175   1.086   .     S
H1139  C1194   1.083   .     S
H1145  C666    1.086   1_565 S
O1152  Zn1168  1.934   .     S
O1152  Zn1165  1.963   .     S
O1152  Zn1166  1.943   .     S
O1152  Zn1167  1.924   .     S
O1153  Zn1166  1.928   .     S
O1154  Zn1168  1.941   .     S
O1155  Zn1167  1.937   .     S
O1156  Zn1165  1.926   .     S
O1157  Zn1165  1.927   .     S
O1158  Zn1168  1.928   .     S
O1159  Zn1166  1.925   .     S
O1160  Zn1167  1.938   .     S
O1161  Zn1168  1.930   .     S
O1162  Zn1165  1.918   .     S
O1163  Zn1166  1.937   .     S
O1164  Zn1167  1.932   .     S
C1169  O1234   1.275   .     A
C1169  O1232   1.266   .     A
C1169  C1175   1.439   .     S
C1170  C1184   1.388   .     A
C1170  H1220   1.076   .     S
C1170  C1201   1.407   .     A
C1171  C1183   1.396   .     A
C1171  H1205   1.085   .     S
C1171  C1184   1.392   .     A
C1172  O1233   1.279   .     A
C1172  C1174   1.463   .     S
C1172  O1235   1.280   .     A
C1173  C1185   1.402   .     A
C1173  C1200   1.420   .     A
C1173  C1182   1.478   .     S
C1174  C1248   1.343   .     S
C1174  C1266   1.490   .     S
C1176  C1179   1.452   .     S
C1176  C739    1.332   1_565 S
C1176  H778    1.088   1_565 S
C1177  C1178   1.437   .     S
C1178  O1230   1.279   .     A
C1178  O1236   1.278   .     A
C1179  O1231   1.268   .     A
C1179  O1237   1.269   .     A
C1180  C1185   1.387   .     A
C1180  C534    1.391   1_556 S
C1180  H566    1.083   1_556 S
C1181  O1228   1.266   .     A
C1181  O1226   1.273   .     A
C1181  C1184   1.449   .     S
C1182  O1227   1.285   .     A
C1182  O1229   1.286   .     A
C1185  H1221   1.083   .     S
C1186  C1192   1.407   .     A
C1186  C1187   1.407   .     A
C1186  C526    1.488   1_556 S
C1187  H1207   1.083   .     S
C1187  C1188   1.398   .     A
C1188  H1208   1.082   .     S
C1188  C1262   1.397   .     S
C1189  C1190   1.397   .     A
C1189  H1209   1.082   .     S
C1190  H1210   1.081   .     S
C1191  H1222   1.076   .     S
C1192  C1263   1.399   .     S
C1192  H554    1.083   1_556 S
C1193  C1194   1.405   .     A
C1193  C1198   1.407   .     A
C1194  C1195   1.399   .     A
C1195  H1213   1.083   .     S
C1195  C1196   1.397   .     A
C1196  H1214   1.082   .     S
C1196  C1197   1.398   .     A
C1197  H1215   1.082   .     S
C1197  C1198   1.399   .     A
C1198  H1217   1.083   .     S
C1199  C1200   1.421   .     A
C1199  C534    1.418   1_556 S
C1199  C544    1.428   1_556 S
C1200  C1204   1.407   .     A
C1202  C1203   1.398   .     A
C1202  C526    1.420   1_556 S
C1202  C544    1.429   1_556 S
C1203  C1204   1.382   .     A
C1203  H1219   1.082   .     S
C1204  H1224   1.080   .     S
H1206  C1248   1.086   .     S
H1212  C1267   1.083   .     S
H1218  C739    1.086   1_565 S
O1225  Zn1241  1.934   .     S
O1225  Zn1238  1.963   .     S
O1225  Zn1239  1.943   .     S
O1225  Zn1240  1.924   .     S
O1226  Zn1239  1.928   .     S
O1227  Zn1241  1.941   .     S
O1228  Zn1240  1.937   .     S
O1229  Zn1238  1.926   .     S
O1230  Zn1238  1.927   .     S
O1231  Zn1241  1.928   .     S
O1232  Zn1239  1.925   .     S
O1233  Zn1240  1.938   .     S
O1234  Zn1241  1.930   .     S
O1235  Zn1238  1.918   .     S
O1236  Zn1239  1.937   .     S
O1237  Zn1240  1.932   .     S
C1242  O1307   1.275   .     A
C1242  O1305   1.266   .     A
C1242  C1248   1.439   .     S
C1243  C1257   1.388   .     A
C1243  H1293   1.076   .     S
C1243  C1274   1.407   .     A
C1244  C1256   1.396   .     A
C1244  H1278   1.085   .     S
C1244  C1257   1.392   .     A
C1245  O1306   1.279   .     A
C1245  C1247   1.463   .     S
C1245  O1308   1.280   .     A
C1246  C1258   1.402   .     A
C1246  C1273   1.420   .     A
C1246  C1255   1.478   .     S
C1247  C1102   1.343   1_655 S
C1247  C1120   1.490   1_655 S
C1249  C1252   1.452   .     S
C1249  C812    1.332   1_565 S
C1249  H851    1.088   1_565 S
C1250  C1251   1.437   .     S
C1251  O1303   1.279   .     A
C1251  O1309   1.278   .     A
C1252  O1304   1.268   .     A
C1252  O1310   1.269   .     A
C1253  C1258   1.387   .     A
C1253  C607    1.391   1_556 S
C1253  H639    1.083   1_556 S
C1254  O1301   1.266   .     A
C1254  O1299   1.273   .     A
C1254  C1257   1.449   .     S
C1255  O1300   1.285   .     A
C1255  O1302   1.286   .     A
C1258  H1294   1.083   .     S
C1259  C1265   1.407   .     A
C1259  C1260   1.407   .     A
C1259  C599    1.488   1_556 S
C1260  H1280   1.083   .     S
C1260  C1261   1.398   .     A
C1261  H1281   1.082   .     S
C1261  C1116   1.397   1_655 S
C1262  C1263   1.397   .     A
C1262  H1282   1.082   .     S
C1263  H1283   1.081   .     S
C1264  H1295   1.076   .     S
C1265  C1117   1.399   1_655 S
C1265  H627    1.083   1_556 S
C1266  C1267   1.405   .     A
C1266  C1271   1.407   .     A
C1267  C1268   1.399   .     A
C1268  H1286   1.083   .     S
C1268  C1269   1.397   .     A
C1269  H1287   1.082   .     S
C1269  C1270   1.398   .     A
C1270  H1288   1.082   .     S
C1270  C1271   1.399   .     A
C1271  H1290   1.083   .     S
C1272  C1273   1.421   .     A
C1272  C607    1.418   1_556 S
C1272  C617    1.428   1_556 S
C1273  C1277   1.407   .     A
C1275  C1276   1.398   .     A
C1275  C599    1.420   1_556 S
C1275  C617    1.429   1_556 S
C1276  C1277   1.382   .     A
C1276  H1292   1.082   .     S
C1277  H1297   1.080   .     S
H1279  C1102   1.086   1_655 S
H1285  C1121   1.083   1_655 S
H1291  C812    1.086   1_565 S
O1298  Zn1314  1.934   .     S
O1298  Zn1311  1.963   .     S
O1298  Zn1312  1.943   .     S
O1298  Zn1313  1.924   .     S
O1299  Zn1312  1.928   .     S
O1300  Zn1314  1.941   .     S
O1301  Zn1313  1.937   .     S
O1302  Zn1311  1.926   .     S
O1303  Zn1311  1.927   .     S
O1304  Zn1314  1.928   .     S
O1305  Zn1312  1.925   .     S
O1306  Zn1313  1.938   .     S
O1307  Zn1314  1.930   .     S
O1308  Zn1311  1.918   .     S
O1309  Zn1312  1.937   .     S
O1310  Zn1313  1.932   .     S
