data_str_m1_o10_o16_pcu_sym.76
_audit_creation_date              2020-01-03
_audit_creation_method            'Materials Studio'
_symmetry_space_group_name_H-M    'P1'
_symmetry_Int_Tables_number       1
_symmetry_cell_setting            triclinic
loop_
_symmetry_equiv_pos_as_xyz
  x,y,z
_cell_length_a                    32.5230
_cell_length_b                    32.5865
_cell_length_c                    31.0259
_cell_angle_alpha                 95.8847
_cell_angle_beta                  74.5644
_cell_angle_gamma                 98.7303
loop_
_atom_site_label
_atom_site_type_symbol
_atom_site_fract_x
_atom_site_fract_y
_atom_site_fract_z
_atom_site_U_iso_or_equiv
_atom_site_adp_type
_atom_site_occupancy
C1     C     0.05282   0.15969   0.25990   0.00000  Uiso   1.00
C2     C     0.16847   0.15619   0.05940   0.00000  Uiso   1.00
C3     C     0.23344   0.12613   0.05592   0.00000  Uiso   1.00
C4     C     0.28090   0.17384   0.23987   0.00000  Uiso   1.00
C5     C     0.13803   0.18809   0.42031   0.00000  Uiso   1.00
C6     C     0.32687   0.17652   0.23555   0.00000  Uiso   1.00
C7     C     0.00749   0.15722   0.26381   0.00000  Uiso   1.00
C8     C     0.18270   0.32298   0.23552   0.00000  Uiso   1.00
C9     C     0.15326   0.01179   0.26281   0.00000  Uiso   1.00
C10    C     0.15558   0.05598   0.26085   0.00000  Uiso   1.00
C11    C     0.17704   0.27807   0.23990   0.00000  Uiso   1.00
C12    C     0.07949   0.18510   0.48729   0.00000  Uiso   1.00
C13    C     0.18553   0.14844   0.12936   0.00000  Uiso   1.00
C14    C     0.14916   0.18498   0.37085   0.00000  Uiso   1.00
C15    C     0.24582   0.13015   0.00963   0.00000  Uiso   1.00
C16    C     0.19522   0.14146   0.08092   0.00000  Uiso   1.00
C17    C     0.09624   0.19525   0.44318   0.00000  Uiso   1.00
C18    C     0.26172   0.10713   0.07692   0.00000  Uiso   1.00
C19    C     0.22087   0.00814   0.20099   0.00000  Uiso   1.00
C20    C     0.28221   0.15977   0.41762   0.00000  Uiso   1.00
C21    C     0.07928   0.14508   0.04963   0.00000  Uiso   1.00
C22    C     0.10405   0.16759   0.00965   0.00000  Uiso   1.00
C23    C     0.14919   0.16693   0.48974   0.00000  Uiso   1.00
C24    C     0.16571   0.17691   0.44428   0.00000  Uiso   1.00
C25    C     0.17842   0.15608   0.01255   0.00000  Uiso   1.00
C26    C     0.22055   0.14826   0.48822   0.00000  Uiso   1.00
C27    C     0.23665   0.15992   0.44367   0.00000  Uiso   1.00
C28    C     0.20963   0.17564   0.42331   0.00000  Uiso   1.00
H29    H     0.31891   0.13957   0.29042   0.00000  Uiso   1.00
H30    H     0.24229   0.32130   0.17899   0.00000  Uiso   1.00
H31    H     0.28970   0.15555   0.38132   0.00000  Uiso   1.00
H32    H     0.03178   0.14478   0.10680   0.00000  Uiso   1.00
H33    H     0.12587   0.33031   0.28707   0.00000  Uiso   1.00
H34    H     0.27534   0.11898   0.49044   0.00000  Uiso   1.00
H35    H     0.14147   0.17061   0.08008   0.00000  Uiso   1.00
H36    H     0.07487   0.20470   0.42566   0.00000  Uiso   1.00
H37    H     0.04565   0.18700   0.00243   0.00000  Uiso   1.00
H38    H     0.22383   0.18791   0.39077   0.00000  Uiso   1.00
H39    H     0.01609   0.19423   0.20933   0.00000  Uiso   1.00
H40    H     0.31868   0.08610   0.06944   0.00000  Uiso   1.00
O41    O     0.16667   0.16667   0.25000   0.00000  Uiso   1.00
O42    O     0.15451   0.12637   0.15458   0.00000  Uiso   1.00
O43    O     0.12940   0.20391   0.34968   0.00000  Uiso   1.00
O44    O     0.20824   0.17759   0.14606   0.00000  Uiso   1.00
O45    O     0.17451   0.15880   0.34968   0.00000  Uiso   1.00
O46    O     0.24905   0.09711   0.11562   0.00000  Uiso   1.00
O47    O     0.30288   0.09979   0.05188   0.00000  Uiso   1.00
O48    O     0.22927   0.04552   0.19663   0.00000  Uiso   1.00
O49    O     0.31183   0.16697   0.43571   0.00000  Uiso   1.00
O50    O     0.08670   0.11036   0.05440   0.00000  Uiso   1.00
O51    O     0.04634   0.16303   0.08102   0.00000  Uiso   1.00
O52    O     0.17930   0.08019   0.28213   0.00000  Uiso   1.00
O53    O     0.14632   0.26085   0.27013   0.00000  Uiso   1.00
O54    O     0.07412   0.13291   0.23413   0.00000  Uiso   1.00
O55    O     0.26693   0.19272   0.21360   0.00000  Uiso   1.00
O56    O     0.07071   0.18878   0.28213   0.00000  Uiso   1.00
O57    O     0.25491   0.15226   0.27013   0.00000  Uiso   1.00
O58    O     0.13760   0.06944   0.23413   0.00000  Uiso   1.00
O59    O     0.20345   0.25620   0.21360   0.00000  Uiso   1.00
Zn60   Zn    0.19338   0.13994   0.28734   0.00000  Uiso   1.00
Zn61   Zn    0.13379   0.12458   0.21875   0.00000  Uiso   1.00
Zn62   Zn    0.21056   0.19775   0.20657   0.00000  Uiso   1.00
Zn63   Zn    0.12893   0.20439   0.28733   0.00000  Uiso   1.00
C64    C     0.38616   0.15969   0.25990   0.00000  Uiso   1.00
C65    C     0.50181   0.15619   0.05940   0.00000  Uiso   1.00
C66    C     0.56677   0.12613   0.05592   0.00000  Uiso   1.00
C67    C     0.61424   0.17384   0.23987   0.00000  Uiso   1.00
C68    C     0.47137   0.18809   0.42031   0.00000  Uiso   1.00
C69    C     0.66020   0.17652   0.23555   0.00000  Uiso   1.00
C70    C     0.34082   0.15722   0.26381   0.00000  Uiso   1.00
C71    C     0.51603   0.32298   0.23552   0.00000  Uiso   1.00
C72    C     0.48660   0.01179   0.26281   0.00000  Uiso   1.00
C73    C     0.48891   0.05598   0.26085   0.00000  Uiso   1.00
C74    C     0.51037   0.27807   0.23990   0.00000  Uiso   1.00
C75    C     0.41283   0.18510   0.48729   0.00000  Uiso   1.00
C76    C     0.51887   0.14844   0.12936   0.00000  Uiso   1.00
C77    C     0.48250   0.18498   0.37085   0.00000  Uiso   1.00
C78    C     0.57915   0.13015   0.00963   0.00000  Uiso   1.00
C79    C     0.52855   0.14146   0.08092   0.00000  Uiso   1.00
C80    C     0.42958   0.19525   0.44318   0.00000  Uiso   1.00
C81    C     0.59505   0.10713   0.07692   0.00000  Uiso   1.00
C82    C     0.55421   0.00814   0.20099   0.00000  Uiso   1.00
C83    C     0.61554   0.15977   0.41762   0.00000  Uiso   1.00
C84    C     0.41261   0.14508   0.04963   0.00000  Uiso   1.00
C85    C     0.43738   0.16759   0.00965   0.00000  Uiso   1.00
C86    C     0.48252   0.16693   0.48974   0.00000  Uiso   1.00
C87    C     0.49905   0.17691   0.44428   0.00000  Uiso   1.00
C88    C     0.51175   0.15608   0.01255   0.00000  Uiso   1.00
C89    C     0.55388   0.14826   0.48822   0.00000  Uiso   1.00
C90    C     0.56998   0.15992   0.44367   0.00000  Uiso   1.00
C91    C     0.54296   0.17564   0.42331   0.00000  Uiso   1.00
H92    H     0.65224   0.13957   0.29042   0.00000  Uiso   1.00
H93    H     0.57563   0.32130   0.17899   0.00000  Uiso   1.00
H94    H     0.62303   0.15555   0.38132   0.00000  Uiso   1.00
H95    H     0.36512   0.14478   0.10680   0.00000  Uiso   1.00
H96    H     0.45921   0.33031   0.28707   0.00000  Uiso   1.00
H97    H     0.60868   0.11898   0.49044   0.00000  Uiso   1.00
H98    H     0.47480   0.17061   0.08008   0.00000  Uiso   1.00
H99    H     0.40820   0.20470   0.42566   0.00000  Uiso   1.00
H100   H     0.37898   0.18700   0.00243   0.00000  Uiso   1.00
H101   H     0.55717   0.18791   0.39077   0.00000  Uiso   1.00
H102   H     0.34942   0.19423   0.20933   0.00000  Uiso   1.00
H103   H     0.65201   0.08610   0.06944   0.00000  Uiso   1.00
O104   O     0.50000   0.16667   0.25000   0.00000  Uiso   1.00
O105   O     0.48784   0.12637   0.15458   0.00000  Uiso   1.00
O106   O     0.46274   0.20391   0.34968   0.00000  Uiso   1.00
O107   O     0.54157   0.17759   0.14606   0.00000  Uiso   1.00
O108   O     0.50785   0.15880   0.34968   0.00000  Uiso   1.00
O109   O     0.58238   0.09711   0.11562   0.00000  Uiso   1.00
O110   O     0.63621   0.09979   0.05188   0.00000  Uiso   1.00
O111   O     0.56260   0.04552   0.19663   0.00000  Uiso   1.00
O112   O     0.64516   0.16697   0.43571   0.00000  Uiso   1.00
O113   O     0.42003   0.11036   0.05440   0.00000  Uiso   1.00
O114   O     0.37968   0.16303   0.08102   0.00000  Uiso   1.00
O115   O     0.51264   0.08019   0.28213   0.00000  Uiso   1.00
O116   O     0.47965   0.26085   0.27013   0.00000  Uiso   1.00
O117   O     0.40745   0.13291   0.23413   0.00000  Uiso   1.00
O118   O     0.60026   0.19272   0.21360   0.00000  Uiso   1.00
O119   O     0.40405   0.18878   0.28213   0.00000  Uiso   1.00
O120   O     0.58824   0.15226   0.27013   0.00000  Uiso   1.00
O121   O     0.47093   0.06944   0.23413   0.00000  Uiso   1.00
O122   O     0.53678   0.25620   0.21360   0.00000  Uiso   1.00
Zn123  Zn    0.52672   0.13994   0.28734   0.00000  Uiso   1.00
Zn124  Zn    0.46713   0.12458   0.21875   0.00000  Uiso   1.00
Zn125  Zn    0.54389   0.19775   0.20657   0.00000  Uiso   1.00
Zn126  Zn    0.46226   0.20439   0.28733   0.00000  Uiso   1.00
C127   C     0.71949   0.15969   0.25990   0.00000  Uiso   1.00
C128   C     0.83514   0.15619   0.05940   0.00000  Uiso   1.00
C129   C     0.90011   0.12613   0.05592   0.00000  Uiso   1.00
C130   C     0.94757   0.17384   0.23987   0.00000  Uiso   1.00
C131   C     0.80470   0.18809   0.42031   0.00000  Uiso   1.00
C132   C     0.99353   0.17652   0.23555   0.00000  Uiso   1.00
C133   C     0.67416   0.15722   0.26381   0.00000  Uiso   1.00
C134   C     0.84937   0.32298   0.23552   0.00000  Uiso   1.00
C135   C     0.81993   0.01179   0.26281   0.00000  Uiso   1.00
C136   C     0.82225   0.05598   0.26085   0.00000  Uiso   1.00
C137   C     0.84371   0.27807   0.23990   0.00000  Uiso   1.00
C138   C     0.74616   0.18510   0.48729   0.00000  Uiso   1.00
C139   C     0.85220   0.14844   0.12936   0.00000  Uiso   1.00
C140   C     0.81583   0.18498   0.37085   0.00000  Uiso   1.00
C141   C     0.91249   0.13015   0.00963   0.00000  Uiso   1.00
C142   C     0.86188   0.14146   0.08092   0.00000  Uiso   1.00
C143   C     0.76291   0.19525   0.44318   0.00000  Uiso   1.00
C144   C     0.92839   0.10713   0.07692   0.00000  Uiso   1.00
C145   C     0.88754   0.00814   0.20099   0.00000  Uiso   1.00
C146   C     0.94887   0.15977   0.41762   0.00000  Uiso   1.00
C147   C     0.74595   0.14508   0.04963   0.00000  Uiso   1.00
C148   C     0.77071   0.16759   0.00965   0.00000  Uiso   1.00
C149   C     0.81585   0.16693   0.48974   0.00000  Uiso   1.00
C150   C     0.83238   0.17691   0.44428   0.00000  Uiso   1.00
C151   C     0.84509   0.15608   0.01255   0.00000  Uiso   1.00
C152   C     0.88721   0.14826   0.48822   0.00000  Uiso   1.00
C153   C     0.90332   0.15992   0.44367   0.00000  Uiso   1.00
C154   C     0.87629   0.17564   0.42331   0.00000  Uiso   1.00
H155   H     0.98558   0.13957   0.29042   0.00000  Uiso   1.00
H156   H     0.90896   0.32130   0.17899   0.00000  Uiso   1.00
H157   H     0.95637   0.15555   0.38132   0.00000  Uiso   1.00
H158   H     0.69845   0.14478   0.10680   0.00000  Uiso   1.00
H159   H     0.79254   0.33031   0.28707   0.00000  Uiso   1.00
H160   H     0.94201   0.11898   0.49044   0.00000  Uiso   1.00
H161   H     0.80813   0.17061   0.08008   0.00000  Uiso   1.00
H162   H     0.74153   0.20470   0.42566   0.00000  Uiso   1.00
H163   H     0.71232   0.18700   0.00243   0.00000  Uiso   1.00
H164   H     0.89050   0.18791   0.39077   0.00000  Uiso   1.00
H165   H     0.68275   0.19423   0.20933   0.00000  Uiso   1.00
H166   H     0.98535   0.08610   0.06944   0.00000  Uiso   1.00
O167   O     0.83333   0.16667   0.25000   0.00000  Uiso   1.00
O168   O     0.82118   0.12637   0.15458   0.00000  Uiso   1.00
O169   O     0.79607   0.20391   0.34968   0.00000  Uiso   1.00
O170   O     0.87491   0.17759   0.14606   0.00000  Uiso   1.00
O171   O     0.84118   0.15880   0.34968   0.00000  Uiso   1.00
O172   O     0.91572   0.09711   0.11562   0.00000  Uiso   1.00
O173   O     0.96954   0.09979   0.05188   0.00000  Uiso   1.00
O174   O     0.89593   0.04552   0.19663   0.00000  Uiso   1.00
O175   O     0.97850   0.16697   0.43571   0.00000  Uiso   1.00
O176   O     0.75336   0.11036   0.05440   0.00000  Uiso   1.00
O177   O     0.71301   0.16303   0.08102   0.00000  Uiso   1.00
O178   O     0.84597   0.08019   0.28213   0.00000  Uiso   1.00
O179   O     0.81298   0.26085   0.27013   0.00000  Uiso   1.00
O180   O     0.74078   0.13291   0.23413   0.00000  Uiso   1.00
O181   O     0.93360   0.19272   0.21360   0.00000  Uiso   1.00
O182   O     0.73738   0.18878   0.28213   0.00000  Uiso   1.00
O183   O     0.92158   0.15226   0.27013   0.00000  Uiso   1.00
O184   O     0.80426   0.06944   0.23413   0.00000  Uiso   1.00
O185   O     0.87012   0.25620   0.21360   0.00000  Uiso   1.00
Zn186  Zn    0.86005   0.13994   0.28734   0.00000  Uiso   1.00
Zn187  Zn    0.80046   0.12458   0.21875   0.00000  Uiso   1.00
Zn188  Zn    0.87723   0.19775   0.20657   0.00000  Uiso   1.00
Zn189  Zn    0.79560   0.20439   0.28733   0.00000  Uiso   1.00
C190   C     0.05282   0.49303   0.25990   0.00000  Uiso   1.00
C191   C     0.16847   0.48952   0.05940   0.00000  Uiso   1.00
C192   C     0.23344   0.45946   0.05592   0.00000  Uiso   1.00
C193   C     0.28090   0.50717   0.23987   0.00000  Uiso   1.00
C194   C     0.13803   0.52142   0.42031   0.00000  Uiso   1.00
C195   C     0.32687   0.50986   0.23555   0.00000  Uiso   1.00
C196   C     0.00749   0.49055   0.26381   0.00000  Uiso   1.00
C197   C     0.18270   0.65632   0.23552   0.00000  Uiso   1.00
C198   C     0.15326   0.34512   0.26281   0.00000  Uiso   1.00
C199   C     0.15558   0.38931   0.26085   0.00000  Uiso   1.00
C200   C     0.17704   0.61140   0.23990   0.00000  Uiso   1.00
C201   C     0.07949   0.51843   0.48729   0.00000  Uiso   1.00
C202   C     0.18553   0.48177   0.12936   0.00000  Uiso   1.00
C203   C     0.14916   0.51832   0.37085   0.00000  Uiso   1.00
C204   C     0.24582   0.46348   0.00963   0.00000  Uiso   1.00
C205   C     0.19522   0.47479   0.08092   0.00000  Uiso   1.00
C206   C     0.09624   0.52858   0.44318   0.00000  Uiso   1.00
C207   C     0.26172   0.44046   0.07692   0.00000  Uiso   1.00
C208   C     0.22087   0.34147   0.20099   0.00000  Uiso   1.00
C209   C     0.28221   0.49310   0.41762   0.00000  Uiso   1.00
C210   C     0.07928   0.47841   0.04963   0.00000  Uiso   1.00
C211   C     0.10405   0.50092   0.00965   0.00000  Uiso   1.00
C212   C     0.14919   0.50026   0.48974   0.00000  Uiso   1.00
C213   C     0.16571   0.51025   0.44428   0.00000  Uiso   1.00
C214   C     0.17842   0.48942   0.01255   0.00000  Uiso   1.00
C215   C     0.22055   0.48160   0.48822   0.00000  Uiso   1.00
C216   C     0.23665   0.49326   0.44367   0.00000  Uiso   1.00
C217   C     0.20963   0.50897   0.42331   0.00000  Uiso   1.00
H218   H     0.31891   0.47290   0.29042   0.00000  Uiso   1.00
H219   H     0.24229   0.65464   0.17899   0.00000  Uiso   1.00
H220   H     0.28970   0.48889   0.38132   0.00000  Uiso   1.00
H221   H     0.03178   0.47811   0.10680   0.00000  Uiso   1.00
H222   H     0.12587   0.66364   0.28707   0.00000  Uiso   1.00
H223   H     0.27534   0.45231   0.49044   0.00000  Uiso   1.00
H224   H     0.14147   0.50394   0.08008   0.00000  Uiso   1.00
H225   H     0.07487   0.53804   0.42566   0.00000  Uiso   1.00
H226   H     0.04565   0.52033   0.00243   0.00000  Uiso   1.00
H227   H     0.22383   0.52125   0.39077   0.00000  Uiso   1.00
H228   H     0.01609   0.52756   0.20933   0.00000  Uiso   1.00
H229   H     0.31868   0.41943   0.06944   0.00000  Uiso   1.00
O230   O     0.16667   0.50000   0.25000   0.00000  Uiso   1.00
O231   O     0.15451   0.45970   0.15458   0.00000  Uiso   1.00
O232   O     0.12940   0.53724   0.34968   0.00000  Uiso   1.00
O233   O     0.20824   0.51092   0.14606   0.00000  Uiso   1.00
O234   O     0.17451   0.49213   0.34968   0.00000  Uiso   1.00
O235   O     0.24905   0.43044   0.11562   0.00000  Uiso   1.00
O236   O     0.30288   0.43312   0.05188   0.00000  Uiso   1.00
O237   O     0.22927   0.37885   0.19663   0.00000  Uiso   1.00
O238   O     0.31183   0.50030   0.43571   0.00000  Uiso   1.00
O239   O     0.08670   0.44369   0.05440   0.00000  Uiso   1.00
O240   O     0.04634   0.49636   0.08102   0.00000  Uiso   1.00
O241   O     0.17930   0.41352   0.28213   0.00000  Uiso   1.00
O242   O     0.14632   0.59418   0.27013   0.00000  Uiso   1.00
O243   O     0.07412   0.46625   0.23413   0.00000  Uiso   1.00
O244   O     0.26693   0.52605   0.21360   0.00000  Uiso   1.00
O245   O     0.07071   0.52211   0.28213   0.00000  Uiso   1.00
O246   O     0.25491   0.48559   0.27013   0.00000  Uiso   1.00
O247   O     0.13760   0.40277   0.23413   0.00000  Uiso   1.00
O248   O     0.20345   0.58953   0.21360   0.00000  Uiso   1.00
Zn249  Zn    0.19338   0.47327   0.28734   0.00000  Uiso   1.00
Zn250  Zn    0.13379   0.45791   0.21875   0.00000  Uiso   1.00
Zn251  Zn    0.21056   0.53109   0.20657   0.00000  Uiso   1.00
Zn252  Zn    0.12893   0.53773   0.28733   0.00000  Uiso   1.00
C253   C     0.38616   0.49303   0.25990   0.00000  Uiso   1.00
C254   C     0.50181   0.48952   0.05940   0.00000  Uiso   1.00
C255   C     0.56677   0.45946   0.05592   0.00000  Uiso   1.00
C256   C     0.61424   0.50717   0.23987   0.00000  Uiso   1.00
C257   C     0.47137   0.52142   0.42031   0.00000  Uiso   1.00
C258   C     0.66020   0.50986   0.23555   0.00000  Uiso   1.00
C259   C     0.34082   0.49055   0.26381   0.00000  Uiso   1.00
C260   C     0.51603   0.65632   0.23552   0.00000  Uiso   1.00
C261   C     0.48660   0.34512   0.26281   0.00000  Uiso   1.00
C262   C     0.48891   0.38931   0.26085   0.00000  Uiso   1.00
C263   C     0.51037   0.61140   0.23990   0.00000  Uiso   1.00
C264   C     0.41283   0.51843   0.48729   0.00000  Uiso   1.00
C265   C     0.51887   0.48177   0.12936   0.00000  Uiso   1.00
C266   C     0.48250   0.51832   0.37085   0.00000  Uiso   1.00
C267   C     0.57915   0.46348   0.00963   0.00000  Uiso   1.00
C268   C     0.52855   0.47479   0.08092   0.00000  Uiso   1.00
C269   C     0.42958   0.52858   0.44318   0.00000  Uiso   1.00
C270   C     0.59505   0.44046   0.07692   0.00000  Uiso   1.00
C271   C     0.55421   0.34147   0.20099   0.00000  Uiso   1.00
C272   C     0.61554   0.49310   0.41762   0.00000  Uiso   1.00
C273   C     0.41261   0.47841   0.04963   0.00000  Uiso   1.00
C274   C     0.43738   0.50092   0.00965   0.00000  Uiso   1.00
C275   C     0.48252   0.50026   0.48974   0.00000  Uiso   1.00
C276   C     0.49905   0.51025   0.44428   0.00000  Uiso   1.00
C277   C     0.51175   0.48942   0.01255   0.00000  Uiso   1.00
C278   C     0.55388   0.48160   0.48822   0.00000  Uiso   1.00
C279   C     0.56998   0.49326   0.44367   0.00000  Uiso   1.00
C280   C     0.54296   0.50897   0.42331   0.00000  Uiso   1.00
H281   H     0.65224   0.47290   0.29042   0.00000  Uiso   1.00
H282   H     0.57563   0.65464   0.17899   0.00000  Uiso   1.00
H283   H     0.62303   0.48889   0.38132   0.00000  Uiso   1.00
H284   H     0.36512   0.47811   0.10680   0.00000  Uiso   1.00
H285   H     0.45921   0.66364   0.28707   0.00000  Uiso   1.00
H286   H     0.60868   0.45231   0.49044   0.00000  Uiso   1.00
H287   H     0.47480   0.50394   0.08008   0.00000  Uiso   1.00
H288   H     0.40820   0.53804   0.42566   0.00000  Uiso   1.00
H289   H     0.37898   0.52033   0.00243   0.00000  Uiso   1.00
H290   H     0.55717   0.52125   0.39077   0.00000  Uiso   1.00
H291   H     0.34942   0.52756   0.20933   0.00000  Uiso   1.00
H292   H     0.65201   0.41943   0.06944   0.00000  Uiso   1.00
O293   O     0.50000   0.50000   0.25000   0.00000  Uiso   1.00
O294   O     0.48784   0.45970   0.15458   0.00000  Uiso   1.00
O295   O     0.46274   0.53724   0.34968   0.00000  Uiso   1.00
O296   O     0.54157   0.51092   0.14606   0.00000  Uiso   1.00
O297   O     0.50785   0.49213   0.34968   0.00000  Uiso   1.00
O298   O     0.58238   0.43044   0.11562   0.00000  Uiso   1.00
O299   O     0.63621   0.43312   0.05188   0.00000  Uiso   1.00
O300   O     0.56260   0.37885   0.19663   0.00000  Uiso   1.00
O301   O     0.64516   0.50030   0.43571   0.00000  Uiso   1.00
O302   O     0.42003   0.44369   0.05440   0.00000  Uiso   1.00
O303   O     0.37968   0.49636   0.08102   0.00000  Uiso   1.00
O304   O     0.51264   0.41352   0.28213   0.00000  Uiso   1.00
O305   O     0.47965   0.59418   0.27013   0.00000  Uiso   1.00
O306   O     0.40745   0.46625   0.23413   0.00000  Uiso   1.00
O307   O     0.60026   0.52605   0.21360   0.00000  Uiso   1.00
O308   O     0.40405   0.52211   0.28213   0.00000  Uiso   1.00
O309   O     0.58824   0.48559   0.27013   0.00000  Uiso   1.00
O310   O     0.47093   0.40277   0.23413   0.00000  Uiso   1.00
O311   O     0.53678   0.58953   0.21360   0.00000  Uiso   1.00
Zn312  Zn    0.52672   0.47327   0.28734   0.00000  Uiso   1.00
Zn313  Zn    0.46713   0.45791   0.21875   0.00000  Uiso   1.00
Zn314  Zn    0.54389   0.53109   0.20657   0.00000  Uiso   1.00
Zn315  Zn    0.46226   0.53773   0.28733   0.00000  Uiso   1.00
C316   C     0.71949   0.49303   0.25990   0.00000  Uiso   1.00
C317   C     0.83514   0.48952   0.05940   0.00000  Uiso   1.00
C318   C     0.90011   0.45946   0.05592   0.00000  Uiso   1.00
C319   C     0.94757   0.50717   0.23987   0.00000  Uiso   1.00
C320   C     0.80470   0.52142   0.42031   0.00000  Uiso   1.00
C321   C     0.99353   0.50986   0.23555   0.00000  Uiso   1.00
C322   C     0.67416   0.49055   0.26381   0.00000  Uiso   1.00
C323   C     0.84937   0.65632   0.23552   0.00000  Uiso   1.00
C324   C     0.81993   0.34512   0.26281   0.00000  Uiso   1.00
C325   C     0.82225   0.38931   0.26085   0.00000  Uiso   1.00
C326   C     0.84371   0.61140   0.23990   0.00000  Uiso   1.00
C327   C     0.74616   0.51843   0.48729   0.00000  Uiso   1.00
C328   C     0.85220   0.48177   0.12936   0.00000  Uiso   1.00
C329   C     0.81583   0.51832   0.37085   0.00000  Uiso   1.00
C330   C     0.91249   0.46348   0.00963   0.00000  Uiso   1.00
C331   C     0.86188   0.47479   0.08092   0.00000  Uiso   1.00
C332   C     0.76291   0.52858   0.44318   0.00000  Uiso   1.00
C333   C     0.92839   0.44046   0.07692   0.00000  Uiso   1.00
C334   C     0.88754   0.34147   0.20099   0.00000  Uiso   1.00
C335   C     0.94887   0.49310   0.41762   0.00000  Uiso   1.00
C336   C     0.74595   0.47841   0.04963   0.00000  Uiso   1.00
C337   C     0.77071   0.50092   0.00965   0.00000  Uiso   1.00
C338   C     0.81585   0.50026   0.48974   0.00000  Uiso   1.00
C339   C     0.83238   0.51025   0.44428   0.00000  Uiso   1.00
C340   C     0.84509   0.48942   0.01255   0.00000  Uiso   1.00
C341   C     0.88721   0.48160   0.48822   0.00000  Uiso   1.00
C342   C     0.90332   0.49326   0.44367   0.00000  Uiso   1.00
C343   C     0.87629   0.50897   0.42331   0.00000  Uiso   1.00
H344   H     0.98558   0.47290   0.29042   0.00000  Uiso   1.00
H345   H     0.90896   0.65464   0.17899   0.00000  Uiso   1.00
H346   H     0.95637   0.48889   0.38132   0.00000  Uiso   1.00
H347   H     0.69845   0.47811   0.10680   0.00000  Uiso   1.00
H348   H     0.79254   0.66364   0.28707   0.00000  Uiso   1.00
H349   H     0.94201   0.45231   0.49044   0.00000  Uiso   1.00
H350   H     0.80813   0.50394   0.08008   0.00000  Uiso   1.00
H351   H     0.74153   0.53804   0.42566   0.00000  Uiso   1.00
H352   H     0.71232   0.52033   0.00243   0.00000  Uiso   1.00
H353   H     0.89050   0.52125   0.39077   0.00000  Uiso   1.00
H354   H     0.68275   0.52756   0.20933   0.00000  Uiso   1.00
H355   H     0.98535   0.41943   0.06944   0.00000  Uiso   1.00
O356   O     0.83333   0.50000   0.25000   0.00000  Uiso   1.00
O357   O     0.82118   0.45970   0.15458   0.00000  Uiso   1.00
O358   O     0.79607   0.53724   0.34968   0.00000  Uiso   1.00
O359   O     0.87491   0.51092   0.14606   0.00000  Uiso   1.00
O360   O     0.84118   0.49213   0.34968   0.00000  Uiso   1.00
O361   O     0.91572   0.43044   0.11562   0.00000  Uiso   1.00
O362   O     0.96954   0.43312   0.05188   0.00000  Uiso   1.00
O363   O     0.89593   0.37885   0.19663   0.00000  Uiso   1.00
O364   O     0.97850   0.50030   0.43571   0.00000  Uiso   1.00
O365   O     0.75336   0.44369   0.05440   0.00000  Uiso   1.00
O366   O     0.71301   0.49636   0.08102   0.00000  Uiso   1.00
O367   O     0.84597   0.41352   0.28213   0.00000  Uiso   1.00
O368   O     0.81298   0.59418   0.27013   0.00000  Uiso   1.00
O369   O     0.74078   0.46625   0.23413   0.00000  Uiso   1.00
O370   O     0.93360   0.52605   0.21360   0.00000  Uiso   1.00
O371   O     0.73738   0.52211   0.28213   0.00000  Uiso   1.00
O372   O     0.92158   0.48559   0.27013   0.00000  Uiso   1.00
O373   O     0.80426   0.40277   0.23413   0.00000  Uiso   1.00
O374   O     0.87012   0.58953   0.21360   0.00000  Uiso   1.00
Zn375  Zn    0.86005   0.47327   0.28734   0.00000  Uiso   1.00
Zn376  Zn    0.80046   0.45791   0.21875   0.00000  Uiso   1.00
Zn377  Zn    0.87723   0.53109   0.20657   0.00000  Uiso   1.00
Zn378  Zn    0.79560   0.53773   0.28733   0.00000  Uiso   1.00
C379   C     0.05282   0.82636   0.25990   0.00000  Uiso   1.00
C380   C     0.16847   0.82285   0.05940   0.00000  Uiso   1.00
C381   C     0.23344   0.79279   0.05592   0.00000  Uiso   1.00
C382   C     0.28090   0.84050   0.23987   0.00000  Uiso   1.00
C383   C     0.13803   0.85476   0.42031   0.00000  Uiso   1.00
C384   C     0.32687   0.84319   0.23555   0.00000  Uiso   1.00
C385   C     0.00749   0.82389   0.26381   0.00000  Uiso   1.00
C386   C     0.18270   0.98965   0.23552   0.00000  Uiso   1.00
C387   C     0.15326   0.67846   0.26281   0.00000  Uiso   1.00
C388   C     0.15558   0.72264   0.26085   0.00000  Uiso   1.00
C389   C     0.17704   0.94474   0.23990   0.00000  Uiso   1.00
C390   C     0.07949   0.85177   0.48729   0.00000  Uiso   1.00
C391   C     0.18553   0.81510   0.12936   0.00000  Uiso   1.00
C392   C     0.14916   0.85165   0.37085   0.00000  Uiso   1.00
C393   C     0.24582   0.79681   0.00963   0.00000  Uiso   1.00
C394   C     0.19522   0.80812   0.08092   0.00000  Uiso   1.00
C395   C     0.09624   0.86192   0.44318   0.00000  Uiso   1.00
C396   C     0.26172   0.77379   0.07692   0.00000  Uiso   1.00
C397   C     0.22087   0.67480   0.20099   0.00000  Uiso   1.00
C398   C     0.28221   0.82644   0.41762   0.00000  Uiso   1.00
C399   C     0.07928   0.81174   0.04963   0.00000  Uiso   1.00
C400   C     0.10405   0.83425   0.00965   0.00000  Uiso   1.00
C401   C     0.14919   0.83360   0.48974   0.00000  Uiso   1.00
C402   C     0.16571   0.84358   0.44428   0.00000  Uiso   1.00
C403   C     0.17842   0.82275   0.01255   0.00000  Uiso   1.00
C404   C     0.22055   0.81493   0.48822   0.00000  Uiso   1.00
C405   C     0.23665   0.82659   0.44367   0.00000  Uiso   1.00
C406   C     0.20963   0.84231   0.42331   0.00000  Uiso   1.00
H407   H     0.31891   0.80623   0.29042   0.00000  Uiso   1.00
H408   H     0.24229   0.98797   0.17899   0.00000  Uiso   1.00
H409   H     0.28970   0.82222   0.38132   0.00000  Uiso   1.00
H410   H     0.03178   0.81145   0.10680   0.00000  Uiso   1.00
H411   H     0.12587   0.99697   0.28707   0.00000  Uiso   1.00
H412   H     0.27534   0.78564   0.49044   0.00000  Uiso   1.00
H413   H     0.14147   0.83727   0.08008   0.00000  Uiso   1.00
H414   H     0.07487   0.87137   0.42566   0.00000  Uiso   1.00
H415   H     0.04565   0.85366   0.00243   0.00000  Uiso   1.00
H416   H     0.22383   0.85458   0.39077   0.00000  Uiso   1.00
H417   H     0.01609   0.86090   0.20933   0.00000  Uiso   1.00
H418   H     0.31868   0.75277   0.06944   0.00000  Uiso   1.00
O419   O     0.16667   0.83333   0.25000   0.00000  Uiso   1.00
O420   O     0.15451   0.79304   0.15458   0.00000  Uiso   1.00
O421   O     0.12940   0.87058   0.34968   0.00000  Uiso   1.00
O422   O     0.20824   0.84425   0.14606   0.00000  Uiso   1.00
O423   O     0.17451   0.82546   0.34968   0.00000  Uiso   1.00
O424   O     0.24905   0.76378   0.11562   0.00000  Uiso   1.00
O425   O     0.30288   0.76645   0.05188   0.00000  Uiso   1.00
O426   O     0.22927   0.71218   0.19663   0.00000  Uiso   1.00
O427   O     0.31183   0.83363   0.43571   0.00000  Uiso   1.00
O428   O     0.08670   0.77703   0.05440   0.00000  Uiso   1.00
O429   O     0.04634   0.82969   0.08102   0.00000  Uiso   1.00
O430   O     0.17930   0.74686   0.28213   0.00000  Uiso   1.00
O431   O     0.14632   0.92751   0.27013   0.00000  Uiso   1.00
O432   O     0.07412   0.79958   0.23413   0.00000  Uiso   1.00
O433   O     0.26693   0.85939   0.21360   0.00000  Uiso   1.00
O434   O     0.07071   0.85544   0.28213   0.00000  Uiso   1.00
O435   O     0.25491   0.81892   0.27013   0.00000  Uiso   1.00
O436   O     0.13760   0.73610   0.23413   0.00000  Uiso   1.00
O437   O     0.20345   0.92286   0.21360   0.00000  Uiso   1.00
Zn438  Zn    0.19338   0.80661   0.28734   0.00000  Uiso   1.00
Zn439  Zn    0.13379   0.79124   0.21875   0.00000  Uiso   1.00
Zn440  Zn    0.21056   0.86442   0.20657   0.00000  Uiso   1.00
Zn441  Zn    0.12893   0.87106   0.28733   0.00000  Uiso   1.00
C442   C     0.38616   0.82636   0.25990   0.00000  Uiso   1.00
C443   C     0.50181   0.82285   0.05940   0.00000  Uiso   1.00
C444   C     0.56677   0.79279   0.05592   0.00000  Uiso   1.00
C445   C     0.61424   0.84050   0.23987   0.00000  Uiso   1.00
C446   C     0.47137   0.85476   0.42031   0.00000  Uiso   1.00
C447   C     0.66020   0.84319   0.23555   0.00000  Uiso   1.00
C448   C     0.34082   0.82389   0.26381   0.00000  Uiso   1.00
C449   C     0.51603   0.98965   0.23552   0.00000  Uiso   1.00
C450   C     0.48660   0.67846   0.26281   0.00000  Uiso   1.00
C451   C     0.48891   0.72264   0.26085   0.00000  Uiso   1.00
C452   C     0.51037   0.94474   0.23990   0.00000  Uiso   1.00
C453   C     0.41283   0.85177   0.48729   0.00000  Uiso   1.00
C454   C     0.51887   0.81510   0.12936   0.00000  Uiso   1.00
C455   C     0.48250   0.85165   0.37085   0.00000  Uiso   1.00
C456   C     0.57915   0.79681   0.00963   0.00000  Uiso   1.00
C457   C     0.52855   0.80812   0.08092   0.00000  Uiso   1.00
C458   C     0.42958   0.86192   0.44318   0.00000  Uiso   1.00
C459   C     0.59505   0.77379   0.07692   0.00000  Uiso   1.00
C460   C     0.55421   0.67480   0.20099   0.00000  Uiso   1.00
C461   C     0.61554   0.82644   0.41762   0.00000  Uiso   1.00
C462   C     0.41261   0.81174   0.04963   0.00000  Uiso   1.00
C463   C     0.43738   0.83425   0.00965   0.00000  Uiso   1.00
C464   C     0.48252   0.83360   0.48974   0.00000  Uiso   1.00
C465   C     0.49905   0.84358   0.44428   0.00000  Uiso   1.00
C466   C     0.51175   0.82275   0.01255   0.00000  Uiso   1.00
C467   C     0.55388   0.81493   0.48822   0.00000  Uiso   1.00
C468   C     0.56998   0.82659   0.44367   0.00000  Uiso   1.00
C469   C     0.54296   0.84231   0.42331   0.00000  Uiso   1.00
H470   H     0.65224   0.80623   0.29042   0.00000  Uiso   1.00
H471   H     0.57563   0.98797   0.17899   0.00000  Uiso   1.00
H472   H     0.62303   0.82222   0.38132   0.00000  Uiso   1.00
H473   H     0.36512   0.81145   0.10680   0.00000  Uiso   1.00
H474   H     0.45921   0.99697   0.28707   0.00000  Uiso   1.00
H475   H     0.60868   0.78564   0.49044   0.00000  Uiso   1.00
H476   H     0.47480   0.83727   0.08008   0.00000  Uiso   1.00
H477   H     0.40820   0.87137   0.42566   0.00000  Uiso   1.00
H478   H     0.37898   0.85366   0.00243   0.00000  Uiso   1.00
H479   H     0.55717   0.85458   0.39077   0.00000  Uiso   1.00
H480   H     0.34942   0.86090   0.20933   0.00000  Uiso   1.00
H481   H     0.65201   0.75277   0.06944   0.00000  Uiso   1.00
O482   O     0.50000   0.83333   0.25000   0.00000  Uiso   1.00
O483   O     0.48784   0.79304   0.15458   0.00000  Uiso   1.00
O484   O     0.46274   0.87058   0.34968   0.00000  Uiso   1.00
O485   O     0.54157   0.84425   0.14606   0.00000  Uiso   1.00
O486   O     0.50785   0.82546   0.34968   0.00000  Uiso   1.00
O487   O     0.58238   0.76378   0.11562   0.00000  Uiso   1.00
O488   O     0.63621   0.76645   0.05188   0.00000  Uiso   1.00
O489   O     0.56260   0.71218   0.19663   0.00000  Uiso   1.00
O490   O     0.64516   0.83363   0.43571   0.00000  Uiso   1.00
O491   O     0.42003   0.77703   0.05440   0.00000  Uiso   1.00
O492   O     0.37968   0.82969   0.08102   0.00000  Uiso   1.00
O493   O     0.51264   0.74686   0.28213   0.00000  Uiso   1.00
O494   O     0.47965   0.92751   0.27013   0.00000  Uiso   1.00
O495   O     0.40745   0.79958   0.23413   0.00000  Uiso   1.00
O496   O     0.60026   0.85939   0.21360   0.00000  Uiso   1.00
O497   O     0.40405   0.85544   0.28213   0.00000  Uiso   1.00
O498   O     0.58824   0.81892   0.27013   0.00000  Uiso   1.00
O499   O     0.47093   0.73610   0.23413   0.00000  Uiso   1.00
O500   O     0.53678   0.92286   0.21360   0.00000  Uiso   1.00
Zn501  Zn    0.52672   0.80661   0.28734   0.00000  Uiso   1.00
Zn502  Zn    0.46713   0.79124   0.21875   0.00000  Uiso   1.00
Zn503  Zn    0.54389   0.86442   0.20657   0.00000  Uiso   1.00
Zn504  Zn    0.46226   0.87106   0.28733   0.00000  Uiso   1.00
C505   C     0.71949   0.82636   0.25990   0.00000  Uiso   1.00
C506   C     0.83514   0.82285   0.05940   0.00000  Uiso   1.00
C507   C     0.90011   0.79279   0.05592   0.00000  Uiso   1.00
C508   C     0.94757   0.84050   0.23987   0.00000  Uiso   1.00
C509   C     0.80470   0.85476   0.42031   0.00000  Uiso   1.00
C510   C     0.99353   0.84319   0.23555   0.00000  Uiso   1.00
C511   C     0.67416   0.82389   0.26381   0.00000  Uiso   1.00
C512   C     0.84937   0.98965   0.23552   0.00000  Uiso   1.00
C513   C     0.81993   0.67846   0.26281   0.00000  Uiso   1.00
C514   C     0.82225   0.72264   0.26085   0.00000  Uiso   1.00
C515   C     0.84371   0.94474   0.23990   0.00000  Uiso   1.00
C516   C     0.74616   0.85177   0.48729   0.00000  Uiso   1.00
C517   C     0.85220   0.81510   0.12936   0.00000  Uiso   1.00
C518   C     0.81583   0.85165   0.37085   0.00000  Uiso   1.00
C519   C     0.91249   0.79681   0.00963   0.00000  Uiso   1.00
C520   C     0.86188   0.80812   0.08092   0.00000  Uiso   1.00
C521   C     0.76291   0.86192   0.44318   0.00000  Uiso   1.00
C522   C     0.92839   0.77379   0.07692   0.00000  Uiso   1.00
C523   C     0.88754   0.67480   0.20099   0.00000  Uiso   1.00
C524   C     0.94887   0.82644   0.41762   0.00000  Uiso   1.00
C525   C     0.74595   0.81174   0.04963   0.00000  Uiso   1.00
C526   C     0.77071   0.83425   0.00965   0.00000  Uiso   1.00
C527   C     0.81585   0.83360   0.48974   0.00000  Uiso   1.00
C528   C     0.83238   0.84358   0.44428   0.00000  Uiso   1.00
C529   C     0.84509   0.82275   0.01255   0.00000  Uiso   1.00
C530   C     0.88721   0.81493   0.48822   0.00000  Uiso   1.00
C531   C     0.90332   0.82659   0.44367   0.00000  Uiso   1.00
C532   C     0.87629   0.84231   0.42331   0.00000  Uiso   1.00
H533   H     0.98558   0.80623   0.29042   0.00000  Uiso   1.00
H534   H     0.90896   0.98797   0.17899   0.00000  Uiso   1.00
H535   H     0.95637   0.82222   0.38132   0.00000  Uiso   1.00
H536   H     0.69845   0.81145   0.10680   0.00000  Uiso   1.00
H537   H     0.79254   0.99697   0.28707   0.00000  Uiso   1.00
H538   H     0.94201   0.78564   0.49044   0.00000  Uiso   1.00
H539   H     0.80813   0.83727   0.08008   0.00000  Uiso   1.00
H540   H     0.74153   0.87137   0.42566   0.00000  Uiso   1.00
H541   H     0.71232   0.85366   0.00243   0.00000  Uiso   1.00
H542   H     0.89050   0.85458   0.39077   0.00000  Uiso   1.00
H543   H     0.68275   0.86090   0.20933   0.00000  Uiso   1.00
H544   H     0.98535   0.75277   0.06944   0.00000  Uiso   1.00
O545   O     0.83333   0.83333   0.25000   0.00000  Uiso   1.00
O546   O     0.82118   0.79304   0.15458   0.00000  Uiso   1.00
O547   O     0.79607   0.87058   0.34968   0.00000  Uiso   1.00
O548   O     0.87491   0.84425   0.14606   0.00000  Uiso   1.00
O549   O     0.84118   0.82546   0.34968   0.00000  Uiso   1.00
O550   O     0.91572   0.76378   0.11562   0.00000  Uiso   1.00
O551   O     0.96954   0.76645   0.05188   0.00000  Uiso   1.00
O552   O     0.89593   0.71218   0.19663   0.00000  Uiso   1.00
O553   O     0.97850   0.83363   0.43571   0.00000  Uiso   1.00
O554   O     0.75336   0.77703   0.05440   0.00000  Uiso   1.00
O555   O     0.71301   0.82969   0.08102   0.00000  Uiso   1.00
O556   O     0.84597   0.74686   0.28213   0.00000  Uiso   1.00
O557   O     0.81298   0.92751   0.27013   0.00000  Uiso   1.00
O558   O     0.74078   0.79958   0.23413   0.00000  Uiso   1.00
O559   O     0.93360   0.85939   0.21360   0.00000  Uiso   1.00
O560   O     0.73738   0.85544   0.28213   0.00000  Uiso   1.00
O561   O     0.92158   0.81892   0.27013   0.00000  Uiso   1.00
O562   O     0.80426   0.73610   0.23413   0.00000  Uiso   1.00
O563   O     0.87012   0.92286   0.21360   0.00000  Uiso   1.00
Zn564  Zn    0.86005   0.80661   0.28734   0.00000  Uiso   1.00
Zn565  Zn    0.80046   0.79124   0.21875   0.00000  Uiso   1.00
Zn566  Zn    0.87723   0.86442   0.20657   0.00000  Uiso   1.00
Zn567  Zn    0.79560   0.87106   0.28733   0.00000  Uiso   1.00
C568   C     0.05282   0.15969   0.75990   0.00000  Uiso   1.00
C569   C     0.16847   0.15619   0.55940   0.00000  Uiso   1.00
C570   C     0.23344   0.12613   0.55592   0.00000  Uiso   1.00
C571   C     0.28090   0.17384   0.73987   0.00000  Uiso   1.00
C572   C     0.13803   0.18809   0.92031   0.00000  Uiso   1.00
C573   C     0.32687   0.17652   0.73555   0.00000  Uiso   1.00
C574   C     0.00749   0.15722   0.76381   0.00000  Uiso   1.00
C575   C     0.18270   0.32298   0.73552   0.00000  Uiso   1.00
C576   C     0.15326   0.01179   0.76281   0.00000  Uiso   1.00
C577   C     0.15558   0.05598   0.76085   0.00000  Uiso   1.00
C578   C     0.17704   0.27807   0.73990   0.00000  Uiso   1.00
C579   C     0.07949   0.18510   0.98729   0.00000  Uiso   1.00
C580   C     0.18553   0.14844   0.62936   0.00000  Uiso   1.00
C581   C     0.14916   0.18498   0.87085   0.00000  Uiso   1.00
C582   C     0.24582   0.13015   0.50963   0.00000  Uiso   1.00
C583   C     0.19522   0.14146   0.58092   0.00000  Uiso   1.00
C584   C     0.09624   0.19525   0.94318   0.00000  Uiso   1.00
C585   C     0.26172   0.10713   0.57692   0.00000  Uiso   1.00
C586   C     0.22087   0.00814   0.70099   0.00000  Uiso   1.00
C587   C     0.28221   0.15977   0.91762   0.00000  Uiso   1.00
C588   C     0.07928   0.14508   0.54963   0.00000  Uiso   1.00
C589   C     0.10405   0.16759   0.50965   0.00000  Uiso   1.00
C590   C     0.14919   0.16693   0.98974   0.00000  Uiso   1.00
C591   C     0.16571   0.17691   0.94428   0.00000  Uiso   1.00
C592   C     0.17842   0.15608   0.51255   0.00000  Uiso   1.00
C593   C     0.22055   0.14826   0.98822   0.00000  Uiso   1.00
C594   C     0.23665   0.15992   0.94367   0.00000  Uiso   1.00
C595   C     0.20963   0.17564   0.92331   0.00000  Uiso   1.00
H596   H     0.31891   0.13957   0.79042   0.00000  Uiso   1.00
H597   H     0.24229   0.32130   0.67899   0.00000  Uiso   1.00
H598   H     0.28970   0.15555   0.88132   0.00000  Uiso   1.00
H599   H     0.03178   0.14478   0.60680   0.00000  Uiso   1.00
H600   H     0.12587   0.33031   0.78707   0.00000  Uiso   1.00
H601   H     0.27534   0.11898   0.99044   0.00000  Uiso   1.00
H602   H     0.14147   0.17061   0.58008   0.00000  Uiso   1.00
H603   H     0.07487   0.20470   0.92566   0.00000  Uiso   1.00
H604   H     0.04565   0.18700   0.50243   0.00000  Uiso   1.00
H605   H     0.22383   0.18791   0.89077   0.00000  Uiso   1.00
H606   H     0.01609   0.19423   0.70933   0.00000  Uiso   1.00
H607   H     0.31868   0.08610   0.56944   0.00000  Uiso   1.00
O608   O     0.16667   0.16667   0.75000   0.00000  Uiso   1.00
O609   O     0.15451   0.12637   0.65458   0.00000  Uiso   1.00
O610   O     0.12940   0.20391   0.84968   0.00000  Uiso   1.00
O611   O     0.20824   0.17759   0.64606   0.00000  Uiso   1.00
O612   O     0.17451   0.15880   0.84968   0.00000  Uiso   1.00
O613   O     0.24905   0.09711   0.61562   0.00000  Uiso   1.00
O614   O     0.30288   0.09979   0.55188   0.00000  Uiso   1.00
O615   O     0.22927   0.04552   0.69663   0.00000  Uiso   1.00
O616   O     0.31183   0.16697   0.93571   0.00000  Uiso   1.00
O617   O     0.08670   0.11036   0.55440   0.00000  Uiso   1.00
O618   O     0.04634   0.16303   0.58102   0.00000  Uiso   1.00
O619   O     0.17930   0.08019   0.78213   0.00000  Uiso   1.00
O620   O     0.14632   0.26085   0.77013   0.00000  Uiso   1.00
O621   O     0.07412   0.13291   0.73413   0.00000  Uiso   1.00
O622   O     0.26693   0.19272   0.71360   0.00000  Uiso   1.00
O623   O     0.07071   0.18878   0.78213   0.00000  Uiso   1.00
O624   O     0.25491   0.15226   0.77013   0.00000  Uiso   1.00
O625   O     0.13760   0.06944   0.73413   0.00000  Uiso   1.00
O626   O     0.20345   0.25620   0.71360   0.00000  Uiso   1.00
Zn627  Zn    0.19338   0.13994   0.78734   0.00000  Uiso   1.00
Zn628  Zn    0.13379   0.12458   0.71875   0.00000  Uiso   1.00
Zn629  Zn    0.21056   0.19775   0.70657   0.00000  Uiso   1.00
Zn630  Zn    0.12893   0.20439   0.78733   0.00000  Uiso   1.00
C631   C     0.38616   0.15969   0.75990   0.00000  Uiso   1.00
C632   C     0.50181   0.15619   0.55940   0.00000  Uiso   1.00
C633   C     0.56677   0.12613   0.55592   0.00000  Uiso   1.00
C634   C     0.61424   0.17384   0.73987   0.00000  Uiso   1.00
C635   C     0.47137   0.18809   0.92031   0.00000  Uiso   1.00
C636   C     0.66020   0.17652   0.73555   0.00000  Uiso   1.00
C637   C     0.34082   0.15722   0.76381   0.00000  Uiso   1.00
C638   C     0.51603   0.32298   0.73552   0.00000  Uiso   1.00
C639   C     0.48660   0.01179   0.76281   0.00000  Uiso   1.00
C640   C     0.48891   0.05598   0.76085   0.00000  Uiso   1.00
C641   C     0.51037   0.27807   0.73990   0.00000  Uiso   1.00
C642   C     0.41283   0.18510   0.98729   0.00000  Uiso   1.00
C643   C     0.51887   0.14844   0.62936   0.00000  Uiso   1.00
C644   C     0.48250   0.18498   0.87085   0.00000  Uiso   1.00
C645   C     0.57915   0.13015   0.50963   0.00000  Uiso   1.00
C646   C     0.52855   0.14146   0.58092   0.00000  Uiso   1.00
C647   C     0.42958   0.19525   0.94318   0.00000  Uiso   1.00
C648   C     0.59505   0.10713   0.57692   0.00000  Uiso   1.00
C649   C     0.55421   0.00814   0.70099   0.00000  Uiso   1.00
C650   C     0.61554   0.15977   0.91762   0.00000  Uiso   1.00
C651   C     0.41261   0.14508   0.54963   0.00000  Uiso   1.00
C652   C     0.43738   0.16759   0.50965   0.00000  Uiso   1.00
C653   C     0.48252   0.16693   0.98974   0.00000  Uiso   1.00
C654   C     0.49905   0.17691   0.94428   0.00000  Uiso   1.00
C655   C     0.51175   0.15608   0.51255   0.00000  Uiso   1.00
C656   C     0.55388   0.14826   0.98822   0.00000  Uiso   1.00
C657   C     0.56998   0.15992   0.94367   0.00000  Uiso   1.00
C658   C     0.54296   0.17564   0.92331   0.00000  Uiso   1.00
H659   H     0.65224   0.13957   0.79042   0.00000  Uiso   1.00
H660   H     0.57563   0.32130   0.67899   0.00000  Uiso   1.00
H661   H     0.62303   0.15555   0.88132   0.00000  Uiso   1.00
H662   H     0.36512   0.14478   0.60680   0.00000  Uiso   1.00
H663   H     0.45921   0.33031   0.78707   0.00000  Uiso   1.00
H664   H     0.60868   0.11898   0.99044   0.00000  Uiso   1.00
H665   H     0.47480   0.17061   0.58008   0.00000  Uiso   1.00
H666   H     0.40820   0.20470   0.92566   0.00000  Uiso   1.00
H667   H     0.37898   0.18700   0.50243   0.00000  Uiso   1.00
H668   H     0.55717   0.18791   0.89077   0.00000  Uiso   1.00
H669   H     0.34942   0.19423   0.70933   0.00000  Uiso   1.00
H670   H     0.65201   0.08610   0.56944   0.00000  Uiso   1.00
O671   O     0.50000   0.16667   0.75000   0.00000  Uiso   1.00
O672   O     0.48784   0.12637   0.65458   0.00000  Uiso   1.00
O673   O     0.46274   0.20391   0.84968   0.00000  Uiso   1.00
O674   O     0.54157   0.17759   0.64606   0.00000  Uiso   1.00
O675   O     0.50785   0.15880   0.84968   0.00000  Uiso   1.00
O676   O     0.58238   0.09711   0.61562   0.00000  Uiso   1.00
O677   O     0.63621   0.09979   0.55188   0.00000  Uiso   1.00
O678   O     0.56260   0.04552   0.69663   0.00000  Uiso   1.00
O679   O     0.64516   0.16697   0.93571   0.00000  Uiso   1.00
O680   O     0.42003   0.11036   0.55440   0.00000  Uiso   1.00
O681   O     0.37968   0.16303   0.58102   0.00000  Uiso   1.00
O682   O     0.51264   0.08019   0.78213   0.00000  Uiso   1.00
O683   O     0.47965   0.26085   0.77013   0.00000  Uiso   1.00
O684   O     0.40745   0.13291   0.73413   0.00000  Uiso   1.00
O685   O     0.60026   0.19272   0.71360   0.00000  Uiso   1.00
O686   O     0.40405   0.18878   0.78213   0.00000  Uiso   1.00
O687   O     0.58824   0.15226   0.77013   0.00000  Uiso   1.00
O688   O     0.47093   0.06944   0.73413   0.00000  Uiso   1.00
O689   O     0.53678   0.25620   0.71360   0.00000  Uiso   1.00
Zn690  Zn    0.52672   0.13994   0.78734   0.00000  Uiso   1.00
Zn691  Zn    0.46713   0.12458   0.71875   0.00000  Uiso   1.00
Zn692  Zn    0.54389   0.19775   0.70657   0.00000  Uiso   1.00
Zn693  Zn    0.46226   0.20439   0.78733   0.00000  Uiso   1.00
C694   C     0.71949   0.15969   0.75990   0.00000  Uiso   1.00
C695   C     0.83514   0.15619   0.55940   0.00000  Uiso   1.00
C696   C     0.90011   0.12613   0.55592   0.00000  Uiso   1.00
C697   C     0.94757   0.17384   0.73987   0.00000  Uiso   1.00
C698   C     0.80470   0.18809   0.92031   0.00000  Uiso   1.00
C699   C     0.99353   0.17652   0.73555   0.00000  Uiso   1.00
C700   C     0.67416   0.15722   0.76381   0.00000  Uiso   1.00
C701   C     0.84937   0.32298   0.73552   0.00000  Uiso   1.00
C702   C     0.81993   0.01179   0.76281   0.00000  Uiso   1.00
C703   C     0.82225   0.05598   0.76085   0.00000  Uiso   1.00
C704   C     0.84371   0.27807   0.73990   0.00000  Uiso   1.00
C705   C     0.74616   0.18510   0.98729   0.00000  Uiso   1.00
C706   C     0.85220   0.14844   0.62936   0.00000  Uiso   1.00
C707   C     0.81583   0.18498   0.87085   0.00000  Uiso   1.00
C708   C     0.91249   0.13015   0.50963   0.00000  Uiso   1.00
C709   C     0.86188   0.14146   0.58092   0.00000  Uiso   1.00
C710   C     0.76291   0.19525   0.94318   0.00000  Uiso   1.00
C711   C     0.92839   0.10713   0.57692   0.00000  Uiso   1.00
C712   C     0.88754   0.00814   0.70099   0.00000  Uiso   1.00
C713   C     0.94887   0.15977   0.91762   0.00000  Uiso   1.00
C714   C     0.74595   0.14508   0.54963   0.00000  Uiso   1.00
C715   C     0.77071   0.16759   0.50965   0.00000  Uiso   1.00
C716   C     0.81585   0.16693   0.98974   0.00000  Uiso   1.00
C717   C     0.83238   0.17691   0.94428   0.00000  Uiso   1.00
C718   C     0.84509   0.15608   0.51255   0.00000  Uiso   1.00
C719   C     0.88721   0.14826   0.98822   0.00000  Uiso   1.00
C720   C     0.90332   0.15992   0.94367   0.00000  Uiso   1.00
C721   C     0.87629   0.17564   0.92331   0.00000  Uiso   1.00
H722   H     0.98558   0.13957   0.79042   0.00000  Uiso   1.00
H723   H     0.90896   0.32130   0.67899   0.00000  Uiso   1.00
H724   H     0.95637   0.15555   0.88132   0.00000  Uiso   1.00
H725   H     0.69845   0.14478   0.60680   0.00000  Uiso   1.00
H726   H     0.79254   0.33031   0.78707   0.00000  Uiso   1.00
H727   H     0.94201   0.11898   0.99044   0.00000  Uiso   1.00
H728   H     0.80813   0.17061   0.58008   0.00000  Uiso   1.00
H729   H     0.74153   0.20470   0.92566   0.00000  Uiso   1.00
H730   H     0.71232   0.18700   0.50243   0.00000  Uiso   1.00
H731   H     0.89050   0.18791   0.89077   0.00000  Uiso   1.00
H732   H     0.68275   0.19423   0.70933   0.00000  Uiso   1.00
H733   H     0.98535   0.08610   0.56944   0.00000  Uiso   1.00
O734   O     0.83333   0.16667   0.75000   0.00000  Uiso   1.00
O735   O     0.82118   0.12637   0.65458   0.00000  Uiso   1.00
O736   O     0.79607   0.20391   0.84968   0.00000  Uiso   1.00
O737   O     0.87491   0.17759   0.64606   0.00000  Uiso   1.00
O738   O     0.84118   0.15880   0.84968   0.00000  Uiso   1.00
O739   O     0.91572   0.09711   0.61562   0.00000  Uiso   1.00
O740   O     0.96954   0.09979   0.55188   0.00000  Uiso   1.00
O741   O     0.89593   0.04552   0.69663   0.00000  Uiso   1.00
O742   O     0.97850   0.16697   0.93571   0.00000  Uiso   1.00
O743   O     0.75336   0.11036   0.55440   0.00000  Uiso   1.00
O744   O     0.71301   0.16303   0.58102   0.00000  Uiso   1.00
O745   O     0.84597   0.08019   0.78213   0.00000  Uiso   1.00
O746   O     0.81298   0.26085   0.77013   0.00000  Uiso   1.00
O747   O     0.74078   0.13291   0.73413   0.00000  Uiso   1.00
O748   O     0.93360   0.19272   0.71360   0.00000  Uiso   1.00
O749   O     0.73738   0.18878   0.78213   0.00000  Uiso   1.00
O750   O     0.92158   0.15226   0.77013   0.00000  Uiso   1.00
O751   O     0.80426   0.06944   0.73413   0.00000  Uiso   1.00
O752   O     0.87012   0.25620   0.71360   0.00000  Uiso   1.00
Zn753  Zn    0.86005   0.13994   0.78734   0.00000  Uiso   1.00
Zn754  Zn    0.80046   0.12458   0.71875   0.00000  Uiso   1.00
Zn755  Zn    0.87723   0.19775   0.70657   0.00000  Uiso   1.00
Zn756  Zn    0.79560   0.20439   0.78733   0.00000  Uiso   1.00
C757   C     0.05282   0.49303   0.75990   0.00000  Uiso   1.00
C758   C     0.16847   0.48952   0.55940   0.00000  Uiso   1.00
C759   C     0.23344   0.45946   0.55592   0.00000  Uiso   1.00
C760   C     0.28090   0.50717   0.73987   0.00000  Uiso   1.00
C761   C     0.13803   0.52142   0.92031   0.00000  Uiso   1.00
C762   C     0.32687   0.50986   0.73555   0.00000  Uiso   1.00
C763   C     0.00749   0.49055   0.76381   0.00000  Uiso   1.00
C764   C     0.18270   0.65632   0.73552   0.00000  Uiso   1.00
C765   C     0.15326   0.34512   0.76281   0.00000  Uiso   1.00
C766   C     0.15558   0.38931   0.76085   0.00000  Uiso   1.00
C767   C     0.17704   0.61140   0.73990   0.00000  Uiso   1.00
C768   C     0.07949   0.51843   0.98729   0.00000  Uiso   1.00
C769   C     0.18553   0.48177   0.62936   0.00000  Uiso   1.00
C770   C     0.14916   0.51832   0.87085   0.00000  Uiso   1.00
C771   C     0.24582   0.46348   0.50963   0.00000  Uiso   1.00
C772   C     0.19522   0.47479   0.58092   0.00000  Uiso   1.00
C773   C     0.09624   0.52858   0.94318   0.00000  Uiso   1.00
C774   C     0.26172   0.44046   0.57692   0.00000  Uiso   1.00
C775   C     0.22087   0.34147   0.70099   0.00000  Uiso   1.00
C776   C     0.28221   0.49310   0.91762   0.00000  Uiso   1.00
C777   C     0.07928   0.47841   0.54963   0.00000  Uiso   1.00
C778   C     0.10405   0.50092   0.50965   0.00000  Uiso   1.00
C779   C     0.14919   0.50026   0.98974   0.00000  Uiso   1.00
C780   C     0.16571   0.51025   0.94428   0.00000  Uiso   1.00
C781   C     0.17842   0.48942   0.51255   0.00000  Uiso   1.00
C782   C     0.22055   0.48160   0.98822   0.00000  Uiso   1.00
C783   C     0.23665   0.49326   0.94367   0.00000  Uiso   1.00
C784   C     0.20963   0.50897   0.92331   0.00000  Uiso   1.00
H785   H     0.31891   0.47290   0.79042   0.00000  Uiso   1.00
H786   H     0.24229   0.65464   0.67899   0.00000  Uiso   1.00
H787   H     0.28970   0.48889   0.88132   0.00000  Uiso   1.00
H788   H     0.03178   0.47811   0.60680   0.00000  Uiso   1.00
H789   H     0.12587   0.66364   0.78707   0.00000  Uiso   1.00
H790   H     0.27534   0.45231   0.99044   0.00000  Uiso   1.00
H791   H     0.14147   0.50394   0.58008   0.00000  Uiso   1.00
H792   H     0.07487   0.53804   0.92566   0.00000  Uiso   1.00
H793   H     0.04565   0.52033   0.50243   0.00000  Uiso   1.00
H794   H     0.22383   0.52125   0.89077   0.00000  Uiso   1.00
H795   H     0.01609   0.52756   0.70933   0.00000  Uiso   1.00
H796   H     0.31868   0.41943   0.56944   0.00000  Uiso   1.00
O797   O     0.16667   0.50000   0.75000   0.00000  Uiso   1.00
O798   O     0.15451   0.45970   0.65458   0.00000  Uiso   1.00
O799   O     0.12940   0.53724   0.84968   0.00000  Uiso   1.00
O800   O     0.20824   0.51092   0.64606   0.00000  Uiso   1.00
O801   O     0.17451   0.49213   0.84968   0.00000  Uiso   1.00
O802   O     0.24905   0.43044   0.61562   0.00000  Uiso   1.00
O803   O     0.30288   0.43312   0.55188   0.00000  Uiso   1.00
O804   O     0.22927   0.37885   0.69663   0.00000  Uiso   1.00
O805   O     0.31183   0.50030   0.93571   0.00000  Uiso   1.00
O806   O     0.08670   0.44369   0.55440   0.00000  Uiso   1.00
O807   O     0.04634   0.49636   0.58102   0.00000  Uiso   1.00
O808   O     0.17930   0.41352   0.78213   0.00000  Uiso   1.00
O809   O     0.14632   0.59418   0.77013   0.00000  Uiso   1.00
O810   O     0.07412   0.46625   0.73413   0.00000  Uiso   1.00
O811   O     0.26693   0.52605   0.71360   0.00000  Uiso   1.00
O812   O     0.07071   0.52211   0.78213   0.00000  Uiso   1.00
O813   O     0.25491   0.48559   0.77013   0.00000  Uiso   1.00
O814   O     0.13760   0.40277   0.73413   0.00000  Uiso   1.00
O815   O     0.20345   0.58953   0.71360   0.00000  Uiso   1.00
Zn816  Zn    0.19338   0.47327   0.78734   0.00000  Uiso   1.00
Zn817  Zn    0.13379   0.45791   0.71875   0.00000  Uiso   1.00
Zn818  Zn    0.21056   0.53109   0.70657   0.00000  Uiso   1.00
Zn819  Zn    0.12893   0.53773   0.78733   0.00000  Uiso   1.00
C820   C     0.38616   0.49303   0.75990   0.00000  Uiso   1.00
C821   C     0.50181   0.48952   0.55940   0.00000  Uiso   1.00
C822   C     0.56677   0.45946   0.55592   0.00000  Uiso   1.00
C823   C     0.61424   0.50717   0.73987   0.00000  Uiso   1.00
C824   C     0.47137   0.52142   0.92031   0.00000  Uiso   1.00
C825   C     0.66020   0.50986   0.73555   0.00000  Uiso   1.00
C826   C     0.34082   0.49055   0.76381   0.00000  Uiso   1.00
C827   C     0.51603   0.65632   0.73552   0.00000  Uiso   1.00
C828   C     0.48660   0.34512   0.76281   0.00000  Uiso   1.00
C829   C     0.48891   0.38931   0.76085   0.00000  Uiso   1.00
C830   C     0.51037   0.61140   0.73990   0.00000  Uiso   1.00
C831   C     0.41283   0.51843   0.98729   0.00000  Uiso   1.00
C832   C     0.51887   0.48177   0.62936   0.00000  Uiso   1.00
C833   C     0.48250   0.51832   0.87085   0.00000  Uiso   1.00
C834   C     0.57915   0.46348   0.50963   0.00000  Uiso   1.00
C835   C     0.52855   0.47479   0.58092   0.00000  Uiso   1.00
C836   C     0.42958   0.52858   0.94318   0.00000  Uiso   1.00
C837   C     0.59505   0.44046   0.57692   0.00000  Uiso   1.00
C838   C     0.55421   0.34147   0.70099   0.00000  Uiso   1.00
C839   C     0.61554   0.49310   0.91762   0.00000  Uiso   1.00
C840   C     0.41261   0.47841   0.54963   0.00000  Uiso   1.00
C841   C     0.43738   0.50092   0.50965   0.00000  Uiso   1.00
C842   C     0.48252   0.50026   0.98974   0.00000  Uiso   1.00
C843   C     0.49905   0.51025   0.94428   0.00000  Uiso   1.00
C844   C     0.51175   0.48942   0.51255   0.00000  Uiso   1.00
C845   C     0.55388   0.48160   0.98822   0.00000  Uiso   1.00
C846   C     0.56998   0.49326   0.94367   0.00000  Uiso   1.00
C847   C     0.54296   0.50897   0.92331   0.00000  Uiso   1.00
H848   H     0.65224   0.47290   0.79042   0.00000  Uiso   1.00
H849   H     0.57563   0.65464   0.67899   0.00000  Uiso   1.00
H850   H     0.62303   0.48889   0.88132   0.00000  Uiso   1.00
H851   H     0.36512   0.47811   0.60680   0.00000  Uiso   1.00
H852   H     0.45921   0.66364   0.78707   0.00000  Uiso   1.00
H853   H     0.60868   0.45231   0.99044   0.00000  Uiso   1.00
H854   H     0.47480   0.50394   0.58008   0.00000  Uiso   1.00
H855   H     0.40820   0.53804   0.92566   0.00000  Uiso   1.00
H856   H     0.37898   0.52033   0.50243   0.00000  Uiso   1.00
H857   H     0.55717   0.52125   0.89077   0.00000  Uiso   1.00
H858   H     0.34942   0.52756   0.70933   0.00000  Uiso   1.00
H859   H     0.65201   0.41943   0.56944   0.00000  Uiso   1.00
O860   O     0.50000   0.50000   0.75000   0.00000  Uiso   1.00
O861   O     0.48784   0.45970   0.65458   0.00000  Uiso   1.00
O862   O     0.46274   0.53724   0.84968   0.00000  Uiso   1.00
O863   O     0.54157   0.51092   0.64606   0.00000  Uiso   1.00
O864   O     0.50785   0.49213   0.84968   0.00000  Uiso   1.00
O865   O     0.58238   0.43044   0.61562   0.00000  Uiso   1.00
O866   O     0.63621   0.43312   0.55188   0.00000  Uiso   1.00
O867   O     0.56260   0.37885   0.69663   0.00000  Uiso   1.00
O868   O     0.64516   0.50030   0.93571   0.00000  Uiso   1.00
O869   O     0.42003   0.44369   0.55440   0.00000  Uiso   1.00
O870   O     0.37968   0.49636   0.58102   0.00000  Uiso   1.00
O871   O     0.51264   0.41352   0.78213   0.00000  Uiso   1.00
O872   O     0.47965   0.59418   0.77013   0.00000  Uiso   1.00
O873   O     0.40745   0.46625   0.73413   0.00000  Uiso   1.00
O874   O     0.60026   0.52605   0.71360   0.00000  Uiso   1.00
O875   O     0.40405   0.52211   0.78213   0.00000  Uiso   1.00
O876   O     0.58824   0.48559   0.77013   0.00000  Uiso   1.00
O877   O     0.47093   0.40277   0.73413   0.00000  Uiso   1.00
O878   O     0.53678   0.58953   0.71360   0.00000  Uiso   1.00
Zn879  Zn    0.52672   0.47327   0.78734   0.00000  Uiso   1.00
Zn880  Zn    0.46713   0.45791   0.71875   0.00000  Uiso   1.00
Zn881  Zn    0.54389   0.53109   0.70657   0.00000  Uiso   1.00
Zn882  Zn    0.46226   0.53773   0.78733   0.00000  Uiso   1.00
C883   C     0.71949   0.49303   0.75990   0.00000  Uiso   1.00
C884   C     0.83514   0.48952   0.55940   0.00000  Uiso   1.00
C885   C     0.90011   0.45946   0.55592   0.00000  Uiso   1.00
C886   C     0.94757   0.50717   0.73987   0.00000  Uiso   1.00
C887   C     0.80470   0.52142   0.92031   0.00000  Uiso   1.00
C888   C     0.99353   0.50986   0.73555   0.00000  Uiso   1.00
C889   C     0.67416   0.49055   0.76381   0.00000  Uiso   1.00
C890   C     0.84937   0.65632   0.73552   0.00000  Uiso   1.00
C891   C     0.81993   0.34512   0.76281   0.00000  Uiso   1.00
C892   C     0.82225   0.38931   0.76085   0.00000  Uiso   1.00
C893   C     0.84371   0.61140   0.73990   0.00000  Uiso   1.00
C894   C     0.74616   0.51843   0.98729   0.00000  Uiso   1.00
C895   C     0.85220   0.48177   0.62936   0.00000  Uiso   1.00
C896   C     0.81583   0.51832   0.87085   0.00000  Uiso   1.00
C897   C     0.91249   0.46348   0.50963   0.00000  Uiso   1.00
C898   C     0.86188   0.47479   0.58092   0.00000  Uiso   1.00
C899   C     0.76291   0.52858   0.94318   0.00000  Uiso   1.00
C900   C     0.92839   0.44046   0.57692   0.00000  Uiso   1.00
C901   C     0.88754   0.34147   0.70099   0.00000  Uiso   1.00
C902   C     0.94887   0.49310   0.91762   0.00000  Uiso   1.00
C903   C     0.74595   0.47841   0.54963   0.00000  Uiso   1.00
C904   C     0.77071   0.50092   0.50965   0.00000  Uiso   1.00
C905   C     0.81585   0.50026   0.98974   0.00000  Uiso   1.00
C906   C     0.83238   0.51025   0.94428   0.00000  Uiso   1.00
C907   C     0.84509   0.48942   0.51255   0.00000  Uiso   1.00
C908   C     0.88721   0.48160   0.98822   0.00000  Uiso   1.00
C909   C     0.90332   0.49326   0.94367   0.00000  Uiso   1.00
C910   C     0.87629   0.50897   0.92331   0.00000  Uiso   1.00
H911   H     0.98558   0.47290   0.79042   0.00000  Uiso   1.00
H912   H     0.90896   0.65464   0.67899   0.00000  Uiso   1.00
H913   H     0.95637   0.48889   0.88132   0.00000  Uiso   1.00
H914   H     0.69845   0.47811   0.60680   0.00000  Uiso   1.00
H915   H     0.79254   0.66364   0.78707   0.00000  Uiso   1.00
H916   H     0.94201   0.45231   0.99044   0.00000  Uiso   1.00
H917   H     0.80813   0.50394   0.58008   0.00000  Uiso   1.00
H918   H     0.74153   0.53804   0.92566   0.00000  Uiso   1.00
H919   H     0.71232   0.52033   0.50243   0.00000  Uiso   1.00
H920   H     0.89050   0.52125   0.89077   0.00000  Uiso   1.00
H921   H     0.68275   0.52756   0.70933   0.00000  Uiso   1.00
H922   H     0.98535   0.41943   0.56944   0.00000  Uiso   1.00
O923   O     0.83333   0.50000   0.75000   0.00000  Uiso   1.00
O924   O     0.82118   0.45970   0.65458   0.00000  Uiso   1.00
O925   O     0.79607   0.53724   0.84968   0.00000  Uiso   1.00
O926   O     0.87491   0.51092   0.64606   0.00000  Uiso   1.00
O927   O     0.84118   0.49213   0.84968   0.00000  Uiso   1.00
O928   O     0.91572   0.43044   0.61562   0.00000  Uiso   1.00
O929   O     0.96954   0.43312   0.55188   0.00000  Uiso   1.00
O930   O     0.89593   0.37885   0.69663   0.00000  Uiso   1.00
O931   O     0.97850   0.50030   0.93571   0.00000  Uiso   1.00
O932   O     0.75336   0.44369   0.55440   0.00000  Uiso   1.00
O933   O     0.71301   0.49636   0.58102   0.00000  Uiso   1.00
O934   O     0.84597   0.41352   0.78213   0.00000  Uiso   1.00
O935   O     0.81298   0.59418   0.77013   0.00000  Uiso   1.00
O936   O     0.74078   0.46625   0.73413   0.00000  Uiso   1.00
O937   O     0.93360   0.52605   0.71360   0.00000  Uiso   1.00
O938   O     0.73738   0.52211   0.78213   0.00000  Uiso   1.00
O939   O     0.92158   0.48559   0.77013   0.00000  Uiso   1.00
O940   O     0.80426   0.40277   0.73413   0.00000  Uiso   1.00
O941   O     0.87012   0.58953   0.71360   0.00000  Uiso   1.00
Zn942  Zn    0.86005   0.47327   0.78734   0.00000  Uiso   1.00
Zn943  Zn    0.80046   0.45791   0.71875   0.00000  Uiso   1.00
Zn944  Zn    0.87723   0.53109   0.70657   0.00000  Uiso   1.00
Zn945  Zn    0.79560   0.53773   0.78733   0.00000  Uiso   1.00
C946   C     0.05282   0.82636   0.75990   0.00000  Uiso   1.00
C947   C     0.16847   0.82285   0.55940   0.00000  Uiso   1.00
C948   C     0.23344   0.79279   0.55592   0.00000  Uiso   1.00
C949   C     0.28090   0.84050   0.73987   0.00000  Uiso   1.00
C950   C     0.13803   0.85476   0.92031   0.00000  Uiso   1.00
C951   C     0.32687   0.84319   0.73555   0.00000  Uiso   1.00
C952   C     0.00749   0.82389   0.76381   0.00000  Uiso   1.00
C953   C     0.18270   0.98965   0.73552   0.00000  Uiso   1.00
C954   C     0.15326   0.67846   0.76281   0.00000  Uiso   1.00
C955   C     0.15558   0.72264   0.76085   0.00000  Uiso   1.00
C956   C     0.17704   0.94474   0.73990   0.00000  Uiso   1.00
C957   C     0.07949   0.85177   0.98729   0.00000  Uiso   1.00
C958   C     0.18553   0.81510   0.62936   0.00000  Uiso   1.00
C959   C     0.14916   0.85165   0.87085   0.00000  Uiso   1.00
C960   C     0.24582   0.79681   0.50963   0.00000  Uiso   1.00
C961   C     0.19522   0.80812   0.58092   0.00000  Uiso   1.00
C962   C     0.09624   0.86192   0.94318   0.00000  Uiso   1.00
C963   C     0.26172   0.77379   0.57692   0.00000  Uiso   1.00
C964   C     0.22087   0.67480   0.70099   0.00000  Uiso   1.00
C965   C     0.28221   0.82644   0.91762   0.00000  Uiso   1.00
C966   C     0.07928   0.81174   0.54963   0.00000  Uiso   1.00
C967   C     0.10405   0.83425   0.50965   0.00000  Uiso   1.00
C968   C     0.14919   0.83360   0.98974   0.00000  Uiso   1.00
C969   C     0.16571   0.84358   0.94428   0.00000  Uiso   1.00
C970   C     0.17842   0.82275   0.51255   0.00000  Uiso   1.00
C971   C     0.22055   0.81493   0.98822   0.00000  Uiso   1.00
C972   C     0.23665   0.82659   0.94367   0.00000  Uiso   1.00
C973   C     0.20963   0.84231   0.92331   0.00000  Uiso   1.00
H974   H     0.31891   0.80623   0.79042   0.00000  Uiso   1.00
H975   H     0.24229   0.98797   0.67899   0.00000  Uiso   1.00
H976   H     0.28970   0.82222   0.88132   0.00000  Uiso   1.00
H977   H     0.03178   0.81145   0.60680   0.00000  Uiso   1.00
H978   H     0.12587   0.99697   0.78707   0.00000  Uiso   1.00
H979   H     0.27534   0.78564   0.99044   0.00000  Uiso   1.00
H980   H     0.14147   0.83727   0.58008   0.00000  Uiso   1.00
H981   H     0.07487   0.87137   0.92566   0.00000  Uiso   1.00
H982   H     0.04565   0.85366   0.50243   0.00000  Uiso   1.00
H983   H     0.22383   0.85458   0.89077   0.00000  Uiso   1.00
H984   H     0.01609   0.86090   0.70933   0.00000  Uiso   1.00
H985   H     0.31868   0.75277   0.56944   0.00000  Uiso   1.00
O986   O     0.16667   0.83333   0.75000   0.00000  Uiso   1.00
O987   O     0.15451   0.79304   0.65458   0.00000  Uiso   1.00
O988   O     0.12940   0.87058   0.84968   0.00000  Uiso   1.00
O989   O     0.20824   0.84425   0.64606   0.00000  Uiso   1.00
O990   O     0.17451   0.82546   0.84968   0.00000  Uiso   1.00
O991   O     0.24905   0.76378   0.61562   0.00000  Uiso   1.00
O992   O     0.30288   0.76645   0.55188   0.00000  Uiso   1.00
O993   O     0.22927   0.71218   0.69663   0.00000  Uiso   1.00
O994   O     0.31183   0.83363   0.93571   0.00000  Uiso   1.00
O995   O     0.08670   0.77703   0.55440   0.00000  Uiso   1.00
O996   O     0.04634   0.82969   0.58102   0.00000  Uiso   1.00
O997   O     0.17930   0.74686   0.78213   0.00000  Uiso   1.00
O998   O     0.14632   0.92751   0.77013   0.00000  Uiso   1.00
O999   O     0.07412   0.79958   0.73413   0.00000  Uiso   1.00
O1000  O     0.26693   0.85939   0.71360   0.00000  Uiso   1.00
O1001  O     0.07071   0.85544   0.78213   0.00000  Uiso   1.00
O1002  O     0.25491   0.81892   0.77013   0.00000  Uiso   1.00
O1003  O     0.13760   0.73610   0.73413   0.00000  Uiso   1.00
O1004  O     0.20345   0.92286   0.71360   0.00000  Uiso   1.00
Zn1005 Zn    0.19338   0.80661   0.78734   0.00000  Uiso   1.00
Zn1006 Zn    0.13379   0.79124   0.71875   0.00000  Uiso   1.00
Zn1007 Zn    0.21056   0.86442   0.70657   0.00000  Uiso   1.00
Zn1008 Zn    0.12893   0.87106   0.78733   0.00000  Uiso   1.00
C1009  C     0.38616   0.82636   0.75990   0.00000  Uiso   1.00
C1010  C     0.50181   0.82285   0.55940   0.00000  Uiso   1.00
C1011  C     0.56677   0.79279   0.55592   0.00000  Uiso   1.00
C1012  C     0.61424   0.84050   0.73987   0.00000  Uiso   1.00
C1013  C     0.47137   0.85476   0.92031   0.00000  Uiso   1.00
C1014  C     0.66020   0.84319   0.73555   0.00000  Uiso   1.00
C1015  C     0.34082   0.82389   0.76381   0.00000  Uiso   1.00
C1016  C     0.51603   0.98965   0.73552   0.00000  Uiso   1.00
C1017  C     0.48660   0.67846   0.76281   0.00000  Uiso   1.00
C1018  C     0.48891   0.72264   0.76085   0.00000  Uiso   1.00
C1019  C     0.51037   0.94474   0.73990   0.00000  Uiso   1.00
C1020  C     0.41283   0.85177   0.98729   0.00000  Uiso   1.00
C1021  C     0.51887   0.81510   0.62936   0.00000  Uiso   1.00
C1022  C     0.48250   0.85165   0.87085   0.00000  Uiso   1.00
C1023  C     0.57915   0.79681   0.50963   0.00000  Uiso   1.00
C1024  C     0.52855   0.80812   0.58092   0.00000  Uiso   1.00
C1025  C     0.42958   0.86192   0.94318   0.00000  Uiso   1.00
C1026  C     0.59505   0.77379   0.57692   0.00000  Uiso   1.00
C1027  C     0.55421   0.67480   0.70099   0.00000  Uiso   1.00
C1028  C     0.61554   0.82644   0.91762   0.00000  Uiso   1.00
C1029  C     0.41261   0.81174   0.54963   0.00000  Uiso   1.00
C1030  C     0.43738   0.83425   0.50965   0.00000  Uiso   1.00
C1031  C     0.48252   0.83360   0.98974   0.00000  Uiso   1.00
C1032  C     0.49905   0.84358   0.94428   0.00000  Uiso   1.00
C1033  C     0.51175   0.82275   0.51255   0.00000  Uiso   1.00
C1034  C     0.55388   0.81493   0.98822   0.00000  Uiso   1.00
C1035  C     0.56998   0.82659   0.94367   0.00000  Uiso   1.00
C1036  C     0.54296   0.84231   0.92331   0.00000  Uiso   1.00
H1037  H     0.65224   0.80623   0.79042   0.00000  Uiso   1.00
H1038  H     0.57563   0.98797   0.67899   0.00000  Uiso   1.00
H1039  H     0.62303   0.82222   0.88132   0.00000  Uiso   1.00
H1040  H     0.36512   0.81145   0.60680   0.00000  Uiso   1.00
H1041  H     0.45921   0.99697   0.78707   0.00000  Uiso   1.00
H1042  H     0.60868   0.78564   0.99044   0.00000  Uiso   1.00
H1043  H     0.47480   0.83727   0.58008   0.00000  Uiso   1.00
H1044  H     0.40820   0.87137   0.92566   0.00000  Uiso   1.00
H1045  H     0.37898   0.85366   0.50243   0.00000  Uiso   1.00
H1046  H     0.55717   0.85458   0.89077   0.00000  Uiso   1.00
H1047  H     0.34942   0.86090   0.70933   0.00000  Uiso   1.00
H1048  H     0.65201   0.75277   0.56944   0.00000  Uiso   1.00
O1049  O     0.50000   0.83333   0.75000   0.00000  Uiso   1.00
O1050  O     0.48784   0.79304   0.65458   0.00000  Uiso   1.00
O1051  O     0.46274   0.87058   0.84968   0.00000  Uiso   1.00
O1052  O     0.54157   0.84425   0.64606   0.00000  Uiso   1.00
O1053  O     0.50785   0.82546   0.84968   0.00000  Uiso   1.00
O1054  O     0.58238   0.76378   0.61562   0.00000  Uiso   1.00
O1055  O     0.63621   0.76645   0.55188   0.00000  Uiso   1.00
O1056  O     0.56260   0.71218   0.69663   0.00000  Uiso   1.00
O1057  O     0.64516   0.83363   0.93571   0.00000  Uiso   1.00
O1058  O     0.42003   0.77703   0.55440   0.00000  Uiso   1.00
O1059  O     0.37968   0.82969   0.58102   0.00000  Uiso   1.00
O1060  O     0.51264   0.74686   0.78213   0.00000  Uiso   1.00
O1061  O     0.47965   0.92751   0.77013   0.00000  Uiso   1.00
O1062  O     0.40745   0.79958   0.73413   0.00000  Uiso   1.00
O1063  O     0.60026   0.85939   0.71360   0.00000  Uiso   1.00
O1064  O     0.40405   0.85544   0.78213   0.00000  Uiso   1.00
O1065  O     0.58824   0.81892   0.77013   0.00000  Uiso   1.00
O1066  O     0.47093   0.73610   0.73413   0.00000  Uiso   1.00
O1067  O     0.53678   0.92286   0.71360   0.00000  Uiso   1.00
Zn1068 Zn    0.52672   0.80661   0.78734   0.00000  Uiso   1.00
Zn1069 Zn    0.46713   0.79124   0.71875   0.00000  Uiso   1.00
Zn1070 Zn    0.54389   0.86442   0.70657   0.00000  Uiso   1.00
Zn1071 Zn    0.46226   0.87106   0.78733   0.00000  Uiso   1.00
C1072  C     0.71949   0.82636   0.75990   0.00000  Uiso   1.00
C1073  C     0.83514   0.82285   0.55940   0.00000  Uiso   1.00
C1074  C     0.90011   0.79279   0.55592   0.00000  Uiso   1.00
C1075  C     0.94757   0.84050   0.73987   0.00000  Uiso   1.00
C1076  C     0.80470   0.85476   0.92031   0.00000  Uiso   1.00
C1077  C     0.99353   0.84319   0.73555   0.00000  Uiso   1.00
C1078  C     0.67416   0.82389   0.76381   0.00000  Uiso   1.00
C1079  C     0.84937   0.98965   0.73552   0.00000  Uiso   1.00
C1080  C     0.81993   0.67846   0.76281   0.00000  Uiso   1.00
C1081  C     0.82225   0.72264   0.76085   0.00000  Uiso   1.00
C1082  C     0.84371   0.94474   0.73990   0.00000  Uiso   1.00
C1083  C     0.74616   0.85177   0.98729   0.00000  Uiso   1.00
C1084  C     0.85220   0.81510   0.62936   0.00000  Uiso   1.00
C1085  C     0.81583   0.85165   0.87085   0.00000  Uiso   1.00
C1086  C     0.91249   0.79681   0.50963   0.00000  Uiso   1.00
C1087  C     0.86188   0.80812   0.58092   0.00000  Uiso   1.00
C1088  C     0.76291   0.86192   0.94318   0.00000  Uiso   1.00
C1089  C     0.92839   0.77379   0.57692   0.00000  Uiso   1.00
C1090  C     0.88754   0.67480   0.70099   0.00000  Uiso   1.00
C1091  C     0.94887   0.82644   0.91762   0.00000  Uiso   1.00
C1092  C     0.74595   0.81174   0.54963   0.00000  Uiso   1.00
C1093  C     0.77071   0.83425   0.50965   0.00000  Uiso   1.00
C1094  C     0.81585   0.83360   0.98974   0.00000  Uiso   1.00
C1095  C     0.83238   0.84358   0.94428   0.00000  Uiso   1.00
C1096  C     0.84509   0.82275   0.51255   0.00000  Uiso   1.00
C1097  C     0.88721   0.81493   0.98822   0.00000  Uiso   1.00
C1098  C     0.90332   0.82659   0.94367   0.00000  Uiso   1.00
C1099  C     0.87629   0.84231   0.92331   0.00000  Uiso   1.00
H1100  H     0.98558   0.80623   0.79042   0.00000  Uiso   1.00
H1101  H     0.90896   0.98797   0.67899   0.00000  Uiso   1.00
H1102  H     0.95637   0.82222   0.88132   0.00000  Uiso   1.00
H1103  H     0.69845   0.81145   0.60680   0.00000  Uiso   1.00
H1104  H     0.79254   0.99697   0.78707   0.00000  Uiso   1.00
H1105  H     0.94201   0.78564   0.99044   0.00000  Uiso   1.00
H1106  H     0.80813   0.83727   0.58008   0.00000  Uiso   1.00
H1107  H     0.74153   0.87137   0.92566   0.00000  Uiso   1.00
H1108  H     0.71232   0.85366   0.50243   0.00000  Uiso   1.00
H1109  H     0.89050   0.85458   0.89077   0.00000  Uiso   1.00
H1110  H     0.68275   0.86090   0.70933   0.00000  Uiso   1.00
H1111  H     0.98535   0.75277   0.56944   0.00000  Uiso   1.00
O1112  O     0.83333   0.83333   0.75000   0.00000  Uiso   1.00
O1113  O     0.82118   0.79304   0.65458   0.00000  Uiso   1.00
O1114  O     0.79607   0.87058   0.84968   0.00000  Uiso   1.00
O1115  O     0.87491   0.84425   0.64606   0.00000  Uiso   1.00
O1116  O     0.84118   0.82546   0.84968   0.00000  Uiso   1.00
O1117  O     0.91572   0.76378   0.61562   0.00000  Uiso   1.00
O1118  O     0.96954   0.76645   0.55188   0.00000  Uiso   1.00
O1119  O     0.89593   0.71218   0.69663   0.00000  Uiso   1.00
O1120  O     0.97850   0.83363   0.93571   0.00000  Uiso   1.00
O1121  O     0.75336   0.77703   0.55440   0.00000  Uiso   1.00
O1122  O     0.71301   0.82969   0.58102   0.00000  Uiso   1.00
O1123  O     0.84597   0.74686   0.78213   0.00000  Uiso   1.00
O1124  O     0.81298   0.92751   0.77013   0.00000  Uiso   1.00
O1125  O     0.74078   0.79958   0.73413   0.00000  Uiso   1.00
O1126  O     0.93360   0.85939   0.71360   0.00000  Uiso   1.00
O1127  O     0.73738   0.85544   0.78213   0.00000  Uiso   1.00
O1128  O     0.92158   0.81892   0.77013   0.00000  Uiso   1.00
O1129  O     0.80426   0.73610   0.73413   0.00000  Uiso   1.00
O1130  O     0.87012   0.92286   0.71360   0.00000  Uiso   1.00
Zn1131 Zn    0.86005   0.80661   0.78734   0.00000  Uiso   1.00
Zn1132 Zn    0.80046   0.79124   0.71875   0.00000  Uiso   1.00
Zn1133 Zn    0.87723   0.86442   0.70657   0.00000  Uiso   1.00
Zn1134 Zn    0.79560   0.87106   0.78733   0.00000  Uiso   1.00
loop_
_geom_bond_atom_site_label_1
_geom_bond_atom_site_label_2
_geom_bond_distance
_geom_bond_site_symmetry_2
_ccdc_geom_bond_type
C1     O54     1.275   .     A
C1     O56     1.275   .     A
C1     C7      1.437   .     S
C2     H35     1.080   .     S
C2     C16     1.391   .     A
C2     C25     1.402   .     A
C3     C15     1.399   .     A
C3     C18     1.493   .     S
C3     C16     1.411   .     A
C4     O55     1.278   .     A
C4     C6      1.455   .     S
C4     O57     1.274   .     A
C5     C14     1.476   .     S
C5     C24     1.417   .     A
C5     C17     1.398   .     A
C6     C70     1.335   .     S
C6     H102    1.088   .     S
C7     C132    1.335   1_455 S
C7     H155    1.086   1_455 S
C8     C11     1.463   .     S
C8     C198    1.344   .     S
C8     C208    1.500   .     S
C9     C10     1.437   .     S
C9     C386    1.344   1_545 S
C9     H411    1.086   1_545 S
C10    O52     1.278   .     A
C10    O58     1.277   .     A
C11    O53     1.277   .     A
C11    O59     1.267   .     A
C12    C17     1.386   .     A
C12    C589    1.400   .     S
C12    H604    1.084   .     S
C13    O42     1.274   .     A
C13    C16     1.452   .     S
C13    O44     1.267   .     A
C14    O45     1.284   .     A
C14    O43     1.286   .     A
C15    C593    1.409   1_554 S
C15    H601    1.080   1_554 S
C17    H36     1.083   .     S
C18    O47     1.399   .     S
C18    O46     1.222   .     D
C19    O48     1.221   .     D
C19    C386    1.500   1_545 S
C19    H408    1.085   1_545 S
C20    O49     1.221   .     D
C20    C27     1.487   .     S
C20    H31     1.086   .     S
C21    C22     1.483   .     S
C21    O51     1.399   .     S
C21    O50     1.223   .     D
C22    C579    1.400   1_554 S
C22    C590    1.436   1_554 S
C23    C24     1.422   .     A
C23    C589    1.436   .     S
C23    C592    1.429   .     S
C24    C28     1.408   .     A
C25    C590    1.429   1_554 S
C25    C593    1.424   1_554 S
C26    C27     1.411   .     A
C26    C582    1.409   .     S
C26    C592    1.424   .     S
C27    C28     1.390   .     A
C28    H38     1.082   .     S
H29    C70     1.086   .     S
H30    C208    1.085   .     S
H32    O51     1.014   .     S
H33    C198    1.086   .     S
H34    C582    1.080   .     S
H37    C579    1.084   1_554 S
H39    C132    1.088   1_455 S
H40    O47     1.014   .     S
O41    Zn61    1.949   .     S
O41    Zn62    1.923   .     S
O41    Zn63    1.941   .     S
O41    Zn60    1.957   .     S
O42    Zn61    1.928   .     S
O43    Zn63    1.940   .     S
O44    Zn62    1.942   .     S
O45    Zn60    1.932   .     S
O52    Zn60    1.932   .     S
O53    Zn63    1.927   .     S
O54    Zn61    1.926   .     S
O55    Zn62    1.936   .     S
O56    Zn63    1.930   .     S
O57    Zn60    1.919   .     S
O58    Zn61    1.935   .     S
O59    Zn62    1.936   .     S
C64    O117    1.275   .     A
C64    O119    1.275   .     A
C64    C70     1.437   .     S
C65    H98     1.080   .     S
C65    C79     1.391   .     A
C65    C88     1.402   .     A
C66    C78     1.399   .     A
C66    C81     1.493   .     S
C66    C79     1.411   .     A
C67    O118    1.278   .     A
C67    C69     1.455   .     S
C67    O120    1.274   .     A
C68    C77     1.476   .     S
C68    C87     1.417   .     A
C68    C80     1.398   .     A
C69    C133    1.335   .     S
C69    H165    1.088   .     S
C71    C74     1.463   .     S
C71    C261    1.344   .     S
C71    C271    1.500   .     S
C72    C73     1.437   .     S
C72    C449    1.344   1_545 S
C72    H474    1.086   1_545 S
C73    O115    1.278   .     A
C73    O121    1.277   .     A
C74    O116    1.277   .     A
C74    O122    1.267   .     A
C75    C80     1.386   .     A
C75    C652    1.400   .     S
C75    H667    1.084   .     S
C76    O105    1.274   .     A
C76    C79     1.452   .     S
C76    O107    1.267   .     A
C77    O108    1.284   .     A
C77    O106    1.286   .     A
C78    C656    1.409   1_554 S
C78    H664    1.080   1_554 S
C80    H99     1.083   .     S
C81    O110    1.399   .     S
C81    O109    1.222   .     D
C82    O111    1.221   .     D
C82    C449    1.500   1_545 S
C82    H471    1.085   1_545 S
C83    O112    1.221   .     D
C83    C90     1.487   .     S
C83    H94     1.086   .     S
C84    C85     1.483   .     S
C84    O114    1.399   .     S
C84    O113    1.223   .     D
C85    C642    1.400   1_554 S
C85    C653    1.436   1_554 S
C86    C87     1.422   .     A
C86    C652    1.436   .     S
C86    C655    1.429   .     S
C87    C91     1.408   .     A
C88    C653    1.429   1_554 S
C88    C656    1.424   1_554 S
C89    C90     1.411   .     A
C89    C645    1.409   .     S
C89    C655    1.424   .     S
C90    C91     1.390   .     A
C91    H101    1.082   .     S
H92    C133    1.086   .     S
H93    C271    1.085   .     S
H95    O114    1.014   .     S
H96    C261    1.086   .     S
H97    C645    1.080   .     S
H100   C642    1.084   1_554 S
H103   O110    1.014   .     S
O104   Zn124   1.949   .     S
O104   Zn125   1.923   .     S
O104   Zn126   1.941   .     S
O104   Zn123   1.957   .     S
O105   Zn124   1.928   .     S
O106   Zn126   1.940   .     S
O107   Zn125   1.942   .     S
O108   Zn123   1.932   .     S
O115   Zn123   1.932   .     S
O116   Zn126   1.927   .     S
O117   Zn124   1.926   .     S
O118   Zn125   1.936   .     S
O119   Zn126   1.930   .     S
O120   Zn123   1.919   .     S
O121   Zn124   1.935   .     S
O122   Zn125   1.936   .     S
C127   O180    1.275   .     A
C127   O182    1.275   .     A
C127   C133    1.437   .     S
C128   H161    1.080   .     S
C128   C142    1.391   .     A
C128   C151    1.402   .     A
C129   C141    1.399   .     A
C129   C144    1.493   .     S
C129   C142    1.411   .     A
C130   O181    1.278   .     A
C130   C132    1.455   .     S
C130   O183    1.274   .     A
C131   C140    1.476   .     S
C131   C150    1.417   .     A
C131   C143    1.398   .     A
C132   C7      1.335   1_655 S
C132   H39     1.088   1_655 S
C134   C137    1.463   .     S
C134   C324    1.344   .     S
C134   C334    1.500   .     S
C135   C136    1.437   .     S
C135   C512    1.344   1_545 S
C135   H537    1.086   1_545 S
C136   O178    1.278   .     A
C136   O184    1.277   .     A
C137   O179    1.277   .     A
C137   O185    1.267   .     A
C138   C143    1.386   .     A
C138   C715    1.400   .     S
C138   H730    1.084   .     S
C139   O168    1.274   .     A
C139   C142    1.452   .     S
C139   O170    1.267   .     A
C140   O171    1.284   .     A
C140   O169    1.286   .     A
C141   C719    1.409   1_554 S
C141   H727    1.080   1_554 S
C143   H162    1.083   .     S
C144   O173    1.399   .     S
C144   O172    1.222   .     D
C145   O174    1.221   .     D
C145   C512    1.500   1_545 S
C145   H534    1.085   1_545 S
C146   O175    1.221   .     D
C146   C153    1.487   .     S
C146   H157    1.086   .     S
C147   C148    1.483   .     S
C147   O177    1.399   .     S
C147   O176    1.223   .     D
C148   C705    1.400   1_554 S
C148   C716    1.436   1_554 S
C149   C150    1.422   .     A
C149   C715    1.436   .     S
C149   C718    1.429   .     S
C150   C154    1.408   .     A
C151   C716    1.429   1_554 S
C151   C719    1.424   1_554 S
C152   C153    1.411   .     A
C152   C708    1.409   .     S
C152   C718    1.424   .     S
C153   C154    1.390   .     A
C154   H164    1.082   .     S
H155   C7      1.086   1_655 S
H156   C334    1.085   .     S
H158   O177    1.014   .     S
H159   C324    1.086   .     S
H160   C708    1.080   .     S
H163   C705    1.084   1_554 S
H166   O173    1.014   .     S
O167   Zn187   1.949   .     S
O167   Zn188   1.923   .     S
O167   Zn189   1.941   .     S
O167   Zn186   1.957   .     S
O168   Zn187   1.928   .     S
O169   Zn189   1.940   .     S
O170   Zn188   1.942   .     S
O171   Zn186   1.932   .     S
O178   Zn186   1.932   .     S
O179   Zn189   1.927   .     S
O180   Zn187   1.926   .     S
O181   Zn188   1.936   .     S
O182   Zn189   1.930   .     S
O183   Zn186   1.919   .     S
O184   Zn187   1.935   .     S
O185   Zn188   1.936   .     S
C190   O243    1.275   .     A
C190   O245    1.275   .     A
C190   C196    1.437   .     S
C191   H224    1.080   .     S
C191   C205    1.391   .     A
C191   C214    1.402   .     A
C192   C204    1.399   .     A
C192   C207    1.493   .     S
C192   C205    1.411   .     A
C193   O244    1.278   .     A
C193   C195    1.455   .     S
C193   O246    1.274   .     A
C194   C203    1.476   .     S
C194   C213    1.417   .     A
C194   C206    1.398   .     A
C195   C259    1.335   .     S
C195   H291    1.088   .     S
C196   C321    1.335   1_455 S
C196   H344    1.086   1_455 S
C197   C200    1.463   .     S
C197   C387    1.344   .     S
C197   C397    1.500   .     S
C198   C199    1.437   .     S
C199   O241    1.278   .     A
C199   O247    1.277   .     A
C200   O242    1.277   .     A
C200   O248    1.267   .     A
C201   C206    1.386   .     A
C201   C778    1.400   .     S
C201   H793    1.084   .     S
C202   O231    1.274   .     A
C202   C205    1.452   .     S
C202   O233    1.267   .     A
C203   O234    1.284   .     A
C203   O232    1.286   .     A
C204   C782    1.409   1_554 S
C204   H790    1.080   1_554 S
C206   H225    1.083   .     S
C207   O236    1.399   .     S
C207   O235    1.222   .     D
C208   O237    1.221   .     D
C209   O238    1.221   .     D
C209   C216    1.487   .     S
C209   H220    1.086   .     S
C210   C211    1.483   .     S
C210   O240    1.399   .     S
C210   O239    1.223   .     D
C211   C768    1.400   1_554 S
C211   C779    1.436   1_554 S
C212   C213    1.422   .     A
C212   C778    1.436   .     S
C212   C781    1.429   .     S
C213   C217    1.408   .     A
C214   C779    1.429   1_554 S
C214   C782    1.424   1_554 S
C215   C216    1.411   .     A
C215   C771    1.409   .     S
C215   C781    1.424   .     S
C216   C217    1.390   .     A
C217   H227    1.082   .     S
H218   C259    1.086   .     S
H219   C397    1.085   .     S
H221   O240    1.014   .     S
H222   C387    1.086   .     S
H223   C771    1.080   .     S
H226   C768    1.084   1_554 S
H228   C321    1.088   1_455 S
H229   O236    1.014   .     S
O230   Zn250   1.949   .     S
O230   Zn251   1.923   .     S
O230   Zn252   1.941   .     S
O230   Zn249   1.957   .     S
O231   Zn250   1.928   .     S
O232   Zn252   1.940   .     S
O233   Zn251   1.942   .     S
O234   Zn249   1.932   .     S
O241   Zn249   1.932   .     S
O242   Zn252   1.927   .     S
O243   Zn250   1.926   .     S
O244   Zn251   1.936   .     S
O245   Zn252   1.930   .     S
O246   Zn249   1.919   .     S
O247   Zn250   1.935   .     S
O248   Zn251   1.936   .     S
C253   O306    1.275   .     A
C253   O308    1.275   .     A
C253   C259    1.437   .     S
C254   H287    1.080   .     S
C254   C268    1.391   .     A
C254   C277    1.402   .     A
C255   C267    1.399   .     A
C255   C270    1.493   .     S
C255   C268    1.411   .     A
C256   O307    1.278   .     A
C256   C258    1.455   .     S
C256   O309    1.274   .     A
C257   C266    1.476   .     S
C257   C276    1.417   .     A
C257   C269    1.398   .     A
C258   C322    1.335   .     S
C258   H354    1.088   .     S
C260   C263    1.463   .     S
C260   C450    1.344   .     S
C260   C460    1.500   .     S
C261   C262    1.437   .     S
C262   O304    1.278   .     A
C262   O310    1.277   .     A
C263   O305    1.277   .     A
C263   O311    1.267   .     A
C264   C269    1.386   .     A
C264   C841    1.400   .     S
C264   H856    1.084   .     S
C265   O294    1.274   .     A
C265   C268    1.452   .     S
C265   O296    1.267   .     A
C266   O297    1.284   .     A
C266   O295    1.286   .     A
C267   C845    1.409   1_554 S
C267   H853    1.080   1_554 S
C269   H288    1.083   .     S
C270   O299    1.399   .     S
C270   O298    1.222   .     D
C271   O300    1.221   .     D
C272   O301    1.221   .     D
C272   C279    1.487   .     S
C272   H283    1.086   .     S
C273   C274    1.483   .     S
C273   O303    1.399   .     S
C273   O302    1.223   .     D
C274   C831    1.400   1_554 S
C274   C842    1.436   1_554 S
C275   C276    1.422   .     A
C275   C841    1.436   .     S
C275   C844    1.429   .     S
C276   C280    1.408   .     A
C277   C842    1.429   1_554 S
C277   C845    1.424   1_554 S
C278   C279    1.411   .     A
C278   C834    1.409   .     S
C278   C844    1.424   .     S
C279   C280    1.390   .     A
C280   H290    1.082   .     S
H281   C322    1.086   .     S
H282   C460    1.085   .     S
H284   O303    1.014   .     S
H285   C450    1.086   .     S
H286   C834    1.080   .     S
H289   C831    1.084   1_554 S
H292   O299    1.014   .     S
O293   Zn313   1.949   .     S
O293   Zn314   1.923   .     S
O293   Zn315   1.941   .     S
O293   Zn312   1.957   .     S
O294   Zn313   1.928   .     S
O295   Zn315   1.940   .     S
O296   Zn314   1.942   .     S
O297   Zn312   1.932   .     S
O304   Zn312   1.932   .     S
O305   Zn315   1.927   .     S
O306   Zn313   1.926   .     S
O307   Zn314   1.936   .     S
O308   Zn315   1.930   .     S
O309   Zn312   1.919   .     S
O310   Zn313   1.935   .     S
O311   Zn314   1.936   .     S
C316   O369    1.275   .     A
C316   O371    1.275   .     A
C316   C322    1.437   .     S
C317   H350    1.080   .     S
C317   C331    1.391   .     A
C317   C340    1.402   .     A
C318   C330    1.399   .     A
C318   C333    1.493   .     S
C318   C331    1.411   .     A
C319   O370    1.278   .     A
C319   C321    1.455   .     S
C319   O372    1.274   .     A
C320   C329    1.476   .     S
C320   C339    1.417   .     A
C320   C332    1.398   .     A
C321   C196    1.335   1_655 S
C321   H228    1.088   1_655 S
C323   C326    1.463   .     S
C323   C513    1.344   .     S
C323   C523    1.500   .     S
C324   C325    1.437   .     S
C325   O367    1.278   .     A
C325   O373    1.277   .     A
C326   O368    1.277   .     A
C326   O374    1.267   .     A
C327   C332    1.386   .     A
C327   C904    1.400   .     S
C327   H919    1.084   .     S
C328   O357    1.274   .     A
C328   C331    1.452   .     S
C328   O359    1.267   .     A
C329   O360    1.284   .     A
C329   O358    1.286   .     A
C330   C908    1.409   1_554 S
C330   H916    1.080   1_554 S
C332   H351    1.083   .     S
C333   O362    1.399   .     S
C333   O361    1.222   .     D
C334   O363    1.221   .     D
C335   O364    1.221   .     D
C335   C342    1.487   .     S
C335   H346    1.086   .     S
C336   C337    1.483   .     S
C336   O366    1.399   .     S
C336   O365    1.223   .     D
C337   C894    1.400   1_554 S
C337   C905    1.436   1_554 S
C338   C339    1.422   .     A
C338   C904    1.436   .     S
C338   C907    1.429   .     S
C339   C343    1.408   .     A
C340   C905    1.429   1_554 S
C340   C908    1.424   1_554 S
C341   C342    1.411   .     A
C341   C897    1.409   .     S
C341   C907    1.424   .     S
C342   C343    1.390   .     A
C343   H353    1.082   .     S
H344   C196    1.086   1_655 S
H345   C523    1.085   .     S
H347   O366    1.014   .     S
H348   C513    1.086   .     S
H349   C897    1.080   .     S
H352   C894    1.084   1_554 S
H355   O362    1.014   .     S
O356   Zn376   1.949   .     S
O356   Zn377   1.923   .     S
O356   Zn378   1.941   .     S
O356   Zn375   1.957   .     S
O357   Zn376   1.928   .     S
O358   Zn378   1.940   .     S
O359   Zn377   1.942   .     S
O360   Zn375   1.932   .     S
O367   Zn375   1.932   .     S
O368   Zn378   1.927   .     S
O369   Zn376   1.926   .     S
O370   Zn377   1.936   .     S
O371   Zn378   1.930   .     S
O372   Zn375   1.919   .     S
O373   Zn376   1.935   .     S
O374   Zn377   1.936   .     S
C379   O432    1.275   .     A
C379   O434    1.275   .     A
C379   C385    1.437   .     S
C380   H413    1.080   .     S
C380   C394    1.391   .     A
C380   C403    1.402   .     A
C381   C393    1.399   .     A
C381   C396    1.493   .     S
C381   C394    1.411   .     A
C382   O433    1.278   .     A
C382   C384    1.455   .     S
C382   O435    1.274   .     A
C383   C392    1.476   .     S
C383   C402    1.417   .     A
C383   C395    1.398   .     A
C384   C448    1.335   .     S
C384   H480    1.088   .     S
C385   C510    1.335   1_455 S
C385   H533    1.086   1_455 S
C386   C389    1.463   .     S
C386   C9      1.344   1_565 S
C386   C19     1.500   1_565 S
C387   C388    1.437   .     S
C388   O430    1.278   .     A
C388   O436    1.277   .     A
C389   O431    1.277   .     A
C389   O437    1.267   .     A
C390   C395    1.386   .     A
C390   C967    1.400   .     S
C390   H982    1.084   .     S
C391   O420    1.274   .     A
C391   C394    1.452   .     S
C391   O422    1.267   .     A
C392   O423    1.284   .     A
C392   O421    1.286   .     A
C393   C971    1.409   1_554 S
C393   H979    1.080   1_554 S
C395   H414    1.083   .     S
C396   O425    1.399   .     S
C396   O424    1.222   .     D
C397   O426    1.221   .     D
C398   O427    1.221   .     D
C398   C405    1.487   .     S
C398   H409    1.086   .     S
C399   C400    1.483   .     S
C399   O429    1.399   .     S
C399   O428    1.223   .     D
C400   C957    1.400   1_554 S
C400   C968    1.436   1_554 S
C401   C402    1.422   .     A
C401   C967    1.436   .     S
C401   C970    1.429   .     S
C402   C406    1.408   .     A
C403   C968    1.429   1_554 S
C403   C971    1.424   1_554 S
C404   C405    1.411   .     A
C404   C960    1.409   .     S
C404   C970    1.424   .     S
C405   C406    1.390   .     A
C406   H416    1.082   .     S
H407   C448    1.086   .     S
H408   C19     1.085   1_565 S
H410   O429    1.014   .     S
H411   C9      1.086   1_565 S
H412   C960    1.080   .     S
H415   C957    1.084   1_554 S
H417   C510    1.088   1_455 S
H418   O425    1.014   .     S
O419   Zn439   1.949   .     S
O419   Zn440   1.923   .     S
O419   Zn441   1.941   .     S
O419   Zn438   1.957   .     S
O420   Zn439   1.928   .     S
O421   Zn441   1.940   .     S
O422   Zn440   1.942   .     S
O423   Zn438   1.932   .     S
O430   Zn438   1.932   .     S
O431   Zn441   1.927   .     S
O432   Zn439   1.926   .     S
O433   Zn440   1.936   .     S
O434   Zn441   1.930   .     S
O435   Zn438   1.919   .     S
O436   Zn439   1.935   .     S
O437   Zn440   1.936   .     S
C442   O495    1.275   .     A
C442   O497    1.275   .     A
C442   C448    1.437   .     S
C443   H476    1.080   .     S
C443   C457    1.391   .     A
C443   C466    1.402   .     A
C444   C456    1.399   .     A
C444   C459    1.493   .     S
C444   C457    1.411   .     A
C445   O496    1.278   .     A
C445   C447    1.455   .     S
C445   O498    1.274   .     A
C446   C455    1.476   .     S
C446   C465    1.417   .     A
C446   C458    1.398   .     A
C447   C511    1.335   .     S
C447   H543    1.088   .     S
C449   C452    1.463   .     S
C449   C72     1.344   1_565 S
C449   C82     1.500   1_565 S
C450   C451    1.437   .     S
C451   O493    1.278   .     A
C451   O499    1.277   .     A
C452   O494    1.277   .     A
C452   O500    1.267   .     A
C453   C458    1.386   .     A
C453   C1030   1.400   .     S
C453   H1045   1.084   .     S
C454   O483    1.274   .     A
C454   C457    1.452   .     S
C454   O485    1.267   .     A
C455   O486    1.284   .     A
C455   O484    1.286   .     A
C456   C1034   1.409   1_554 S
C456   H1042   1.080   1_554 S
C458   H477    1.083   .     S
C459   O488    1.399   .     S
C459   O487    1.222   .     D
C460   O489    1.221   .     D
C461   O490    1.221   .     D
C461   C468    1.487   .     S
C461   H472    1.086   .     S
C462   C463    1.483   .     S
C462   O492    1.399   .     S
C462   O491    1.223   .     D
C463   C1020   1.400   1_554 S
C463   C1031   1.436   1_554 S
C464   C465    1.422   .     A
C464   C1030   1.436   .     S
C464   C1033   1.429   .     S
C465   C469    1.408   .     A
C466   C1031   1.429   1_554 S
C466   C1034   1.424   1_554 S
C467   C468    1.411   .     A
C467   C1023   1.409   .     S
C467   C1033   1.424   .     S
C468   C469    1.390   .     A
C469   H479    1.082   .     S
H470   C511    1.086   .     S
H471   C82     1.085   1_565 S
H473   O492    1.014   .     S
H474   C72     1.086   1_565 S
H475   C1023   1.080   .     S
H478   C1020   1.084   1_554 S
H481   O488    1.014   .     S
O482   Zn502   1.949   .     S
O482   Zn503   1.923   .     S
O482   Zn504   1.941   .     S
O482   Zn501   1.957   .     S
O483   Zn502   1.928   .     S
O484   Zn504   1.940   .     S
O485   Zn503   1.942   .     S
O486   Zn501   1.932   .     S
O493   Zn501   1.932   .     S
O494   Zn504   1.927   .     S
O495   Zn502   1.926   .     S
O496   Zn503   1.936   .     S
O497   Zn504   1.930   .     S
O498   Zn501   1.919   .     S
O499   Zn502   1.935   .     S
O500   Zn503   1.936   .     S
C505   O558    1.275   .     A
C505   O560    1.275   .     A
C505   C511    1.437   .     S
C506   H539    1.080   .     S
C506   C520    1.391   .     A
C506   C529    1.402   .     A
C507   C519    1.399   .     A
C507   C522    1.493   .     S
C507   C520    1.411   .     A
C508   O559    1.278   .     A
C508   C510    1.455   .     S
C508   O561    1.274   .     A
C509   C518    1.476   .     S
C509   C528    1.417   .     A
C509   C521    1.398   .     A
C510   C385    1.335   1_655 S
C510   H417    1.088   1_655 S
C512   C515    1.463   .     S
C512   C135    1.344   1_565 S
C512   C145    1.500   1_565 S
C513   C514    1.437   .     S
C514   O556    1.278   .     A
C514   O562    1.277   .     A
C515   O557    1.277   .     A
C515   O563    1.267   .     A
C516   C521    1.386   .     A
C516   C1093   1.400   .     S
C516   H1108   1.084   .     S
C517   O546    1.274   .     A
C517   C520    1.452   .     S
C517   O548    1.267   .     A
C518   O549    1.284   .     A
C518   O547    1.286   .     A
C519   C1097   1.409   1_554 S
C519   H1105   1.080   1_554 S
C521   H540    1.083   .     S
C522   O551    1.399   .     S
C522   O550    1.222   .     D
C523   O552    1.221   .     D
C524   O553    1.221   .     D
C524   C531    1.487   .     S
C524   H535    1.086   .     S
C525   C526    1.483   .     S
C525   O555    1.399   .     S
C525   O554    1.223   .     D
C526   C1083   1.400   1_554 S
C526   C1094   1.436   1_554 S
C527   C528    1.422   .     A
C527   C1093   1.436   .     S
C527   C1096   1.429   .     S
C528   C532    1.408   .     A
C529   C1094   1.429   1_554 S
C529   C1097   1.424   1_554 S
C530   C531    1.411   .     A
C530   C1086   1.409   .     S
C530   C1096   1.424   .     S
C531   C532    1.390   .     A
C532   H542    1.082   .     S
H533   C385    1.086   1_655 S
H534   C145    1.085   1_565 S
H536   O555    1.014   .     S
H537   C135    1.086   1_565 S
H538   C1086   1.080   .     S
H541   C1083   1.084   1_554 S
H544   O551    1.014   .     S
O545   Zn565   1.949   .     S
O545   Zn566   1.923   .     S
O545   Zn567   1.941   .     S
O545   Zn564   1.957   .     S
O546   Zn565   1.928   .     S
O547   Zn567   1.940   .     S
O548   Zn566   1.942   .     S
O549   Zn564   1.932   .     S
O556   Zn564   1.932   .     S
O557   Zn567   1.927   .     S
O558   Zn565   1.926   .     S
O559   Zn566   1.936   .     S
O560   Zn567   1.930   .     S
O561   Zn564   1.919   .     S
O562   Zn565   1.935   .     S
O563   Zn566   1.936   .     S
C568   O621    1.275   .     A
C568   O623    1.275   .     A
C568   C574    1.437   .     S
C569   H602    1.080   .     S
C569   C583    1.391   .     A
C569   C592    1.402   .     A
C570   C582    1.399   .     A
C570   C585    1.493   .     S
C570   C583    1.411   .     A
C571   O622    1.278   .     A
C571   C573    1.455   .     S
C571   O624    1.274   .     A
C572   C581    1.476   .     S
C572   C591    1.417   .     A
C572   C584    1.398   .     A
C573   C637    1.335   .     S
C573   H669    1.088   .     S
C574   C699    1.335   1_455 S
C574   H722    1.086   1_455 S
C575   C578    1.463   .     S
C575   C765    1.344   .     S
C575   C775    1.500   .     S
C576   C577    1.437   .     S
C576   C953    1.344   1_545 S
C576   H978    1.086   1_545 S
C577   O619    1.278   .     A
C577   O625    1.277   .     A
C578   O620    1.277   .     A
C578   O626    1.267   .     A
C579   C584    1.386   .     A
C579   C22     1.400   1_556 S
C579   H37     1.084   1_556 S
C580   O609    1.274   .     A
C580   C583    1.452   .     S
C580   O611    1.267   .     A
C581   O612    1.284   .     A
C581   O610    1.286   .     A
C584   H603    1.083   .     S
C585   O614    1.399   .     S
C585   O613    1.222   .     D
C586   O615    1.221   .     D
C586   C953    1.500   1_545 S
C586   H975    1.085   1_545 S
C587   O616    1.221   .     D
C587   C594    1.487   .     S
C587   H598    1.086   .     S
C588   C589    1.483   .     S
C588   O618    1.399   .     S
C588   O617    1.223   .     D
C590   C591    1.422   .     A
C590   C22     1.436   1_556 S
C590   C25     1.429   1_556 S
C591   C595    1.408   .     A
C593   C594    1.411   .     A
C593   C15     1.409   1_556 S
C593   C25     1.424   1_556 S
C594   C595    1.390   .     A
C595   H605    1.082   .     S
H596   C637    1.086   .     S
H597   C775    1.085   .     S
H599   O618    1.014   .     S
H600   C765    1.086   .     S
H601   C15     1.080   1_556 S
H606   C699    1.088   1_455 S
H607   O614    1.014   .     S
O608   Zn628   1.949   .     S
O608   Zn629   1.923   .     S
O608   Zn630   1.941   .     S
O608   Zn627   1.957   .     S
O609   Zn628   1.928   .     S
O610   Zn630   1.940   .     S
O611   Zn629   1.942   .     S
O612   Zn627   1.932   .     S
O619   Zn627   1.932   .     S
O620   Zn630   1.927   .     S
O621   Zn628   1.926   .     S
O622   Zn629   1.936   .     S
O623   Zn630   1.930   .     S
O624   Zn627   1.919   .     S
O625   Zn628   1.935   .     S
O626   Zn629   1.936   .     S
C631   O684    1.275   .     A
C631   O686    1.275   .     A
C631   C637    1.437   .     S
C632   H665    1.080   .     S
C632   C646    1.391   .     A
C632   C655    1.402   .     A
C633   C645    1.399   .     A
C633   C648    1.493   .     S
C633   C646    1.411   .     A
C634   O685    1.278   .     A
C634   C636    1.455   .     S
C634   O687    1.274   .     A
C635   C644    1.476   .     S
C635   C654    1.417   .     A
C635   C647    1.398   .     A
C636   C700    1.335   .     S
C636   H732    1.088   .     S
C638   C641    1.463   .     S
C638   C828    1.344   .     S
C638   C838    1.500   .     S
C639   C640    1.437   .     S
C639   C1016   1.344   1_545 S
C639   H1041   1.086   1_545 S
C640   O682    1.278   .     A
C640   O688    1.277   .     A
C641   O683    1.277   .     A
C641   O689    1.267   .     A
C642   C647    1.386   .     A
C642   C85     1.400   1_556 S
C642   H100    1.084   1_556 S
C643   O672    1.274   .     A
C643   C646    1.452   .     S
C643   O674    1.267   .     A
C644   O675    1.284   .     A
C644   O673    1.286   .     A
C647   H666    1.083   .     S
C648   O677    1.399   .     S
C648   O676    1.222   .     D
C649   O678    1.221   .     D
C649   C1016   1.500   1_545 S
C649   H1038   1.085   1_545 S
C650   O679    1.221   .     D
C650   C657    1.487   .     S
C650   H661    1.086   .     S
C651   C652    1.483   .     S
C651   O681    1.399   .     S
C651   O680    1.223   .     D
C653   C654    1.422   .     A
C653   C85     1.436   1_556 S
C653   C88     1.429   1_556 S
C654   C658    1.408   .     A
C656   C657    1.411   .     A
C656   C78     1.409   1_556 S
C656   C88     1.424   1_556 S
C657   C658    1.390   .     A
C658   H668    1.082   .     S
H659   C700    1.086   .     S
H660   C838    1.085   .     S
H662   O681    1.014   .     S
H663   C828    1.086   .     S
H664   C78     1.080   1_556 S
H670   O677    1.014   .     S
O671   Zn691   1.949   .     S
O671   Zn692   1.923   .     S
O671   Zn693   1.941   .     S
O671   Zn690   1.957   .     S
O672   Zn691   1.928   .     S
O673   Zn693   1.940   .     S
O674   Zn692   1.942   .     S
O675   Zn690   1.932   .     S
O682   Zn690   1.932   .     S
O683   Zn693   1.927   .     S
O684   Zn691   1.926   .     S
O685   Zn692   1.936   .     S
O686   Zn693   1.930   .     S
O687   Zn690   1.919   .     S
O688   Zn691   1.935   .     S
O689   Zn692   1.936   .     S
C694   O747    1.275   .     A
C694   O749    1.275   .     A
C694   C700    1.437   .     S
C695   H728    1.080   .     S
C695   C709    1.391   .     A
C695   C718    1.402   .     A
C696   C708    1.399   .     A
C696   C711    1.493   .     S
C696   C709    1.411   .     A
C697   O748    1.278   .     A
C697   C699    1.455   .     S
C697   O750    1.274   .     A
C698   C707    1.476   .     S
C698   C717    1.417   .     A
C698   C710    1.398   .     A
C699   C574    1.335   1_655 S
C699   H606    1.088   1_655 S
C701   C704    1.463   .     S
C701   C891    1.344   .     S
C701   C901    1.500   .     S
C702   C703    1.437   .     S
C702   C1079   1.344   1_545 S
C702   H1104   1.086   1_545 S
C703   O745    1.278   .     A
C703   O751    1.277   .     A
C704   O746    1.277   .     A
C704   O752    1.267   .     A
C705   C710    1.386   .     A
C705   C148    1.400   1_556 S
C705   H163    1.084   1_556 S
C706   O735    1.274   .     A
C706   C709    1.452   .     S
C706   O737    1.267   .     A
C707   O738    1.284   .     A
C707   O736    1.286   .     A
C710   H729    1.083   .     S
C711   O740    1.399   .     S
C711   O739    1.222   .     D
C712   O741    1.221   .     D
C712   C1079   1.500   1_545 S
C712   H1101   1.085   1_545 S
C713   O742    1.221   .     D
C713   C720    1.487   .     S
C713   H724    1.086   .     S
C714   C715    1.483   .     S
C714   O744    1.399   .     S
C714   O743    1.223   .     D
C716   C717    1.422   .     A
C716   C148    1.436   1_556 S
C716   C151    1.429   1_556 S
C717   C721    1.408   .     A
C719   C720    1.411   .     A
C719   C141    1.409   1_556 S
C719   C151    1.424   1_556 S
C720   C721    1.390   .     A
C721   H731    1.082   .     S
H722   C574    1.086   1_655 S
H723   C901    1.085   .     S
H725   O744    1.014   .     S
H726   C891    1.086   .     S
H727   C141    1.080   1_556 S
H733   O740    1.014   .     S
O734   Zn754   1.949   .     S
O734   Zn755   1.923   .     S
O734   Zn756   1.941   .     S
O734   Zn753   1.957   .     S
O735   Zn754   1.928   .     S
O736   Zn756   1.940   .     S
O737   Zn755   1.942   .     S
O738   Zn753   1.932   .     S
O745   Zn753   1.932   .     S
O746   Zn756   1.927   .     S
O747   Zn754   1.926   .     S
O748   Zn755   1.936   .     S
O749   Zn756   1.930   .     S
O750   Zn753   1.919   .     S
O751   Zn754   1.935   .     S
O752   Zn755   1.936   .     S
C757   O810    1.275   .     A
C757   O812    1.275   .     A
C757   C763    1.437   .     S
C758   H791    1.080   .     S
C758   C772    1.391   .     A
C758   C781    1.402   .     A
C759   C771    1.399   .     A
C759   C774    1.493   .     S
C759   C772    1.411   .     A
C760   O811    1.278   .     A
C760   C762    1.455   .     S
C760   O813    1.274   .     A
C761   C770    1.476   .     S
C761   C780    1.417   .     A
C761   C773    1.398   .     A
C762   C826    1.335   .     S
C762   H858    1.088   .     S
C763   C888    1.335   1_455 S
C763   H911    1.086   1_455 S
C764   C767    1.463   .     S
C764   C954    1.344   .     S
C764   C964    1.500   .     S
C765   C766    1.437   .     S
C766   O808    1.278   .     A
C766   O814    1.277   .     A
C767   O809    1.277   .     A
C767   O815    1.267   .     A
C768   C773    1.386   .     A
C768   C211    1.400   1_556 S
C768   H226    1.084   1_556 S
C769   O798    1.274   .     A
C769   C772    1.452   .     S
C769   O800    1.267   .     A
C770   O801    1.284   .     A
C770   O799    1.286   .     A
C773   H792    1.083   .     S
C774   O803    1.399   .     S
C774   O802    1.222   .     D
C775   O804    1.221   .     D
C776   O805    1.221   .     D
C776   C783    1.487   .     S
C776   H787    1.086   .     S
C777   C778    1.483   .     S
C777   O807    1.399   .     S
C777   O806    1.223   .     D
C779   C780    1.422   .     A
C779   C211    1.436   1_556 S
C779   C214    1.429   1_556 S
C780   C784    1.408   .     A
C782   C783    1.411   .     A
C782   C204    1.409   1_556 S
C782   C214    1.424   1_556 S
C783   C784    1.390   .     A
C784   H794    1.082   .     S
H785   C826    1.086   .     S
H786   C964    1.085   .     S
H788   O807    1.014   .     S
H789   C954    1.086   .     S
H790   C204    1.080   1_556 S
H795   C888    1.088   1_455 S
H796   O803    1.014   .     S
O797   Zn817   1.949   .     S
O797   Zn818   1.923   .     S
O797   Zn819   1.941   .     S
O797   Zn816   1.957   .     S
O798   Zn817   1.928   .     S
O799   Zn819   1.940   .     S
O800   Zn818   1.942   .     S
O801   Zn816   1.932   .     S
O808   Zn816   1.932   .     S
O809   Zn819   1.927   .     S
O810   Zn817   1.926   .     S
O811   Zn818   1.936   .     S
O812   Zn819   1.930   .     S
O813   Zn816   1.919   .     S
O814   Zn817   1.935   .     S
O815   Zn818   1.936   .     S
C820   O873    1.275   .     A
C820   O875    1.275   .     A
C820   C826    1.437   .     S
C821   H854    1.080   .     S
C821   C835    1.391   .     A
C821   C844    1.402   .     A
C822   C834    1.399   .     A
C822   C837    1.493   .     S
C822   C835    1.411   .     A
C823   O874    1.278   .     A
C823   C825    1.455   .     S
C823   O876    1.274   .     A
C824   C833    1.476   .     S
C824   C843    1.417   .     A
C824   C836    1.398   .     A
C825   C889    1.335   .     S
C825   H921    1.088   .     S
C827   C830    1.463   .     S
C827   C1017   1.344   .     S
C827   C1027   1.500   .     S
C828   C829    1.437   .     S
C829   O871    1.278   .     A
C829   O877    1.277   .     A
C830   O872    1.277   .     A
C830   O878    1.267   .     A
C831   C836    1.386   .     A
C831   C274    1.400   1_556 S
C831   H289    1.084   1_556 S
C832   O861    1.274   .     A
C832   C835    1.452   .     S
C832   O863    1.267   .     A
C833   O864    1.284   .     A
C833   O862    1.286   .     A
C836   H855    1.083   .     S
C837   O866    1.399   .     S
C837   O865    1.222   .     D
C838   O867    1.221   .     D
C839   O868    1.221   .     D
C839   C846    1.487   .     S
C839   H850    1.086   .     S
C840   C841    1.483   .     S
C840   O870    1.399   .     S
C840   O869    1.223   .     D
C842   C843    1.422   .     A
C842   C274    1.436   1_556 S
C842   C277    1.429   1_556 S
C843   C847    1.408   .     A
C845   C846    1.411   .     A
C845   C267    1.409   1_556 S
C845   C277    1.424   1_556 S
C846   C847    1.390   .     A
C847   H857    1.082   .     S
H848   C889    1.086   .     S
H849   C1027   1.085   .     S
H851   O870    1.014   .     S
H852   C1017   1.086   .     S
H853   C267    1.080   1_556 S
H859   O866    1.014   .     S
O860   Zn880   1.949   .     S
O860   Zn881   1.923   .     S
O860   Zn882   1.941   .     S
O860   Zn879   1.957   .     S
O861   Zn880   1.928   .     S
O862   Zn882   1.940   .     S
O863   Zn881   1.942   .     S
O864   Zn879   1.932   .     S
O871   Zn879   1.932   .     S
O872   Zn882   1.927   .     S
O873   Zn880   1.926   .     S
O874   Zn881   1.936   .     S
O875   Zn882   1.930   .     S
O876   Zn879   1.919   .     S
O877   Zn880   1.935   .     S
O878   Zn881   1.936   .     S
C883   O936    1.275   .     A
C883   O938    1.275   .     A
C883   C889    1.437   .     S
C884   H917    1.080   .     S
C884   C898    1.391   .     A
C884   C907    1.402   .     A
C885   C897    1.399   .     A
C885   C900    1.493   .     S
C885   C898    1.411   .     A
C886   O937    1.278   .     A
C886   C888    1.455   .     S
C886   O939    1.274   .     A
C887   C896    1.476   .     S
C887   C906    1.417   .     A
C887   C899    1.398   .     A
C888   C763    1.335   1_655 S
C888   H795    1.088   1_655 S
C890   C893    1.463   .     S
C890   C1080   1.344   .     S
C890   C1090   1.500   .     S
C891   C892    1.437   .     S
C892   O934    1.278   .     A
C892   O940    1.277   .     A
C893   O935    1.277   .     A
C893   O941    1.267   .     A
C894   C899    1.386   .     A
C894   C337    1.400   1_556 S
C894   H352    1.084   1_556 S
C895   O924    1.274   .     A
C895   C898    1.452   .     S
C895   O926    1.267   .     A
C896   O927    1.284   .     A
C896   O925    1.286   .     A
C899   H918    1.083   .     S
C900   O929    1.399   .     S
C900   O928    1.222   .     D
C901   O930    1.221   .     D
C902   O931    1.221   .     D
C902   C909    1.487   .     S
C902   H913    1.086   .     S
C903   C904    1.483   .     S
C903   O933    1.399   .     S
C903   O932    1.223   .     D
C905   C906    1.422   .     A
C905   C337    1.436   1_556 S
C905   C340    1.429   1_556 S
C906   C910    1.408   .     A
C908   C909    1.411   .     A
C908   C330    1.409   1_556 S
C908   C340    1.424   1_556 S
C909   C910    1.390   .     A
C910   H920    1.082   .     S
H911   C763    1.086   1_655 S
H912   C1090   1.085   .     S
H914   O933    1.014   .     S
H915   C1080   1.086   .     S
H916   C330    1.080   1_556 S
H922   O929    1.014   .     S
O923   Zn943   1.949   .     S
O923   Zn944   1.923   .     S
O923   Zn945   1.941   .     S
O923   Zn942   1.957   .     S
O924   Zn943   1.928   .     S
O925   Zn945   1.940   .     S
O926   Zn944   1.942   .     S
O927   Zn942   1.932   .     S
O934   Zn942   1.932   .     S
O935   Zn945   1.927   .     S
O936   Zn943   1.926   .     S
O937   Zn944   1.936   .     S
O938   Zn945   1.930   .     S
O939   Zn942   1.919   .     S
O940   Zn943   1.935   .     S
O941   Zn944   1.936   .     S
C946   O999    1.275   .     A
C946   O1001   1.275   .     A
C946   C952    1.437   .     S
C947   H980    1.080   .     S
C947   C961    1.391   .     A
C947   C970    1.402   .     A
C948   C960    1.399   .     A
C948   C963    1.493   .     S
C948   C961    1.411   .     A
C949   O1000   1.278   .     A
C949   C951    1.455   .     S
C949   O1002   1.274   .     A
C950   C959    1.476   .     S
C950   C969    1.417   .     A
C950   C962    1.398   .     A
C951   C1015   1.335   .     S
C951   H1047   1.088   .     S
C952   C1077   1.335   1_455 S
C952   H1100   1.086   1_455 S
C953   C956    1.463   .     S
C953   C576    1.344   1_565 S
C953   C586    1.500   1_565 S
C954   C955    1.437   .     S
C955   O997    1.278   .     A
C955   O1003   1.277   .     A
C956   O998    1.277   .     A
C956   O1004   1.267   .     A
C957   C962    1.386   .     A
C957   C400    1.400   1_556 S
C957   H415    1.084   1_556 S
C958   O987    1.274   .     A
C958   C961    1.452   .     S
C958   O989    1.267   .     A
C959   O990    1.284   .     A
C959   O988    1.286   .     A
C962   H981    1.083   .     S
C963   O992    1.399   .     S
C963   O991    1.222   .     D
C964   O993    1.221   .     D
C965   O994    1.221   .     D
C965   C972    1.487   .     S
C965   H976    1.086   .     S
C966   C967    1.483   .     S
C966   O996    1.399   .     S
C966   O995    1.223   .     D
C968   C969    1.422   .     A
C968   C400    1.436   1_556 S
C968   C403    1.429   1_556 S
C969   C973    1.408   .     A
C971   C972    1.411   .     A
C971   C393    1.409   1_556 S
C971   C403    1.424   1_556 S
C972   C973    1.390   .     A
C973   H983    1.082   .     S
H974   C1015   1.086   .     S
H975   C586    1.085   1_565 S
H977   O996    1.014   .     S
H978   C576    1.086   1_565 S
H979   C393    1.080   1_556 S
H984   C1077   1.088   1_455 S
H985   O992    1.014   .     S
O986   Zn1006  1.949   .     S
O986   Zn1007  1.923   .     S
O986   Zn1008  1.941   .     S
O986   Zn1005  1.957   .     S
O987   Zn1006  1.928   .     S
O988   Zn1008  1.940   .     S
O989   Zn1007  1.942   .     S
O990   Zn1005  1.932   .     S
O997   Zn1005  1.932   .     S
O998   Zn1008  1.927   .     S
O999   Zn1006  1.926   .     S
O1000  Zn1007  1.936   .     S
O1001  Zn1008  1.930   .     S
O1002  Zn1005  1.919   .     S
O1003  Zn1006  1.935   .     S
O1004  Zn1007  1.936   .     S
C1009  O1062   1.275   .     A
C1009  O1064   1.275   .     A
C1009  C1015   1.437   .     S
C1010  H1043   1.080   .     S
C1010  C1024   1.391   .     A
C1010  C1033   1.402   .     A
C1011  C1023   1.399   .     A
C1011  C1026   1.493   .     S
C1011  C1024   1.411   .     A
C1012  O1063   1.278   .     A
C1012  C1014   1.455   .     S
C1012  O1065   1.274   .     A
C1013  C1022   1.476   .     S
C1013  C1032   1.417   .     A
C1013  C1025   1.398   .     A
C1014  C1078   1.335   .     S
C1014  H1110   1.088   .     S
C1016  C1019   1.463   .     S
C1016  C639    1.344   1_565 S
C1016  C649    1.500   1_565 S
C1017  C1018   1.437   .     S
C1018  O1060   1.278   .     A
C1018  O1066   1.277   .     A
C1019  O1061   1.277   .     A
C1019  O1067   1.267   .     A
C1020  C1025   1.386   .     A
C1020  C463    1.400   1_556 S
C1020  H478    1.084   1_556 S
C1021  O1050   1.274   .     A
C1021  C1024   1.452   .     S
C1021  O1052   1.267   .     A
C1022  O1053   1.284   .     A
C1022  O1051   1.286   .     A
C1025  H1044   1.083   .     S
C1026  O1055   1.399   .     S
C1026  O1054   1.222   .     D
C1027  O1056   1.221   .     D
C1028  O1057   1.221   .     D
C1028  C1035   1.487   .     S
C1028  H1039   1.086   .     S
C1029  C1030   1.483   .     S
C1029  O1059   1.399   .     S
C1029  O1058   1.223   .     D
C1031  C1032   1.422   .     A
C1031  C463    1.436   1_556 S
C1031  C466    1.429   1_556 S
C1032  C1036   1.408   .     A
C1034  C1035   1.411   .     A
C1034  C456    1.409   1_556 S
C1034  C466    1.424   1_556 S
C1035  C1036   1.390   .     A
C1036  H1046   1.082   .     S
H1037  C1078   1.086   .     S
H1038  C649    1.085   1_565 S
H1040  O1059   1.014   .     S
H1041  C639    1.086   1_565 S
H1042  C456    1.080   1_556 S
H1048  O1055   1.014   .     S
O1049  Zn1069  1.949   .     S
O1049  Zn1070  1.923   .     S
O1049  Zn1071  1.941   .     S
O1049  Zn1068  1.957   .     S
O1050  Zn1069  1.928   .     S
O1051  Zn1071  1.940   .     S
O1052  Zn1070  1.942   .     S
O1053  Zn1068  1.932   .     S
O1060  Zn1068  1.932   .     S
O1061  Zn1071  1.927   .     S
O1062  Zn1069  1.926   .     S
O1063  Zn1070  1.936   .     S
O1064  Zn1071  1.930   .     S
O1065  Zn1068  1.919   .     S
O1066  Zn1069  1.935   .     S
O1067  Zn1070  1.936   .     S
C1072  O1125   1.275   .     A
C1072  O1127   1.275   .     A
C1072  C1078   1.437   .     S
C1073  H1106   1.080   .     S
C1073  C1087   1.391   .     A
C1073  C1096   1.402   .     A
C1074  C1086   1.399   .     A
C1074  C1089   1.493   .     S
C1074  C1087   1.411   .     A
C1075  O1126   1.278   .     A
C1075  C1077   1.455   .     S
C1075  O1128   1.274   .     A
C1076  C1085   1.476   .     S
C1076  C1095   1.417   .     A
C1076  C1088   1.398   .     A
C1077  C952    1.335   1_655 S
C1077  H984    1.088   1_655 S
C1079  C1082   1.463   .     S
C1079  C702    1.344   1_565 S
C1079  C712    1.500   1_565 S
C1080  C1081   1.437   .     S
C1081  O1123   1.278   .     A
C1081  O1129   1.277   .     A
C1082  O1124   1.277   .     A
C1082  O1130   1.267   .     A
C1083  C1088   1.386   .     A
C1083  C526    1.400   1_556 S
C1083  H541    1.084   1_556 S
C1084  O1113   1.274   .     A
C1084  C1087   1.452   .     S
C1084  O1115   1.267   .     A
C1085  O1116   1.284   .     A
C1085  O1114   1.286   .     A
C1088  H1107   1.083   .     S
C1089  O1118   1.399   .     S
C1089  O1117   1.222   .     D
C1090  O1119   1.221   .     D
C1091  O1120   1.221   .     D
C1091  C1098   1.487   .     S
C1091  H1102   1.086   .     S
C1092  C1093   1.483   .     S
C1092  O1122   1.399   .     S
C1092  O1121   1.223   .     D
C1094  C1095   1.422   .     A
C1094  C526    1.436   1_556 S
C1094  C529    1.429   1_556 S
C1095  C1099   1.408   .     A
C1097  C1098   1.411   .     A
C1097  C519    1.409   1_556 S
C1097  C529    1.424   1_556 S
C1098  C1099   1.390   .     A
C1099  H1109   1.082   .     S
H1100  C952    1.086   1_655 S
H1101  C712    1.085   1_565 S
H1103  O1122   1.014   .     S
H1104  C702    1.086   1_565 S
H1105  C519    1.080   1_556 S
H1111  O1118   1.014   .     S
O1112  Zn1132  1.949   .     S
O1112  Zn1133  1.923   .     S
O1112  Zn1134  1.941   .     S
O1112  Zn1131  1.957   .     S
O1113  Zn1132  1.928   .     S
O1114  Zn1134  1.940   .     S
O1115  Zn1133  1.942   .     S
O1116  Zn1131  1.932   .     S
O1123  Zn1131  1.932   .     S
O1124  Zn1134  1.927   .     S
O1125  Zn1132  1.926   .     S
O1126  Zn1133  1.936   .     S
O1127  Zn1134  1.930   .     S
O1128  Zn1131  1.919   .     S
O1129  Zn1132  1.935   .     S
O1130  Zn1133  1.936   .     S
