data_str_m3_o1_o18_pcu_sym.85
_audit_creation_date              2020-01-03
_audit_creation_method            'Materials Studio'
_symmetry_space_group_name_H-M    'P1'
_symmetry_Int_Tables_number       1
_symmetry_cell_setting            triclinic
loop_
_symmetry_equiv_pos_as_xyz
  x,y,z
_cell_length_a                    29.6871
_cell_length_b                    32.3423
_cell_length_c                    30.9673
_cell_angle_alpha                 91.4109
_cell_angle_beta                  70.3870
_cell_angle_gamma                 91.5429
loop_
_atom_site_label
_atom_site_type_symbol
_atom_site_fract_x
_atom_site_fract_y
_atom_site_fract_z
_atom_site_U_iso_or_equiv
_atom_site_adp_type
_atom_site_occupancy
C1     C     0.16878   0.24651   0.24588   0.00000  Uiso   1.00
C2     C     0.13245   0.31103   0.23629   0.00000  Uiso   1.00
C3     C     0.16394   0.04195   0.25516   0.00000  Uiso   1.00
C4     C     0.17179   0.29088   0.24080   0.00000  Uiso   1.00
C5     C     0.32002   0.14523   0.21680   0.00000  Uiso   1.00
C6     C     0.01282   0.18735   0.28364   0.00000  Uiso   1.00
C7     C     0.03476   0.14382   0.21786   0.00000  Uiso   1.00
C8     C     0.29825   0.18790   0.28312   0.00000  Uiso   1.00
C9     C     0.13723   0.16436   0.33767   0.00000  Uiso   1.00
C10    C     0.19579   0.17063   0.16270   0.00000  Uiso   1.00
C11    C     0.12165   0.15065   0.38565   0.00000  Uiso   1.00
C12    C     0.16511   0.08660   0.25298   0.00000  Uiso   1.00
C13    C     0.21193   0.17891   0.11327   0.00000  Uiso   1.00
C14    C     0.08937   0.09481   0.44002   0.00000  Uiso   1.00
C15    C     0.26878   0.20655   0.04330   0.00000  Uiso   1.00
C16    C     0.09211   0.11514   0.39952   0.00000  Uiso   1.00
C17    C     0.25351   0.20239   0.09112   0.00000  Uiso   1.00
C18    C     0.14671   0.16621   0.41359   0.00000  Uiso   1.00
C19    C     0.18180   0.16823   0.08831   0.00000  Uiso   1.00
C20    C     0.14967   0.14279   0.45016   0.00000  Uiso   1.00
C21    C     0.20138   0.16268   0.04098   0.00000  Uiso   1.00
C22    C     0.11590   0.11029   0.46764   0.00000  Uiso   1.00
C23    C     0.13950   0.11094   0.03613   0.00000  Uiso   1.00
C24    C     0.24515   0.18333   0.01737   0.00000  Uiso   1.00
C25    C     0.18466   0.15201   0.47066   0.00000  Uiso   1.00
C26    C     0.17482   0.14191   0.01651   0.00000  Uiso   1.00
C27    C     0.09327   0.02506   0.43079   0.00000  Uiso   1.00
C28    C     0.28380   0.27218   0.01698   0.00000  Uiso   1.00
C29    C     0.16825   0.06496   0.07417   0.00000  Uiso   1.00
C30    C     0.25679   0.12333   0.38396   0.00000  Uiso   1.00
C31    C     0.29339   0.31540   0.20989   0.00000  Uiso   1.00
C32    C     0.04282   0.01537   0.28402   0.00000  Uiso   1.00
C33    C     0.22543   0.03735   0.32009   0.00000  Uiso   1.00
C34    C     0.23131   0.16711   0.44570   0.00000  Uiso   1.00
C35    C     0.11945   0.29365   0.17017   0.00000  Uiso   1.00
C36    C     0.32854   0.14074   0.14049   0.00000  Uiso   1.00
C37    C     0.03752   0.24266   0.31895   0.00000  Uiso   1.00
C38    C     0.05539   0.07870   0.18559   0.00000  Uiso   1.00
C39    C     0.26507   0.24870   0.31784   0.00000  Uiso   1.00
C40    C     0.11034   0.09487   0.01179   0.00000  Uiso   1.00
C41    C     0.26190   0.18181   0.46907   0.00000  Uiso   1.00
C42    C     0.21100   0.31375   0.24515   0.00000  Uiso   1.00
C43    C     0.12526   0.01893   0.24986   0.00000  Uiso   1.00
C44    C     0.20459   0.02201   0.25754   0.00000  Uiso   1.00
H45    H     0.07205   0.32912   0.43916   0.00000  Uiso   1.00
H46    H     0.27386   0.10590   0.40475   0.00000  Uiso   1.00
H47    H     0.28123   0.12239   0.34793   0.00000  Uiso   1.00
H48    H     0.22285   0.10760   0.38490   0.00000  Uiso   1.00
H49    H     0.32266   0.29306   0.19598   0.00000  Uiso   1.00
H50    H     0.30743   0.00650   0.22783   0.00000  Uiso   1.00
H51    H     0.28546   0.32864   0.18039   0.00000  Uiso   1.00
H52    H     0.01268   0.03679   0.29833   0.00000  Uiso   1.00
H53    H     0.05040   0.00152   0.31340   0.00000  Uiso   1.00
H54    H     0.03007   0.32479   0.26446   0.00000  Uiso   1.00
H55    H     0.19250   0.05461   0.33894   0.00000  Uiso   1.00
H56    H     0.12288   0.02339   0.44513   0.00000  Uiso   1.00
H57    H     0.25501   0.04975   0.33116   0.00000  Uiso   1.00
H58    H     0.22059   0.00410   0.32943   0.00000  Uiso   1.00
H59    H     0.09202   0.28139   0.15596   0.00000  Uiso   1.00
H60    H     0.15211   0.27481   0.15571   0.00000  Uiso   1.00
H61    H     0.12728   0.32628   0.15901   0.00000  Uiso   1.00
H62    H     0.02938   0.12569   0.12173   0.00000  Uiso   1.00
H63    H     0.00235   0.17444   0.14207   0.00000  Uiso   1.00
H64    H     0.30479   0.13548   0.11977   0.00000  Uiso   1.00
H65    H     0.01168   0.26131   0.34605   0.00000  Uiso   1.00
H66    H     0.04252   0.25660   0.28522   0.00000  Uiso   1.00
H67    H     0.10820   0.02697   0.39277   0.00000  Uiso   1.00
H68    H     0.07152   0.24534   0.32634   0.00000  Uiso   1.00
H69    H     0.08760   0.05965   0.17812   0.00000  Uiso   1.00
H70    H     0.02835   0.06859   0.21841   0.00000  Uiso   1.00
H71    H     0.04128   0.07172   0.15738   0.00000  Uiso   1.00
H72    H     0.26784   0.26113   0.35052   0.00000  Uiso   1.00
H73    H     0.23085   0.25989   0.31608   0.00000  Uiso   1.00
H74    H     0.29501   0.26190   0.28887   0.00000  Uiso   1.00
H75    H     0.25937   0.28488   0.05003   0.00000  Uiso   1.00
H76    H     0.26420   0.26775   0.49221   0.00000  Uiso   1.00
H77    H     0.31267   0.29557   0.00262   0.00000  Uiso   1.00
H78    H     0.16289   0.03835   0.05282   0.00000  Uiso   1.00
H79    H     0.16418   0.05318   0.10862   0.00000  Uiso   1.00
H80    H     0.20533   0.07776   0.05950   0.00000  Uiso   1.00
I81    I     0.05462   0.05241   0.04853   0.00000  Uiso   1.00
I82    I     0.00085   0.19656   0.42978   0.00000  Uiso   1.00
I83    I     0.11125   0.19272   0.11087   0.00000  Uiso   1.00
I84    I     0.16261   0.23107   0.41149   0.00000  Uiso   1.00
I85    I     0.28501   0.24262   0.12863   0.00000  Uiso   1.00
I86    I     0.04924   0.09087   0.36176   0.00000  Uiso   1.00
N87    N     0.04759   0.16668   0.25001   0.00000  Uiso   1.00
N88    N     0.28574   0.16666   0.24999   0.00000  Uiso   1.00
O89    O     0.12846   0.22775   0.25001   0.00000  Uiso   1.00
O90    O     0.30481   0.23508   0.02321   0.00000  Uiso   1.00
O91    O     0.13376   0.09551   0.07900   0.00000  Uiso   1.00
O92    O     0.24888   0.16508   0.39834   0.00000  Uiso   1.00
O93    O     0.25357   0.29442   0.24078   0.00000  Uiso   1.00
O94    O     0.08240   0.03791   0.25484   0.00000  Uiso   1.00
O95    O     0.23805   0.04289   0.27246   0.00000  Uiso   1.00
O96    O     0.10103   0.29069   0.21828   0.00000  Uiso   1.00
O97    O     0.30650   0.12319   0.18410   0.00000  Uiso   1.00
O98    O     0.02199   0.20087   0.32255   0.00000  Uiso   1.00
O99    O     0.06964   0.12075   0.18594   0.00000  Uiso   1.00
O100   O     0.20488   0.10558   0.25000   0.00000  Uiso   1.00
O101   O     0.26256   0.20514   0.31946   0.00000  Uiso   1.00
O102   O     0.20490   0.22774   0.25000   0.00000  Uiso   1.00
O103   O     0.12843   0.10559   0.25000   0.00000  Uiso   1.00
O104   O     0.10661   0.16667   0.31613   0.00000  Uiso   1.00
O105   O     0.22672   0.16666   0.18388   0.00000  Uiso   1.00
O106   O     0.18305   0.16666   0.31612   0.00000  Uiso   1.00
O107   O     0.15028   0.16667   0.18388   0.00000  Uiso   1.00
O108   O     0.06284   0.05841   0.45034   0.00000  Uiso   1.00
Zn109  Zn    0.11562   0.16667   0.25000   0.00000  Uiso   1.00
Zn110  Zn    0.21771   0.16666   0.25000   0.00000  Uiso   1.00
C111   C     0.50211   0.24651   0.24588   0.00000  Uiso   1.00
C112   C     0.46578   0.31103   0.23629   0.00000  Uiso   1.00
C113   C     0.49727   0.04195   0.25516   0.00000  Uiso   1.00
C114   C     0.50513   0.29088   0.24080   0.00000  Uiso   1.00
C115   C     0.65335   0.14523   0.21680   0.00000  Uiso   1.00
C116   C     0.34616   0.18735   0.28364   0.00000  Uiso   1.00
C117   C     0.36809   0.14382   0.21786   0.00000  Uiso   1.00
C118   C     0.63158   0.18790   0.28312   0.00000  Uiso   1.00
C119   C     0.47057   0.16436   0.33767   0.00000  Uiso   1.00
C120   C     0.52913   0.17063   0.16270   0.00000  Uiso   1.00
C121   C     0.45498   0.15065   0.38565   0.00000  Uiso   1.00
C122   C     0.49845   0.08660   0.25298   0.00000  Uiso   1.00
C123   C     0.54526   0.17891   0.11327   0.00000  Uiso   1.00
C124   C     0.42270   0.09481   0.44002   0.00000  Uiso   1.00
C125   C     0.60211   0.20655   0.04330   0.00000  Uiso   1.00
C126   C     0.42544   0.11514   0.39952   0.00000  Uiso   1.00
C127   C     0.58684   0.20239   0.09112   0.00000  Uiso   1.00
C128   C     0.48005   0.16621   0.41359   0.00000  Uiso   1.00
C129   C     0.51513   0.16823   0.08831   0.00000  Uiso   1.00
C130   C     0.48300   0.14279   0.45016   0.00000  Uiso   1.00
C131   C     0.53471   0.16268   0.04098   0.00000  Uiso   1.00
C132   C     0.44923   0.11029   0.46764   0.00000  Uiso   1.00
C133   C     0.47283   0.11094   0.03613   0.00000  Uiso   1.00
C134   C     0.57848   0.18333   0.01737   0.00000  Uiso   1.00
C135   C     0.51800   0.15201   0.47066   0.00000  Uiso   1.00
C136   C     0.50815   0.14191   0.01651   0.00000  Uiso   1.00
C137   C     0.42660   0.02506   0.43079   0.00000  Uiso   1.00
C138   C     0.61713   0.27218   0.01698   0.00000  Uiso   1.00
C139   C     0.50159   0.06496   0.07417   0.00000  Uiso   1.00
C140   C     0.59013   0.12333   0.38396   0.00000  Uiso   1.00
C141   C     0.62672   0.31540   0.20989   0.00000  Uiso   1.00
C142   C     0.37615   0.01537   0.28402   0.00000  Uiso   1.00
C143   C     0.55876   0.03735   0.32009   0.00000  Uiso   1.00
C144   C     0.56465   0.16711   0.44570   0.00000  Uiso   1.00
C145   C     0.45278   0.29365   0.17017   0.00000  Uiso   1.00
C146   C     0.66188   0.14074   0.14049   0.00000  Uiso   1.00
C147   C     0.37085   0.24266   0.31895   0.00000  Uiso   1.00
C148   C     0.38872   0.07870   0.18559   0.00000  Uiso   1.00
C149   C     0.59840   0.24870   0.31784   0.00000  Uiso   1.00
C150   C     0.44368   0.09487   0.01179   0.00000  Uiso   1.00
C151   C     0.59523   0.18181   0.46907   0.00000  Uiso   1.00
C152   C     0.54434   0.31375   0.24515   0.00000  Uiso   1.00
C153   C     0.45859   0.01893   0.24986   0.00000  Uiso   1.00
C154   C     0.53792   0.02201   0.25754   0.00000  Uiso   1.00
H155   H     0.40539   0.32912   0.43916   0.00000  Uiso   1.00
H156   H     0.60720   0.10590   0.40475   0.00000  Uiso   1.00
H157   H     0.61457   0.12239   0.34793   0.00000  Uiso   1.00
H158   H     0.55618   0.10760   0.38490   0.00000  Uiso   1.00
H159   H     0.65599   0.29306   0.19598   0.00000  Uiso   1.00
H160   H     0.64076   0.00650   0.22783   0.00000  Uiso   1.00
H161   H     0.61879   0.32864   0.18039   0.00000  Uiso   1.00
H162   H     0.34602   0.03679   0.29833   0.00000  Uiso   1.00
H163   H     0.38373   0.00152   0.31340   0.00000  Uiso   1.00
H164   H     0.36340   0.32479   0.26446   0.00000  Uiso   1.00
H165   H     0.52584   0.05461   0.33894   0.00000  Uiso   1.00
H166   H     0.45622   0.02339   0.44513   0.00000  Uiso   1.00
H167   H     0.58835   0.04975   0.33116   0.00000  Uiso   1.00
H168   H     0.55392   0.00410   0.32943   0.00000  Uiso   1.00
H169   H     0.42536   0.28139   0.15596   0.00000  Uiso   1.00
H170   H     0.48545   0.27481   0.15571   0.00000  Uiso   1.00
H171   H     0.46061   0.32628   0.15901   0.00000  Uiso   1.00
H172   H     0.36271   0.12569   0.12173   0.00000  Uiso   1.00
H173   H     0.33569   0.17444   0.14207   0.00000  Uiso   1.00
H174   H     0.63813   0.13548   0.11977   0.00000  Uiso   1.00
H175   H     0.34501   0.26131   0.34605   0.00000  Uiso   1.00
H176   H     0.37585   0.25660   0.28522   0.00000  Uiso   1.00
H177   H     0.44153   0.02697   0.39277   0.00000  Uiso   1.00
H178   H     0.40485   0.24534   0.32634   0.00000  Uiso   1.00
H179   H     0.42093   0.05965   0.17812   0.00000  Uiso   1.00
H180   H     0.36168   0.06859   0.21841   0.00000  Uiso   1.00
H181   H     0.37462   0.07172   0.15738   0.00000  Uiso   1.00
H182   H     0.60117   0.26113   0.35052   0.00000  Uiso   1.00
H183   H     0.56419   0.25989   0.31608   0.00000  Uiso   1.00
H184   H     0.62835   0.26190   0.28887   0.00000  Uiso   1.00
H185   H     0.59271   0.28488   0.05003   0.00000  Uiso   1.00
H186   H     0.59753   0.26775   0.49221   0.00000  Uiso   1.00
H187   H     0.64601   0.29557   0.00262   0.00000  Uiso   1.00
H188   H     0.49622   0.03835   0.05282   0.00000  Uiso   1.00
H189   H     0.49752   0.05318   0.10862   0.00000  Uiso   1.00
H190   H     0.53866   0.07776   0.05950   0.00000  Uiso   1.00
I191   I     0.38795   0.05241   0.04853   0.00000  Uiso   1.00
I192   I     0.33418   0.19656   0.42978   0.00000  Uiso   1.00
I193   I     0.44458   0.19272   0.11087   0.00000  Uiso   1.00
I194   I     0.49594   0.23107   0.41149   0.00000  Uiso   1.00
I195   I     0.61834   0.24262   0.12863   0.00000  Uiso   1.00
I196   I     0.38257   0.09087   0.36176   0.00000  Uiso   1.00
N197   N     0.38093   0.16668   0.25001   0.00000  Uiso   1.00
N198   N     0.61907   0.16666   0.24999   0.00000  Uiso   1.00
O199   O     0.46179   0.22775   0.25001   0.00000  Uiso   1.00
O200   O     0.63814   0.23508   0.02321   0.00000  Uiso   1.00
O201   O     0.46709   0.09551   0.07900   0.00000  Uiso   1.00
O202   O     0.58221   0.16508   0.39834   0.00000  Uiso   1.00
O203   O     0.58690   0.29442   0.24078   0.00000  Uiso   1.00
O204   O     0.41574   0.03791   0.25484   0.00000  Uiso   1.00
O205   O     0.57138   0.04289   0.27246   0.00000  Uiso   1.00
O206   O     0.43437   0.29069   0.21828   0.00000  Uiso   1.00
O207   O     0.63983   0.12319   0.18410   0.00000  Uiso   1.00
O208   O     0.35532   0.20087   0.32255   0.00000  Uiso   1.00
O209   O     0.40297   0.12075   0.18594   0.00000  Uiso   1.00
O210   O     0.53821   0.10558   0.25000   0.00000  Uiso   1.00
O211   O     0.59589   0.20514   0.31946   0.00000  Uiso   1.00
O212   O     0.53823   0.22774   0.25000   0.00000  Uiso   1.00
O213   O     0.46177   0.10559   0.25000   0.00000  Uiso   1.00
O214   O     0.43994   0.16667   0.31613   0.00000  Uiso   1.00
O215   O     0.56006   0.16666   0.18388   0.00000  Uiso   1.00
O216   O     0.51639   0.16666   0.31612   0.00000  Uiso   1.00
O217   O     0.48361   0.16667   0.18388   0.00000  Uiso   1.00
O218   O     0.39617   0.05841   0.45034   0.00000  Uiso   1.00
Zn219  Zn    0.44896   0.16667   0.25000   0.00000  Uiso   1.00
Zn220  Zn    0.55104   0.16666   0.25000   0.00000  Uiso   1.00
C221   C     0.83544   0.24651   0.24588   0.00000  Uiso   1.00
C222   C     0.79911   0.31103   0.23629   0.00000  Uiso   1.00
C223   C     0.83060   0.04195   0.25516   0.00000  Uiso   1.00
C224   C     0.83846   0.29088   0.24080   0.00000  Uiso   1.00
C225   C     0.98668   0.14523   0.21680   0.00000  Uiso   1.00
C226   C     0.67949   0.18735   0.28364   0.00000  Uiso   1.00
C227   C     0.70142   0.14382   0.21786   0.00000  Uiso   1.00
C228   C     0.96492   0.18790   0.28312   0.00000  Uiso   1.00
C229   C     0.80390   0.16436   0.33767   0.00000  Uiso   1.00
C230   C     0.86246   0.17063   0.16270   0.00000  Uiso   1.00
C231   C     0.78831   0.15065   0.38565   0.00000  Uiso   1.00
C232   C     0.83178   0.08660   0.25298   0.00000  Uiso   1.00
C233   C     0.87859   0.17891   0.11327   0.00000  Uiso   1.00
C234   C     0.75604   0.09481   0.44002   0.00000  Uiso   1.00
C235   C     0.93544   0.20655   0.04330   0.00000  Uiso   1.00
C236   C     0.75878   0.11514   0.39952   0.00000  Uiso   1.00
C237   C     0.92018   0.20239   0.09112   0.00000  Uiso   1.00
C238   C     0.81338   0.16621   0.41359   0.00000  Uiso   1.00
C239   C     0.84846   0.16823   0.08831   0.00000  Uiso   1.00
C240   C     0.81634   0.14279   0.45016   0.00000  Uiso   1.00
C241   C     0.86805   0.16268   0.04098   0.00000  Uiso   1.00
C242   C     0.78257   0.11029   0.46764   0.00000  Uiso   1.00
C243   C     0.80616   0.11094   0.03613   0.00000  Uiso   1.00
C244   C     0.91182   0.18333   0.01737   0.00000  Uiso   1.00
C245   C     0.85133   0.15201   0.47066   0.00000  Uiso   1.00
C246   C     0.84149   0.14191   0.01651   0.00000  Uiso   1.00
C247   C     0.75994   0.02506   0.43079   0.00000  Uiso   1.00
C248   C     0.95046   0.27218   0.01698   0.00000  Uiso   1.00
C249   C     0.83492   0.06496   0.07417   0.00000  Uiso   1.00
C250   C     0.92346   0.12333   0.38396   0.00000  Uiso   1.00
C251   C     0.96006   0.31540   0.20989   0.00000  Uiso   1.00
C252   C     0.70948   0.01537   0.28402   0.00000  Uiso   1.00
C253   C     0.89210   0.03735   0.32009   0.00000  Uiso   1.00
C254   C     0.89798   0.16711   0.44570   0.00000  Uiso   1.00
C255   C     0.78612   0.29365   0.17017   0.00000  Uiso   1.00
C256   C     0.99521   0.14074   0.14049   0.00000  Uiso   1.00
C257   C     0.70419   0.24266   0.31895   0.00000  Uiso   1.00
C258   C     0.72205   0.07870   0.18559   0.00000  Uiso   1.00
C259   C     0.93174   0.24870   0.31784   0.00000  Uiso   1.00
C260   C     0.77701   0.09487   0.01179   0.00000  Uiso   1.00
C261   C     0.92856   0.18181   0.46907   0.00000  Uiso   1.00
C262   C     0.87767   0.31375   0.24515   0.00000  Uiso   1.00
C263   C     0.79192   0.01893   0.24986   0.00000  Uiso   1.00
C264   C     0.87125   0.02201   0.25754   0.00000  Uiso   1.00
H265   H     0.73872   0.32912   0.43916   0.00000  Uiso   1.00
H266   H     0.94053   0.10590   0.40475   0.00000  Uiso   1.00
H267   H     0.94790   0.12239   0.34793   0.00000  Uiso   1.00
H268   H     0.88952   0.10760   0.38490   0.00000  Uiso   1.00
H269   H     0.98933   0.29306   0.19598   0.00000  Uiso   1.00
H270   H     0.97410   0.00650   0.22783   0.00000  Uiso   1.00
H271   H     0.95213   0.32864   0.18039   0.00000  Uiso   1.00
H272   H     0.67935   0.03679   0.29833   0.00000  Uiso   1.00
H273   H     0.71706   0.00152   0.31340   0.00000  Uiso   1.00
H274   H     0.69673   0.32479   0.26446   0.00000  Uiso   1.00
H275   H     0.85917   0.05461   0.33894   0.00000  Uiso   1.00
H276   H     0.78955   0.02339   0.44513   0.00000  Uiso   1.00
H277   H     0.92168   0.04975   0.33116   0.00000  Uiso   1.00
H278   H     0.88726   0.00410   0.32943   0.00000  Uiso   1.00
H279   H     0.75869   0.28139   0.15596   0.00000  Uiso   1.00
H280   H     0.81878   0.27481   0.15571   0.00000  Uiso   1.00
H281   H     0.79394   0.32628   0.15901   0.00000  Uiso   1.00
H282   H     0.69605   0.12569   0.12173   0.00000  Uiso   1.00
H283   H     0.66902   0.17444   0.14207   0.00000  Uiso   1.00
H284   H     0.97146   0.13548   0.11977   0.00000  Uiso   1.00
H285   H     0.67834   0.26131   0.34605   0.00000  Uiso   1.00
H286   H     0.70919   0.25660   0.28522   0.00000  Uiso   1.00
H287   H     0.77487   0.02697   0.39277   0.00000  Uiso   1.00
H288   H     0.73818   0.24534   0.32634   0.00000  Uiso   1.00
H289   H     0.75426   0.05965   0.17812   0.00000  Uiso   1.00
H290   H     0.69501   0.06859   0.21841   0.00000  Uiso   1.00
H291   H     0.70795   0.07172   0.15738   0.00000  Uiso   1.00
H292   H     0.93450   0.26113   0.35052   0.00000  Uiso   1.00
H293   H     0.89752   0.25989   0.31608   0.00000  Uiso   1.00
H294   H     0.96168   0.26190   0.28887   0.00000  Uiso   1.00
H295   H     0.92604   0.28488   0.05003   0.00000  Uiso   1.00
H296   H     0.93086   0.26775   0.49221   0.00000  Uiso   1.00
H297   H     0.97934   0.29557   0.00262   0.00000  Uiso   1.00
H298   H     0.82955   0.03835   0.05282   0.00000  Uiso   1.00
H299   H     0.83085   0.05318   0.10862   0.00000  Uiso   1.00
H300   H     0.87200   0.07776   0.05950   0.00000  Uiso   1.00
I301   I     0.72128   0.05241   0.04853   0.00000  Uiso   1.00
I302   I     0.66751   0.19656   0.42978   0.00000  Uiso   1.00
I303   I     0.77792   0.19272   0.11087   0.00000  Uiso   1.00
I304   I     0.82928   0.23107   0.41149   0.00000  Uiso   1.00
I305   I     0.95167   0.24262   0.12863   0.00000  Uiso   1.00
I306   I     0.71591   0.09087   0.36176   0.00000  Uiso   1.00
N307   N     0.71426   0.16668   0.25001   0.00000  Uiso   1.00
N308   N     0.95241   0.16666   0.24999   0.00000  Uiso   1.00
O309   O     0.79512   0.22775   0.25001   0.00000  Uiso   1.00
O310   O     0.97147   0.23508   0.02321   0.00000  Uiso   1.00
O311   O     0.80042   0.09551   0.07900   0.00000  Uiso   1.00
O312   O     0.91555   0.16508   0.39834   0.00000  Uiso   1.00
O313   O     0.92023   0.29442   0.24078   0.00000  Uiso   1.00
O314   O     0.74907   0.03791   0.25484   0.00000  Uiso   1.00
O315   O     0.90472   0.04289   0.27246   0.00000  Uiso   1.00
O316   O     0.76770   0.29069   0.21828   0.00000  Uiso   1.00
O317   O     0.97317   0.12319   0.18410   0.00000  Uiso   1.00
O318   O     0.68866   0.20087   0.32255   0.00000  Uiso   1.00
O319   O     0.73631   0.12075   0.18594   0.00000  Uiso   1.00
O320   O     0.87154   0.10558   0.25000   0.00000  Uiso   1.00
O321   O     0.92923   0.20514   0.31946   0.00000  Uiso   1.00
O322   O     0.87157   0.22774   0.25000   0.00000  Uiso   1.00
O323   O     0.79510   0.10559   0.25000   0.00000  Uiso   1.00
O324   O     0.77328   0.16667   0.31613   0.00000  Uiso   1.00
O325   O     0.89339   0.16666   0.18388   0.00000  Uiso   1.00
O326   O     0.84972   0.16666   0.31612   0.00000  Uiso   1.00
O327   O     0.81695   0.16667   0.18388   0.00000  Uiso   1.00
O328   O     0.72951   0.05841   0.45034   0.00000  Uiso   1.00
Zn329  Zn    0.78229   0.16667   0.25000   0.00000  Uiso   1.00
Zn330  Zn    0.88438   0.16666   0.25000   0.00000  Uiso   1.00
C331   C     0.16878   0.57985   0.24588   0.00000  Uiso   1.00
C332   C     0.13245   0.64436   0.23629   0.00000  Uiso   1.00
C333   C     0.16394   0.37528   0.25516   0.00000  Uiso   1.00
C334   C     0.17179   0.62422   0.24080   0.00000  Uiso   1.00
C335   C     0.32002   0.47856   0.21680   0.00000  Uiso   1.00
C336   C     0.01282   0.52069   0.28364   0.00000  Uiso   1.00
C337   C     0.03476   0.47715   0.21786   0.00000  Uiso   1.00
C338   C     0.29825   0.52123   0.28312   0.00000  Uiso   1.00
C339   C     0.13723   0.49769   0.33767   0.00000  Uiso   1.00
C340   C     0.19579   0.50396   0.16270   0.00000  Uiso   1.00
C341   C     0.12165   0.48399   0.38565   0.00000  Uiso   1.00
C342   C     0.16511   0.41994   0.25298   0.00000  Uiso   1.00
C343   C     0.21193   0.51225   0.11327   0.00000  Uiso   1.00
C344   C     0.08937   0.42815   0.44002   0.00000  Uiso   1.00
C345   C     0.26878   0.53988   0.04330   0.00000  Uiso   1.00
C346   C     0.09211   0.44848   0.39952   0.00000  Uiso   1.00
C347   C     0.25351   0.53572   0.09112   0.00000  Uiso   1.00
C348   C     0.14671   0.49954   0.41359   0.00000  Uiso   1.00
C349   C     0.18180   0.50157   0.08831   0.00000  Uiso   1.00
C350   C     0.14967   0.47613   0.45016   0.00000  Uiso   1.00
C351   C     0.20138   0.49602   0.04098   0.00000  Uiso   1.00
C352   C     0.11590   0.44363   0.46764   0.00000  Uiso   1.00
C353   C     0.13950   0.44427   0.03613   0.00000  Uiso   1.00
C354   C     0.24515   0.51666   0.01737   0.00000  Uiso   1.00
C355   C     0.18466   0.48534   0.47066   0.00000  Uiso   1.00
C356   C     0.17482   0.47524   0.01651   0.00000  Uiso   1.00
C357   C     0.09327   0.35839   0.43079   0.00000  Uiso   1.00
C358   C     0.28380   0.60551   0.01698   0.00000  Uiso   1.00
C359   C     0.16825   0.39829   0.07417   0.00000  Uiso   1.00
C360   C     0.25679   0.45667   0.38396   0.00000  Uiso   1.00
C361   C     0.29339   0.64873   0.20989   0.00000  Uiso   1.00
C362   C     0.04282   0.34871   0.28402   0.00000  Uiso   1.00
C363   C     0.22543   0.37068   0.32009   0.00000  Uiso   1.00
C364   C     0.23131   0.50044   0.44570   0.00000  Uiso   1.00
C365   C     0.11945   0.62698   0.17017   0.00000  Uiso   1.00
C366   C     0.32854   0.47407   0.14049   0.00000  Uiso   1.00
C367   C     0.03752   0.57600   0.31895   0.00000  Uiso   1.00
C368   C     0.05539   0.41203   0.18559   0.00000  Uiso   1.00
C369   C     0.26507   0.58203   0.31784   0.00000  Uiso   1.00
C370   C     0.11034   0.42821   0.01179   0.00000  Uiso   1.00
C371   C     0.26190   0.51515   0.46907   0.00000  Uiso   1.00
C372   C     0.21100   0.64708   0.24515   0.00000  Uiso   1.00
C373   C     0.12526   0.35227   0.24986   0.00000  Uiso   1.00
C374   C     0.20459   0.35534   0.25754   0.00000  Uiso   1.00
H375   H     0.07205   0.66245   0.43916   0.00000  Uiso   1.00
H376   H     0.27386   0.43923   0.40475   0.00000  Uiso   1.00
H377   H     0.28123   0.45573   0.34793   0.00000  Uiso   1.00
H378   H     0.22285   0.44093   0.38490   0.00000  Uiso   1.00
H379   H     0.32266   0.62639   0.19598   0.00000  Uiso   1.00
H380   H     0.30743   0.33983   0.22783   0.00000  Uiso   1.00
H381   H     0.28546   0.66197   0.18039   0.00000  Uiso   1.00
H382   H     0.01268   0.37012   0.29833   0.00000  Uiso   1.00
H383   H     0.05040   0.33486   0.31340   0.00000  Uiso   1.00
H384   H     0.03007   0.65813   0.26446   0.00000  Uiso   1.00
H385   H     0.19250   0.38794   0.33894   0.00000  Uiso   1.00
H386   H     0.12288   0.35672   0.44513   0.00000  Uiso   1.00
H387   H     0.25501   0.38308   0.33116   0.00000  Uiso   1.00
H388   H     0.22059   0.33743   0.32943   0.00000  Uiso   1.00
H389   H     0.09202   0.61472   0.15596   0.00000  Uiso   1.00
H390   H     0.15211   0.60815   0.15571   0.00000  Uiso   1.00
H391   H     0.12728   0.65961   0.15901   0.00000  Uiso   1.00
H392   H     0.02938   0.45902   0.12173   0.00000  Uiso   1.00
H393   H     0.00235   0.50778   0.14207   0.00000  Uiso   1.00
H394   H     0.30479   0.46882   0.11977   0.00000  Uiso   1.00
H395   H     0.01168   0.59464   0.34605   0.00000  Uiso   1.00
H396   H     0.04252   0.58994   0.28522   0.00000  Uiso   1.00
H397   H     0.10820   0.36030   0.39277   0.00000  Uiso   1.00
H398   H     0.07152   0.57868   0.32634   0.00000  Uiso   1.00
H399   H     0.08760   0.39298   0.17812   0.00000  Uiso   1.00
H400   H     0.02835   0.40192   0.21841   0.00000  Uiso   1.00
H401   H     0.04128   0.40505   0.15738   0.00000  Uiso   1.00
H402   H     0.26784   0.59447   0.35052   0.00000  Uiso   1.00
H403   H     0.23085   0.59322   0.31608   0.00000  Uiso   1.00
H404   H     0.29501   0.59523   0.28887   0.00000  Uiso   1.00
H405   H     0.25937   0.61821   0.05003   0.00000  Uiso   1.00
H406   H     0.26420   0.60108   0.49221   0.00000  Uiso   1.00
H407   H     0.31267   0.62891   0.00262   0.00000  Uiso   1.00
H408   H     0.16289   0.37168   0.05282   0.00000  Uiso   1.00
H409   H     0.16418   0.38652   0.10862   0.00000  Uiso   1.00
H410   H     0.20533   0.41109   0.05950   0.00000  Uiso   1.00
I411   I     0.05462   0.38574   0.04853   0.00000  Uiso   1.00
I412   I     0.00085   0.52989   0.42978   0.00000  Uiso   1.00
I413   I     0.11125   0.52605   0.11087   0.00000  Uiso   1.00
I414   I     0.16261   0.56440   0.41149   0.00000  Uiso   1.00
I415   I     0.28501   0.57595   0.12863   0.00000  Uiso   1.00
I416   I     0.04924   0.42420   0.36176   0.00000  Uiso   1.00
N417   N     0.04759   0.50001   0.25001   0.00000  Uiso   1.00
N418   N     0.28574   0.49999   0.24999   0.00000  Uiso   1.00
O419   O     0.12846   0.56108   0.25001   0.00000  Uiso   1.00
O420   O     0.30481   0.56841   0.02321   0.00000  Uiso   1.00
O421   O     0.13376   0.42885   0.07900   0.00000  Uiso   1.00
O422   O     0.24888   0.49841   0.39834   0.00000  Uiso   1.00
O423   O     0.25357   0.62775   0.24078   0.00000  Uiso   1.00
O424   O     0.08240   0.37124   0.25484   0.00000  Uiso   1.00
O425   O     0.23805   0.37622   0.27246   0.00000  Uiso   1.00
O426   O     0.10103   0.62403   0.21828   0.00000  Uiso   1.00
O427   O     0.30650   0.45652   0.18410   0.00000  Uiso   1.00
O428   O     0.02199   0.53420   0.32255   0.00000  Uiso   1.00
O429   O     0.06964   0.45408   0.18594   0.00000  Uiso   1.00
O430   O     0.20488   0.43892   0.25000   0.00000  Uiso   1.00
O431   O     0.26256   0.53847   0.31946   0.00000  Uiso   1.00
O432   O     0.20490   0.56107   0.25000   0.00000  Uiso   1.00
O433   O     0.12843   0.43893   0.25000   0.00000  Uiso   1.00
O434   O     0.10661   0.50001   0.31613   0.00000  Uiso   1.00
O435   O     0.22672   0.49999   0.18388   0.00000  Uiso   1.00
O436   O     0.18305   0.50000   0.31612   0.00000  Uiso   1.00
O437   O     0.15028   0.50000   0.18388   0.00000  Uiso   1.00
O438   O     0.06284   0.39175   0.45034   0.00000  Uiso   1.00
Zn439  Zn    0.11562   0.50001   0.25000   0.00000  Uiso   1.00
Zn440  Zn    0.21771   0.49999   0.25000   0.00000  Uiso   1.00
C441   C     0.50211   0.57985   0.24588   0.00000  Uiso   1.00
C442   C     0.46578   0.64436   0.23629   0.00000  Uiso   1.00
C443   C     0.49727   0.37528   0.25516   0.00000  Uiso   1.00
C444   C     0.50513   0.62422   0.24080   0.00000  Uiso   1.00
C445   C     0.65335   0.47856   0.21680   0.00000  Uiso   1.00
C446   C     0.34616   0.52069   0.28364   0.00000  Uiso   1.00
C447   C     0.36809   0.47715   0.21786   0.00000  Uiso   1.00
C448   C     0.63158   0.52123   0.28312   0.00000  Uiso   1.00
C449   C     0.47057   0.49769   0.33767   0.00000  Uiso   1.00
C450   C     0.52913   0.50396   0.16270   0.00000  Uiso   1.00
C451   C     0.45498   0.48399   0.38565   0.00000  Uiso   1.00
C452   C     0.49845   0.41994   0.25298   0.00000  Uiso   1.00
C453   C     0.54526   0.51225   0.11327   0.00000  Uiso   1.00
C454   C     0.42270   0.42815   0.44002   0.00000  Uiso   1.00
C455   C     0.60211   0.53988   0.04330   0.00000  Uiso   1.00
C456   C     0.42544   0.44848   0.39952   0.00000  Uiso   1.00
C457   C     0.58684   0.53572   0.09112   0.00000  Uiso   1.00
C458   C     0.48005   0.49954   0.41359   0.00000  Uiso   1.00
C459   C     0.51513   0.50157   0.08831   0.00000  Uiso   1.00
C460   C     0.48300   0.47613   0.45016   0.00000  Uiso   1.00
C461   C     0.53471   0.49602   0.04098   0.00000  Uiso   1.00
C462   C     0.44923   0.44363   0.46764   0.00000  Uiso   1.00
C463   C     0.47283   0.44427   0.03613   0.00000  Uiso   1.00
C464   C     0.57848   0.51666   0.01737   0.00000  Uiso   1.00
C465   C     0.51800   0.48534   0.47066   0.00000  Uiso   1.00
C466   C     0.50815   0.47524   0.01651   0.00000  Uiso   1.00
C467   C     0.42660   0.35839   0.43079   0.00000  Uiso   1.00
C468   C     0.61713   0.60551   0.01698   0.00000  Uiso   1.00
C469   C     0.50159   0.39829   0.07417   0.00000  Uiso   1.00
C470   C     0.59013   0.45667   0.38396   0.00000  Uiso   1.00
C471   C     0.62672   0.64873   0.20989   0.00000  Uiso   1.00
C472   C     0.37615   0.34871   0.28402   0.00000  Uiso   1.00
C473   C     0.55876   0.37068   0.32009   0.00000  Uiso   1.00
C474   C     0.56465   0.50044   0.44570   0.00000  Uiso   1.00
C475   C     0.45278   0.62698   0.17017   0.00000  Uiso   1.00
C476   C     0.66188   0.47407   0.14049   0.00000  Uiso   1.00
C477   C     0.37085   0.57600   0.31895   0.00000  Uiso   1.00
C478   C     0.38872   0.41203   0.18559   0.00000  Uiso   1.00
C479   C     0.59840   0.58203   0.31784   0.00000  Uiso   1.00
C480   C     0.44368   0.42821   0.01179   0.00000  Uiso   1.00
C481   C     0.59523   0.51515   0.46907   0.00000  Uiso   1.00
C482   C     0.54434   0.64708   0.24515   0.00000  Uiso   1.00
C483   C     0.45859   0.35227   0.24986   0.00000  Uiso   1.00
C484   C     0.53792   0.35534   0.25754   0.00000  Uiso   1.00
H485   H     0.40539   0.66245   0.43916   0.00000  Uiso   1.00
H486   H     0.60720   0.43923   0.40475   0.00000  Uiso   1.00
H487   H     0.61457   0.45573   0.34793   0.00000  Uiso   1.00
H488   H     0.55618   0.44093   0.38490   0.00000  Uiso   1.00
H489   H     0.65599   0.62639   0.19598   0.00000  Uiso   1.00
H490   H     0.64076   0.33983   0.22783   0.00000  Uiso   1.00
H491   H     0.61879   0.66197   0.18039   0.00000  Uiso   1.00
H492   H     0.34602   0.37012   0.29833   0.00000  Uiso   1.00
H493   H     0.38373   0.33486   0.31340   0.00000  Uiso   1.00
H494   H     0.36340   0.65813   0.26446   0.00000  Uiso   1.00
H495   H     0.52584   0.38794   0.33894   0.00000  Uiso   1.00
H496   H     0.45622   0.35672   0.44513   0.00000  Uiso   1.00
H497   H     0.58835   0.38308   0.33116   0.00000  Uiso   1.00
H498   H     0.55392   0.33743   0.32943   0.00000  Uiso   1.00
H499   H     0.42536   0.61472   0.15596   0.00000  Uiso   1.00
H500   H     0.48545   0.60815   0.15571   0.00000  Uiso   1.00
H501   H     0.46061   0.65961   0.15901   0.00000  Uiso   1.00
H502   H     0.36271   0.45902   0.12173   0.00000  Uiso   1.00
H503   H     0.33569   0.50778   0.14207   0.00000  Uiso   1.00
H504   H     0.63813   0.46882   0.11977   0.00000  Uiso   1.00
H505   H     0.34501   0.59464   0.34605   0.00000  Uiso   1.00
H506   H     0.37585   0.58994   0.28522   0.00000  Uiso   1.00
H507   H     0.44153   0.36030   0.39277   0.00000  Uiso   1.00
H508   H     0.40485   0.57868   0.32634   0.00000  Uiso   1.00
H509   H     0.42093   0.39298   0.17812   0.00000  Uiso   1.00
H510   H     0.36168   0.40192   0.21841   0.00000  Uiso   1.00
H511   H     0.37462   0.40505   0.15738   0.00000  Uiso   1.00
H512   H     0.60117   0.59447   0.35052   0.00000  Uiso   1.00
H513   H     0.56419   0.59322   0.31608   0.00000  Uiso   1.00
H514   H     0.62835   0.59523   0.28887   0.00000  Uiso   1.00
H515   H     0.59271   0.61821   0.05003   0.00000  Uiso   1.00
H516   H     0.59753   0.60108   0.49221   0.00000  Uiso   1.00
H517   H     0.64601   0.62891   0.00262   0.00000  Uiso   1.00
H518   H     0.49622   0.37168   0.05282   0.00000  Uiso   1.00
H519   H     0.49752   0.38652   0.10862   0.00000  Uiso   1.00
H520   H     0.53866   0.41109   0.05950   0.00000  Uiso   1.00
I521   I     0.38795   0.38574   0.04853   0.00000  Uiso   1.00
I522   I     0.33418   0.52989   0.42978   0.00000  Uiso   1.00
I523   I     0.44458   0.52605   0.11087   0.00000  Uiso   1.00
I524   I     0.49594   0.56440   0.41149   0.00000  Uiso   1.00
I525   I     0.61834   0.57595   0.12863   0.00000  Uiso   1.00
I526   I     0.38257   0.42420   0.36176   0.00000  Uiso   1.00
N527   N     0.38093   0.50001   0.25001   0.00000  Uiso   1.00
N528   N     0.61907   0.49999   0.24999   0.00000  Uiso   1.00
O529   O     0.46179   0.56108   0.25001   0.00000  Uiso   1.00
O530   O     0.63814   0.56841   0.02321   0.00000  Uiso   1.00
O531   O     0.46709   0.42885   0.07900   0.00000  Uiso   1.00
O532   O     0.58221   0.49841   0.39834   0.00000  Uiso   1.00
O533   O     0.58690   0.62775   0.24078   0.00000  Uiso   1.00
O534   O     0.41574   0.37124   0.25484   0.00000  Uiso   1.00
O535   O     0.57138   0.37622   0.27246   0.00000  Uiso   1.00
O536   O     0.43437   0.62403   0.21828   0.00000  Uiso   1.00
O537   O     0.63983   0.45652   0.18410   0.00000  Uiso   1.00
O538   O     0.35532   0.53420   0.32255   0.00000  Uiso   1.00
O539   O     0.40297   0.45408   0.18594   0.00000  Uiso   1.00
O540   O     0.53821   0.43892   0.25000   0.00000  Uiso   1.00
O541   O     0.59589   0.53847   0.31946   0.00000  Uiso   1.00
O542   O     0.53823   0.56107   0.25000   0.00000  Uiso   1.00
O543   O     0.46177   0.43893   0.25000   0.00000  Uiso   1.00
O544   O     0.43994   0.50001   0.31613   0.00000  Uiso   1.00
O545   O     0.56006   0.49999   0.18388   0.00000  Uiso   1.00
O546   O     0.51639   0.50000   0.31612   0.00000  Uiso   1.00
O547   O     0.48361   0.50000   0.18388   0.00000  Uiso   1.00
O548   O     0.39617   0.39175   0.45034   0.00000  Uiso   1.00
Zn549  Zn    0.44896   0.50001   0.25000   0.00000  Uiso   1.00
Zn550  Zn    0.55104   0.49999   0.25000   0.00000  Uiso   1.00
C551   C     0.83544   0.57985   0.24588   0.00000  Uiso   1.00
C552   C     0.79911   0.64436   0.23629   0.00000  Uiso   1.00
C553   C     0.83060   0.37528   0.25516   0.00000  Uiso   1.00
C554   C     0.83846   0.62422   0.24080   0.00000  Uiso   1.00
C555   C     0.98668   0.47856   0.21680   0.00000  Uiso   1.00
C556   C     0.67949   0.52069   0.28364   0.00000  Uiso   1.00
C557   C     0.70142   0.47715   0.21786   0.00000  Uiso   1.00
C558   C     0.96492   0.52123   0.28312   0.00000  Uiso   1.00
C559   C     0.80390   0.49769   0.33767   0.00000  Uiso   1.00
C560   C     0.86246   0.50396   0.16270   0.00000  Uiso   1.00
C561   C     0.78831   0.48399   0.38565   0.00000  Uiso   1.00
C562   C     0.83178   0.41994   0.25298   0.00000  Uiso   1.00
C563   C     0.87859   0.51225   0.11327   0.00000  Uiso   1.00
C564   C     0.75604   0.42815   0.44002   0.00000  Uiso   1.00
C565   C     0.93544   0.53988   0.04330   0.00000  Uiso   1.00
C566   C     0.75878   0.44848   0.39952   0.00000  Uiso   1.00
C567   C     0.92018   0.53572   0.09112   0.00000  Uiso   1.00
C568   C     0.81338   0.49954   0.41359   0.00000  Uiso   1.00
C569   C     0.84846   0.50157   0.08831   0.00000  Uiso   1.00
C570   C     0.81634   0.47613   0.45016   0.00000  Uiso   1.00
C571   C     0.86805   0.49602   0.04098   0.00000  Uiso   1.00
C572   C     0.78257   0.44363   0.46764   0.00000  Uiso   1.00
C573   C     0.80616   0.44427   0.03613   0.00000  Uiso   1.00
C574   C     0.91182   0.51666   0.01737   0.00000  Uiso   1.00
C575   C     0.85133   0.48534   0.47066   0.00000  Uiso   1.00
C576   C     0.84149   0.47524   0.01651   0.00000  Uiso   1.00
C577   C     0.75994   0.35839   0.43079   0.00000  Uiso   1.00
C578   C     0.95046   0.60551   0.01698   0.00000  Uiso   1.00
C579   C     0.83492   0.39829   0.07417   0.00000  Uiso   1.00
C580   C     0.92346   0.45667   0.38396   0.00000  Uiso   1.00
C581   C     0.96006   0.64873   0.20989   0.00000  Uiso   1.00
C582   C     0.70948   0.34871   0.28402   0.00000  Uiso   1.00
C583   C     0.89210   0.37068   0.32009   0.00000  Uiso   1.00
C584   C     0.89798   0.50044   0.44570   0.00000  Uiso   1.00
C585   C     0.78612   0.62698   0.17017   0.00000  Uiso   1.00
C586   C     0.99521   0.47407   0.14049   0.00000  Uiso   1.00
C587   C     0.70419   0.57600   0.31895   0.00000  Uiso   1.00
C588   C     0.72205   0.41203   0.18559   0.00000  Uiso   1.00
C589   C     0.93174   0.58203   0.31784   0.00000  Uiso   1.00
C590   C     0.77701   0.42821   0.01179   0.00000  Uiso   1.00
C591   C     0.92856   0.51515   0.46907   0.00000  Uiso   1.00
C592   C     0.87767   0.64708   0.24515   0.00000  Uiso   1.00
C593   C     0.79192   0.35227   0.24986   0.00000  Uiso   1.00
C594   C     0.87125   0.35534   0.25754   0.00000  Uiso   1.00
H595   H     0.73872   0.66245   0.43916   0.00000  Uiso   1.00
H596   H     0.94053   0.43923   0.40475   0.00000  Uiso   1.00
H597   H     0.94790   0.45573   0.34793   0.00000  Uiso   1.00
H598   H     0.88952   0.44093   0.38490   0.00000  Uiso   1.00
H599   H     0.98933   0.62639   0.19598   0.00000  Uiso   1.00
H600   H     0.97410   0.33983   0.22783   0.00000  Uiso   1.00
H601   H     0.95213   0.66197   0.18039   0.00000  Uiso   1.00
H602   H     0.67935   0.37012   0.29833   0.00000  Uiso   1.00
H603   H     0.71706   0.33486   0.31340   0.00000  Uiso   1.00
H604   H     0.69673   0.65813   0.26446   0.00000  Uiso   1.00
H605   H     0.85917   0.38794   0.33894   0.00000  Uiso   1.00
H606   H     0.78955   0.35672   0.44513   0.00000  Uiso   1.00
H607   H     0.92168   0.38308   0.33116   0.00000  Uiso   1.00
H608   H     0.88726   0.33743   0.32943   0.00000  Uiso   1.00
H609   H     0.75869   0.61472   0.15596   0.00000  Uiso   1.00
H610   H     0.81878   0.60815   0.15571   0.00000  Uiso   1.00
H611   H     0.79394   0.65961   0.15901   0.00000  Uiso   1.00
H612   H     0.69605   0.45902   0.12173   0.00000  Uiso   1.00
H613   H     0.66902   0.50778   0.14207   0.00000  Uiso   1.00
H614   H     0.97146   0.46882   0.11977   0.00000  Uiso   1.00
H615   H     0.67834   0.59464   0.34605   0.00000  Uiso   1.00
H616   H     0.70919   0.58994   0.28522   0.00000  Uiso   1.00
H617   H     0.77487   0.36030   0.39277   0.00000  Uiso   1.00
H618   H     0.73818   0.57868   0.32634   0.00000  Uiso   1.00
H619   H     0.75426   0.39298   0.17812   0.00000  Uiso   1.00
H620   H     0.69501   0.40192   0.21841   0.00000  Uiso   1.00
H621   H     0.70795   0.40505   0.15738   0.00000  Uiso   1.00
H622   H     0.93450   0.59447   0.35052   0.00000  Uiso   1.00
H623   H     0.89752   0.59322   0.31608   0.00000  Uiso   1.00
H624   H     0.96168   0.59523   0.28887   0.00000  Uiso   1.00
H625   H     0.92604   0.61821   0.05003   0.00000  Uiso   1.00
H626   H     0.93086   0.60108   0.49221   0.00000  Uiso   1.00
H627   H     0.97934   0.62891   0.00262   0.00000  Uiso   1.00
H628   H     0.82955   0.37168   0.05282   0.00000  Uiso   1.00
H629   H     0.83085   0.38652   0.10862   0.00000  Uiso   1.00
H630   H     0.87200   0.41109   0.05950   0.00000  Uiso   1.00
I631   I     0.72128   0.38574   0.04853   0.00000  Uiso   1.00
I632   I     0.66751   0.52989   0.42978   0.00000  Uiso   1.00
I633   I     0.77792   0.52605   0.11087   0.00000  Uiso   1.00
I634   I     0.82928   0.56440   0.41149   0.00000  Uiso   1.00
I635   I     0.95167   0.57595   0.12863   0.00000  Uiso   1.00
I636   I     0.71591   0.42420   0.36176   0.00000  Uiso   1.00
N637   N     0.71426   0.50001   0.25001   0.00000  Uiso   1.00
N638   N     0.95241   0.49999   0.24999   0.00000  Uiso   1.00
O639   O     0.79512   0.56108   0.25001   0.00000  Uiso   1.00
O640   O     0.97147   0.56841   0.02321   0.00000  Uiso   1.00
O641   O     0.80042   0.42885   0.07900   0.00000  Uiso   1.00
O642   O     0.91555   0.49841   0.39834   0.00000  Uiso   1.00
O643   O     0.92023   0.62775   0.24078   0.00000  Uiso   1.00
O644   O     0.74907   0.37124   0.25484   0.00000  Uiso   1.00
O645   O     0.90472   0.37622   0.27246   0.00000  Uiso   1.00
O646   O     0.76770   0.62403   0.21828   0.00000  Uiso   1.00
O647   O     0.97317   0.45652   0.18410   0.00000  Uiso   1.00
O648   O     0.68866   0.53420   0.32255   0.00000  Uiso   1.00
O649   O     0.73631   0.45408   0.18594   0.00000  Uiso   1.00
O650   O     0.87154   0.43892   0.25000   0.00000  Uiso   1.00
O651   O     0.92923   0.53847   0.31946   0.00000  Uiso   1.00
O652   O     0.87157   0.56107   0.25000   0.00000  Uiso   1.00
O653   O     0.79510   0.43893   0.25000   0.00000  Uiso   1.00
O654   O     0.77328   0.50001   0.31613   0.00000  Uiso   1.00
O655   O     0.89339   0.49999   0.18388   0.00000  Uiso   1.00
O656   O     0.84972   0.50000   0.31612   0.00000  Uiso   1.00
O657   O     0.81695   0.50000   0.18388   0.00000  Uiso   1.00
O658   O     0.72951   0.39175   0.45034   0.00000  Uiso   1.00
Zn659  Zn    0.78229   0.50001   0.25000   0.00000  Uiso   1.00
Zn660  Zn    0.88438   0.49999   0.25000   0.00000  Uiso   1.00
C661   C     0.16878   0.91318   0.24588   0.00000  Uiso   1.00
C662   C     0.13245   0.97769   0.23629   0.00000  Uiso   1.00
C663   C     0.16394   0.70862   0.25516   0.00000  Uiso   1.00
C664   C     0.17179   0.95755   0.24080   0.00000  Uiso   1.00
C665   C     0.32002   0.81189   0.21680   0.00000  Uiso   1.00
C666   C     0.01282   0.85402   0.28364   0.00000  Uiso   1.00
C667   C     0.03476   0.81048   0.21786   0.00000  Uiso   1.00
C668   C     0.29825   0.85457   0.28312   0.00000  Uiso   1.00
C669   C     0.13723   0.83103   0.33767   0.00000  Uiso   1.00
C670   C     0.19579   0.83730   0.16270   0.00000  Uiso   1.00
C671   C     0.12165   0.81732   0.38565   0.00000  Uiso   1.00
C672   C     0.16511   0.75327   0.25298   0.00000  Uiso   1.00
C673   C     0.21193   0.84558   0.11327   0.00000  Uiso   1.00
C674   C     0.08937   0.76148   0.44002   0.00000  Uiso   1.00
C675   C     0.26878   0.87321   0.04330   0.00000  Uiso   1.00
C676   C     0.09211   0.78181   0.39952   0.00000  Uiso   1.00
C677   C     0.25351   0.86906   0.09112   0.00000  Uiso   1.00
C678   C     0.14671   0.83287   0.41359   0.00000  Uiso   1.00
C679   C     0.18180   0.83490   0.08831   0.00000  Uiso   1.00
C680   C     0.14967   0.80946   0.45016   0.00000  Uiso   1.00
C681   C     0.20138   0.82935   0.04098   0.00000  Uiso   1.00
C682   C     0.11590   0.77696   0.46764   0.00000  Uiso   1.00
C683   C     0.13950   0.77761   0.03613   0.00000  Uiso   1.00
C684   C     0.24515   0.84999   0.01737   0.00000  Uiso   1.00
C685   C     0.18466   0.81867   0.47066   0.00000  Uiso   1.00
C686   C     0.17482   0.80857   0.01651   0.00000  Uiso   1.00
C687   C     0.09327   0.69172   0.43079   0.00000  Uiso   1.00
C688   C     0.28380   0.93884   0.01698   0.00000  Uiso   1.00
C689   C     0.16825   0.73163   0.07417   0.00000  Uiso   1.00
C690   C     0.25679   0.79000   0.38396   0.00000  Uiso   1.00
C691   C     0.29339   0.98206   0.20989   0.00000  Uiso   1.00
C692   C     0.04282   0.68204   0.28402   0.00000  Uiso   1.00
C693   C     0.22543   0.70401   0.32009   0.00000  Uiso   1.00
C694   C     0.23131   0.83378   0.44570   0.00000  Uiso   1.00
C695   C     0.11945   0.96031   0.17017   0.00000  Uiso   1.00
C696   C     0.32854   0.80741   0.14049   0.00000  Uiso   1.00
C697   C     0.03752   0.90933   0.31895   0.00000  Uiso   1.00
C698   C     0.05539   0.74536   0.18559   0.00000  Uiso   1.00
C699   C     0.26507   0.91537   0.31784   0.00000  Uiso   1.00
C700   C     0.11034   0.76154   0.01179   0.00000  Uiso   1.00
C701   C     0.26190   0.84848   0.46907   0.00000  Uiso   1.00
C702   C     0.21100   0.98042   0.24515   0.00000  Uiso   1.00
C703   C     0.12526   0.68560   0.24986   0.00000  Uiso   1.00
C704   C     0.20459   0.68867   0.25754   0.00000  Uiso   1.00
H705   H     0.07205   0.99578   0.43916   0.00000  Uiso   1.00
H706   H     0.27386   0.77257   0.40475   0.00000  Uiso   1.00
H707   H     0.28123   0.78906   0.34793   0.00000  Uiso   1.00
H708   H     0.22285   0.77426   0.38490   0.00000  Uiso   1.00
H709   H     0.32266   0.95972   0.19598   0.00000  Uiso   1.00
H710   H     0.30743   0.67317   0.22783   0.00000  Uiso   1.00
H711   H     0.28546   0.99530   0.18039   0.00000  Uiso   1.00
H712   H     0.01268   0.70345   0.29833   0.00000  Uiso   1.00
H713   H     0.05040   0.66819   0.31340   0.00000  Uiso   1.00
H714   H     0.03007   0.99146   0.26446   0.00000  Uiso   1.00
H715   H     0.19250   0.72128   0.33894   0.00000  Uiso   1.00
H716   H     0.12288   0.69005   0.44513   0.00000  Uiso   1.00
H717   H     0.25501   0.71641   0.33116   0.00000  Uiso   1.00
H718   H     0.22059   0.67076   0.32943   0.00000  Uiso   1.00
H719   H     0.09202   0.94806   0.15596   0.00000  Uiso   1.00
H720   H     0.15211   0.94148   0.15571   0.00000  Uiso   1.00
H721   H     0.12728   0.99295   0.15901   0.00000  Uiso   1.00
H722   H     0.02938   0.79236   0.12173   0.00000  Uiso   1.00
H723   H     0.00235   0.84111   0.14207   0.00000  Uiso   1.00
H724   H     0.30479   0.80215   0.11977   0.00000  Uiso   1.00
H725   H     0.01168   0.92797   0.34605   0.00000  Uiso   1.00
H726   H     0.04252   0.92327   0.28522   0.00000  Uiso   1.00
H727   H     0.10820   0.69363   0.39277   0.00000  Uiso   1.00
H728   H     0.07152   0.91201   0.32634   0.00000  Uiso   1.00
H729   H     0.08760   0.72631   0.17812   0.00000  Uiso   1.00
H730   H     0.02835   0.73526   0.21841   0.00000  Uiso   1.00
H731   H     0.04128   0.73838   0.15738   0.00000  Uiso   1.00
H732   H     0.26784   0.92780   0.35052   0.00000  Uiso   1.00
H733   H     0.23085   0.92656   0.31608   0.00000  Uiso   1.00
H734   H     0.29501   0.92856   0.28887   0.00000  Uiso   1.00
H735   H     0.25937   0.95155   0.05003   0.00000  Uiso   1.00
H736   H     0.26420   0.93442   0.49221   0.00000  Uiso   1.00
H737   H     0.31267   0.96224   0.00262   0.00000  Uiso   1.00
H738   H     0.16289   0.70501   0.05282   0.00000  Uiso   1.00
H739   H     0.16418   0.71985   0.10862   0.00000  Uiso   1.00
H740   H     0.20533   0.74442   0.05950   0.00000  Uiso   1.00
I741   I     0.05462   0.71908   0.04853   0.00000  Uiso   1.00
I742   I     0.00085   0.86322   0.42978   0.00000  Uiso   1.00
I743   I     0.11125   0.85939   0.11087   0.00000  Uiso   1.00
I744   I     0.16261   0.89773   0.41149   0.00000  Uiso   1.00
I745   I     0.28501   0.90928   0.12863   0.00000  Uiso   1.00
I746   I     0.04924   0.75753   0.36176   0.00000  Uiso   1.00
N747   N     0.04759   0.83334   0.25001   0.00000  Uiso   1.00
N748   N     0.28574   0.83332   0.24999   0.00000  Uiso   1.00
O749   O     0.12846   0.89442   0.25001   0.00000  Uiso   1.00
O750   O     0.30481   0.90175   0.02321   0.00000  Uiso   1.00
O751   O     0.13376   0.76218   0.07900   0.00000  Uiso   1.00
O752   O     0.24888   0.83175   0.39834   0.00000  Uiso   1.00
O753   O     0.25357   0.96108   0.24078   0.00000  Uiso   1.00
O754   O     0.08240   0.70458   0.25484   0.00000  Uiso   1.00
O755   O     0.23805   0.70955   0.27246   0.00000  Uiso   1.00
O756   O     0.10103   0.95736   0.21828   0.00000  Uiso   1.00
O757   O     0.30650   0.78986   0.18410   0.00000  Uiso   1.00
O758   O     0.02199   0.86754   0.32255   0.00000  Uiso   1.00
O759   O     0.06964   0.78741   0.18594   0.00000  Uiso   1.00
O760   O     0.20488   0.77225   0.25000   0.00000  Uiso   1.00
O761   O     0.26256   0.87180   0.31946   0.00000  Uiso   1.00
O762   O     0.20490   0.89441   0.25000   0.00000  Uiso   1.00
O763   O     0.12843   0.77226   0.25000   0.00000  Uiso   1.00
O764   O     0.10661   0.83334   0.31613   0.00000  Uiso   1.00
O765   O     0.22672   0.83333   0.18388   0.00000  Uiso   1.00
O766   O     0.18305   0.83333   0.31612   0.00000  Uiso   1.00
O767   O     0.15028   0.83334   0.18388   0.00000  Uiso   1.00
O768   O     0.06284   0.72508   0.45034   0.00000  Uiso   1.00
Zn769  Zn    0.11562   0.83334   0.25000   0.00000  Uiso   1.00
Zn770  Zn    0.21771   0.83333   0.25000   0.00000  Uiso   1.00
C771   C     0.50211   0.91318   0.24588   0.00000  Uiso   1.00
C772   C     0.46578   0.97769   0.23629   0.00000  Uiso   1.00
C773   C     0.49727   0.70862   0.25516   0.00000  Uiso   1.00
C774   C     0.50513   0.95755   0.24080   0.00000  Uiso   1.00
C775   C     0.65335   0.81189   0.21680   0.00000  Uiso   1.00
C776   C     0.34616   0.85402   0.28364   0.00000  Uiso   1.00
C777   C     0.36809   0.81048   0.21786   0.00000  Uiso   1.00
C778   C     0.63158   0.85457   0.28312   0.00000  Uiso   1.00
C779   C     0.47057   0.83103   0.33767   0.00000  Uiso   1.00
C780   C     0.52913   0.83730   0.16270   0.00000  Uiso   1.00
C781   C     0.45498   0.81732   0.38565   0.00000  Uiso   1.00
C782   C     0.49845   0.75327   0.25298   0.00000  Uiso   1.00
C783   C     0.54526   0.84558   0.11327   0.00000  Uiso   1.00
C784   C     0.42270   0.76148   0.44002   0.00000  Uiso   1.00
C785   C     0.60211   0.87321   0.04330   0.00000  Uiso   1.00
C786   C     0.42544   0.78181   0.39952   0.00000  Uiso   1.00
C787   C     0.58684   0.86906   0.09112   0.00000  Uiso   1.00
C788   C     0.48005   0.83287   0.41359   0.00000  Uiso   1.00
C789   C     0.51513   0.83490   0.08831   0.00000  Uiso   1.00
C790   C     0.48300   0.80946   0.45016   0.00000  Uiso   1.00
C791   C     0.53471   0.82935   0.04098   0.00000  Uiso   1.00
C792   C     0.44923   0.77696   0.46764   0.00000  Uiso   1.00
C793   C     0.47283   0.77761   0.03613   0.00000  Uiso   1.00
C794   C     0.57848   0.84999   0.01737   0.00000  Uiso   1.00
C795   C     0.51800   0.81867   0.47066   0.00000  Uiso   1.00
C796   C     0.50815   0.80857   0.01651   0.00000  Uiso   1.00
C797   C     0.42660   0.69172   0.43079   0.00000  Uiso   1.00
C798   C     0.61713   0.93884   0.01698   0.00000  Uiso   1.00
C799   C     0.50159   0.73163   0.07417   0.00000  Uiso   1.00
C800   C     0.59013   0.79000   0.38396   0.00000  Uiso   1.00
C801   C     0.62672   0.98206   0.20989   0.00000  Uiso   1.00
C802   C     0.37615   0.68204   0.28402   0.00000  Uiso   1.00
C803   C     0.55876   0.70401   0.32009   0.00000  Uiso   1.00
C804   C     0.56465   0.83378   0.44570   0.00000  Uiso   1.00
C805   C     0.45278   0.96031   0.17017   0.00000  Uiso   1.00
C806   C     0.66188   0.80741   0.14049   0.00000  Uiso   1.00
C807   C     0.37085   0.90933   0.31895   0.00000  Uiso   1.00
C808   C     0.38872   0.74536   0.18559   0.00000  Uiso   1.00
C809   C     0.59840   0.91537   0.31784   0.00000  Uiso   1.00
C810   C     0.44368   0.76154   0.01179   0.00000  Uiso   1.00
C811   C     0.59523   0.84848   0.46907   0.00000  Uiso   1.00
C812   C     0.54434   0.98042   0.24515   0.00000  Uiso   1.00
C813   C     0.45859   0.68560   0.24986   0.00000  Uiso   1.00
C814   C     0.53792   0.68867   0.25754   0.00000  Uiso   1.00
H815   H     0.40539   0.99578   0.43916   0.00000  Uiso   1.00
H816   H     0.60720   0.77257   0.40475   0.00000  Uiso   1.00
H817   H     0.61457   0.78906   0.34793   0.00000  Uiso   1.00
H818   H     0.55618   0.77426   0.38490   0.00000  Uiso   1.00
H819   H     0.65599   0.95972   0.19598   0.00000  Uiso   1.00
H820   H     0.64076   0.67317   0.22783   0.00000  Uiso   1.00
H821   H     0.61879   0.99530   0.18039   0.00000  Uiso   1.00
H822   H     0.34602   0.70345   0.29833   0.00000  Uiso   1.00
H823   H     0.38373   0.66819   0.31340   0.00000  Uiso   1.00
H824   H     0.36340   0.99146   0.26446   0.00000  Uiso   1.00
H825   H     0.52584   0.72128   0.33894   0.00000  Uiso   1.00
H826   H     0.45622   0.69005   0.44513   0.00000  Uiso   1.00
H827   H     0.58835   0.71641   0.33116   0.00000  Uiso   1.00
H828   H     0.55392   0.67076   0.32943   0.00000  Uiso   1.00
H829   H     0.42536   0.94806   0.15596   0.00000  Uiso   1.00
H830   H     0.48545   0.94148   0.15571   0.00000  Uiso   1.00
H831   H     0.46061   0.99295   0.15901   0.00000  Uiso   1.00
H832   H     0.36271   0.79236   0.12173   0.00000  Uiso   1.00
H833   H     0.33569   0.84111   0.14207   0.00000  Uiso   1.00
H834   H     0.63813   0.80215   0.11977   0.00000  Uiso   1.00
H835   H     0.34501   0.92797   0.34605   0.00000  Uiso   1.00
H836   H     0.37585   0.92327   0.28522   0.00000  Uiso   1.00
H837   H     0.44153   0.69363   0.39277   0.00000  Uiso   1.00
H838   H     0.40485   0.91201   0.32634   0.00000  Uiso   1.00
H839   H     0.42093   0.72631   0.17812   0.00000  Uiso   1.00
H840   H     0.36168   0.73526   0.21841   0.00000  Uiso   1.00
H841   H     0.37462   0.73838   0.15738   0.00000  Uiso   1.00
H842   H     0.60117   0.92780   0.35052   0.00000  Uiso   1.00
H843   H     0.56419   0.92656   0.31608   0.00000  Uiso   1.00
H844   H     0.62835   0.92856   0.28887   0.00000  Uiso   1.00
H845   H     0.59271   0.95155   0.05003   0.00000  Uiso   1.00
H846   H     0.59753   0.93442   0.49221   0.00000  Uiso   1.00
H847   H     0.64601   0.96224   0.00262   0.00000  Uiso   1.00
H848   H     0.49622   0.70501   0.05282   0.00000  Uiso   1.00
H849   H     0.49752   0.71985   0.10862   0.00000  Uiso   1.00
H850   H     0.53866   0.74442   0.05950   0.00000  Uiso   1.00
I851   I     0.38795   0.71908   0.04853   0.00000  Uiso   1.00
I852   I     0.33418   0.86322   0.42978   0.00000  Uiso   1.00
I853   I     0.44458   0.85939   0.11087   0.00000  Uiso   1.00
I854   I     0.49594   0.89773   0.41149   0.00000  Uiso   1.00
I855   I     0.61834   0.90928   0.12863   0.00000  Uiso   1.00
I856   I     0.38257   0.75753   0.36176   0.00000  Uiso   1.00
N857   N     0.38093   0.83334   0.25001   0.00000  Uiso   1.00
N858   N     0.61907   0.83332   0.24999   0.00000  Uiso   1.00
O859   O     0.46179   0.89442   0.25001   0.00000  Uiso   1.00
O860   O     0.63814   0.90175   0.02321   0.00000  Uiso   1.00
O861   O     0.46709   0.76218   0.07900   0.00000  Uiso   1.00
O862   O     0.58221   0.83175   0.39834   0.00000  Uiso   1.00
O863   O     0.58690   0.96108   0.24078   0.00000  Uiso   1.00
O864   O     0.41574   0.70458   0.25484   0.00000  Uiso   1.00
O865   O     0.57138   0.70955   0.27246   0.00000  Uiso   1.00
O866   O     0.43437   0.95736   0.21828   0.00000  Uiso   1.00
O867   O     0.63983   0.78986   0.18410   0.00000  Uiso   1.00
O868   O     0.35532   0.86754   0.32255   0.00000  Uiso   1.00
O869   O     0.40297   0.78741   0.18594   0.00000  Uiso   1.00
O870   O     0.53821   0.77225   0.25000   0.00000  Uiso   1.00
O871   O     0.59589   0.87180   0.31946   0.00000  Uiso   1.00
O872   O     0.53823   0.89441   0.25000   0.00000  Uiso   1.00
O873   O     0.46177   0.77226   0.25000   0.00000  Uiso   1.00
O874   O     0.43994   0.83334   0.31613   0.00000  Uiso   1.00
O875   O     0.56006   0.83333   0.18388   0.00000  Uiso   1.00
O876   O     0.51639   0.83333   0.31612   0.00000  Uiso   1.00
O877   O     0.48361   0.83334   0.18388   0.00000  Uiso   1.00
O878   O     0.39617   0.72508   0.45034   0.00000  Uiso   1.00
Zn879  Zn    0.44896   0.83334   0.25000   0.00000  Uiso   1.00
Zn880  Zn    0.55104   0.83333   0.25000   0.00000  Uiso   1.00
C881   C     0.83544   0.91318   0.24588   0.00000  Uiso   1.00
C882   C     0.79911   0.97769   0.23629   0.00000  Uiso   1.00
C883   C     0.83060   0.70862   0.25516   0.00000  Uiso   1.00
C884   C     0.83846   0.95755   0.24080   0.00000  Uiso   1.00
C885   C     0.98668   0.81189   0.21680   0.00000  Uiso   1.00
C886   C     0.67949   0.85402   0.28364   0.00000  Uiso   1.00
C887   C     0.70142   0.81048   0.21786   0.00000  Uiso   1.00
C888   C     0.96492   0.85457   0.28312   0.00000  Uiso   1.00
C889   C     0.80390   0.83103   0.33767   0.00000  Uiso   1.00
C890   C     0.86246   0.83730   0.16270   0.00000  Uiso   1.00
C891   C     0.78831   0.81732   0.38565   0.00000  Uiso   1.00
C892   C     0.83178   0.75327   0.25298   0.00000  Uiso   1.00
C893   C     0.87859   0.84558   0.11327   0.00000  Uiso   1.00
C894   C     0.75604   0.76148   0.44002   0.00000  Uiso   1.00
C895   C     0.93544   0.87321   0.04330   0.00000  Uiso   1.00
C896   C     0.75878   0.78181   0.39952   0.00000  Uiso   1.00
C897   C     0.92018   0.86906   0.09112   0.00000  Uiso   1.00
C898   C     0.81338   0.83287   0.41359   0.00000  Uiso   1.00
C899   C     0.84846   0.83490   0.08831   0.00000  Uiso   1.00
C900   C     0.81634   0.80946   0.45016   0.00000  Uiso   1.00
C901   C     0.86805   0.82935   0.04098   0.00000  Uiso   1.00
C902   C     0.78257   0.77696   0.46764   0.00000  Uiso   1.00
C903   C     0.80616   0.77761   0.03613   0.00000  Uiso   1.00
C904   C     0.91182   0.84999   0.01737   0.00000  Uiso   1.00
C905   C     0.85133   0.81867   0.47066   0.00000  Uiso   1.00
C906   C     0.84149   0.80857   0.01651   0.00000  Uiso   1.00
C907   C     0.75994   0.69172   0.43079   0.00000  Uiso   1.00
C908   C     0.95046   0.93884   0.01698   0.00000  Uiso   1.00
C909   C     0.83492   0.73163   0.07417   0.00000  Uiso   1.00
C910   C     0.92346   0.79000   0.38396   0.00000  Uiso   1.00
C911   C     0.96006   0.98206   0.20989   0.00000  Uiso   1.00
C912   C     0.70948   0.68204   0.28402   0.00000  Uiso   1.00
C913   C     0.89210   0.70401   0.32009   0.00000  Uiso   1.00
C914   C     0.89798   0.83378   0.44570   0.00000  Uiso   1.00
C915   C     0.78612   0.96031   0.17017   0.00000  Uiso   1.00
C916   C     0.99521   0.80741   0.14049   0.00000  Uiso   1.00
C917   C     0.70419   0.90933   0.31895   0.00000  Uiso   1.00
C918   C     0.72205   0.74536   0.18559   0.00000  Uiso   1.00
C919   C     0.93174   0.91537   0.31784   0.00000  Uiso   1.00
C920   C     0.77701   0.76154   0.01179   0.00000  Uiso   1.00
C921   C     0.92856   0.84848   0.46907   0.00000  Uiso   1.00
C922   C     0.87767   0.98042   0.24515   0.00000  Uiso   1.00
C923   C     0.79192   0.68560   0.24986   0.00000  Uiso   1.00
C924   C     0.87125   0.68867   0.25754   0.00000  Uiso   1.00
H925   H     0.73872   0.99578   0.43916   0.00000  Uiso   1.00
H926   H     0.94053   0.77257   0.40475   0.00000  Uiso   1.00
H927   H     0.94790   0.78906   0.34793   0.00000  Uiso   1.00
H928   H     0.88952   0.77426   0.38490   0.00000  Uiso   1.00
H929   H     0.98933   0.95972   0.19598   0.00000  Uiso   1.00
H930   H     0.97410   0.67317   0.22783   0.00000  Uiso   1.00
H931   H     0.95213   0.99530   0.18039   0.00000  Uiso   1.00
H932   H     0.67935   0.70345   0.29833   0.00000  Uiso   1.00
H933   H     0.71706   0.66819   0.31340   0.00000  Uiso   1.00
H934   H     0.69673   0.99146   0.26446   0.00000  Uiso   1.00
H935   H     0.85917   0.72128   0.33894   0.00000  Uiso   1.00
H936   H     0.78955   0.69005   0.44513   0.00000  Uiso   1.00
H937   H     0.92168   0.71641   0.33116   0.00000  Uiso   1.00
H938   H     0.88726   0.67076   0.32943   0.00000  Uiso   1.00
H939   H     0.75869   0.94806   0.15596   0.00000  Uiso   1.00
H940   H     0.81878   0.94148   0.15571   0.00000  Uiso   1.00
H941   H     0.79394   0.99295   0.15901   0.00000  Uiso   1.00
H942   H     0.69605   0.79236   0.12173   0.00000  Uiso   1.00
H943   H     0.66902   0.84111   0.14207   0.00000  Uiso   1.00
H944   H     0.97146   0.80215   0.11977   0.00000  Uiso   1.00
H945   H     0.67834   0.92797   0.34605   0.00000  Uiso   1.00
H946   H     0.70919   0.92327   0.28522   0.00000  Uiso   1.00
H947   H     0.77487   0.69363   0.39277   0.00000  Uiso   1.00
H948   H     0.73818   0.91201   0.32634   0.00000  Uiso   1.00
H949   H     0.75426   0.72631   0.17812   0.00000  Uiso   1.00
H950   H     0.69501   0.73526   0.21841   0.00000  Uiso   1.00
H951   H     0.70795   0.73838   0.15738   0.00000  Uiso   1.00
H952   H     0.93450   0.92780   0.35052   0.00000  Uiso   1.00
H953   H     0.89752   0.92656   0.31608   0.00000  Uiso   1.00
H954   H     0.96168   0.92856   0.28887   0.00000  Uiso   1.00
H955   H     0.92604   0.95155   0.05003   0.00000  Uiso   1.00
H956   H     0.93086   0.93442   0.49221   0.00000  Uiso   1.00
H957   H     0.97934   0.96224   0.00262   0.00000  Uiso   1.00
H958   H     0.82955   0.70501   0.05282   0.00000  Uiso   1.00
H959   H     0.83085   0.71985   0.10862   0.00000  Uiso   1.00
H960   H     0.87200   0.74442   0.05950   0.00000  Uiso   1.00
I961   I     0.72128   0.71908   0.04853   0.00000  Uiso   1.00
I962   I     0.66751   0.86322   0.42978   0.00000  Uiso   1.00
I963   I     0.77792   0.85939   0.11087   0.00000  Uiso   1.00
I964   I     0.82928   0.89773   0.41149   0.00000  Uiso   1.00
I965   I     0.95167   0.90928   0.12863   0.00000  Uiso   1.00
I966   I     0.71591   0.75753   0.36176   0.00000  Uiso   1.00
N967   N     0.71426   0.83334   0.25001   0.00000  Uiso   1.00
N968   N     0.95241   0.83332   0.24999   0.00000  Uiso   1.00
O969   O     0.79512   0.89442   0.25001   0.00000  Uiso   1.00
O970   O     0.97147   0.90175   0.02321   0.00000  Uiso   1.00
O971   O     0.80042   0.76218   0.07900   0.00000  Uiso   1.00
O972   O     0.91555   0.83175   0.39834   0.00000  Uiso   1.00
O973   O     0.92023   0.96108   0.24078   0.00000  Uiso   1.00
O974   O     0.74907   0.70458   0.25484   0.00000  Uiso   1.00
O975   O     0.90472   0.70955   0.27246   0.00000  Uiso   1.00
O976   O     0.76770   0.95736   0.21828   0.00000  Uiso   1.00
O977   O     0.97317   0.78986   0.18410   0.00000  Uiso   1.00
O978   O     0.68866   0.86754   0.32255   0.00000  Uiso   1.00
O979   O     0.73631   0.78741   0.18594   0.00000  Uiso   1.00
O980   O     0.87154   0.77225   0.25000   0.00000  Uiso   1.00
O981   O     0.92923   0.87180   0.31946   0.00000  Uiso   1.00
O982   O     0.87157   0.89441   0.25000   0.00000  Uiso   1.00
O983   O     0.79510   0.77226   0.25000   0.00000  Uiso   1.00
O984   O     0.77328   0.83334   0.31613   0.00000  Uiso   1.00
O985   O     0.89339   0.83333   0.18388   0.00000  Uiso   1.00
O986   O     0.84972   0.83333   0.31612   0.00000  Uiso   1.00
O987   O     0.81695   0.83334   0.18388   0.00000  Uiso   1.00
O988   O     0.72951   0.72508   0.45034   0.00000  Uiso   1.00
Zn989  Zn    0.78229   0.83334   0.25000   0.00000  Uiso   1.00
Zn990  Zn    0.88438   0.83333   0.25000   0.00000  Uiso   1.00
C991   C     0.16878   0.24651   0.74588   0.00000  Uiso   1.00
C992   C     0.13245   0.31103   0.73629   0.00000  Uiso   1.00
C993   C     0.16394   0.04195   0.75516   0.00000  Uiso   1.00
C994   C     0.17179   0.29088   0.74080   0.00000  Uiso   1.00
C995   C     0.32002   0.14523   0.71680   0.00000  Uiso   1.00
C996   C     0.01282   0.18735   0.78364   0.00000  Uiso   1.00
C997   C     0.03476   0.14382   0.71786   0.00000  Uiso   1.00
C998   C     0.29825   0.18790   0.78312   0.00000  Uiso   1.00
C999   C     0.13723   0.16436   0.83767   0.00000  Uiso   1.00
C1000  C     0.19579   0.17063   0.66270   0.00000  Uiso   1.00
C1001  C     0.12165   0.15065   0.88565   0.00000  Uiso   1.00
C1002  C     0.16511   0.08660   0.75298   0.00000  Uiso   1.00
C1003  C     0.21193   0.17891   0.61327   0.00000  Uiso   1.00
C1004  C     0.08937   0.09481   0.94002   0.00000  Uiso   1.00
C1005  C     0.26878   0.20655   0.54330   0.00000  Uiso   1.00
C1006  C     0.09211   0.11514   0.89952   0.00000  Uiso   1.00
C1007  C     0.25351   0.20239   0.59112   0.00000  Uiso   1.00
C1008  C     0.14671   0.16621   0.91359   0.00000  Uiso   1.00
C1009  C     0.18180   0.16823   0.58831   0.00000  Uiso   1.00
C1010  C     0.14967   0.14279   0.95016   0.00000  Uiso   1.00
C1011  C     0.20138   0.16268   0.54098   0.00000  Uiso   1.00
C1012  C     0.11590   0.11029   0.96764   0.00000  Uiso   1.00
C1013  C     0.13950   0.11094   0.53613   0.00000  Uiso   1.00
C1014  C     0.24515   0.18333   0.51737   0.00000  Uiso   1.00
C1015  C     0.18466   0.15201   0.97066   0.00000  Uiso   1.00
C1016  C     0.17482   0.14191   0.51651   0.00000  Uiso   1.00
C1017  C     0.09327   0.02506   0.93079   0.00000  Uiso   1.00
C1018  C     0.28380   0.27218   0.51698   0.00000  Uiso   1.00
C1019  C     0.16825   0.06496   0.57417   0.00000  Uiso   1.00
C1020  C     0.25679   0.12333   0.88396   0.00000  Uiso   1.00
C1021  C     0.29339   0.31540   0.70989   0.00000  Uiso   1.00
C1022  C     0.04282   0.01537   0.78402   0.00000  Uiso   1.00
C1023  C     0.22543   0.03735   0.82009   0.00000  Uiso   1.00
C1024  C     0.23131   0.16711   0.94570   0.00000  Uiso   1.00
C1025  C     0.11945   0.29365   0.67017   0.00000  Uiso   1.00
C1026  C     0.32854   0.14074   0.64049   0.00000  Uiso   1.00
C1027  C     0.03752   0.24266   0.81895   0.00000  Uiso   1.00
C1028  C     0.05539   0.07870   0.68559   0.00000  Uiso   1.00
C1029  C     0.26507   0.24870   0.81784   0.00000  Uiso   1.00
C1030  C     0.11034   0.09487   0.51179   0.00000  Uiso   1.00
C1031  C     0.26190   0.18181   0.96907   0.00000  Uiso   1.00
C1032  C     0.21100   0.31375   0.74515   0.00000  Uiso   1.00
C1033  C     0.12526   0.01893   0.74986   0.00000  Uiso   1.00
C1034  C     0.20459   0.02201   0.75754   0.00000  Uiso   1.00
H1035  H     0.07205   0.32912   0.93916   0.00000  Uiso   1.00
H1036  H     0.27386   0.10590   0.90475   0.00000  Uiso   1.00
H1037  H     0.28123   0.12239   0.84793   0.00000  Uiso   1.00
H1038  H     0.22285   0.10760   0.88490   0.00000  Uiso   1.00
H1039  H     0.32266   0.29306   0.69598   0.00000  Uiso   1.00
H1040  H     0.30743   0.00650   0.72783   0.00000  Uiso   1.00
H1041  H     0.28546   0.32864   0.68039   0.00000  Uiso   1.00
H1042  H     0.01268   0.03679   0.79833   0.00000  Uiso   1.00
H1043  H     0.05040   0.00152   0.81340   0.00000  Uiso   1.00
H1044  H     0.03007   0.32479   0.76446   0.00000  Uiso   1.00
H1045  H     0.19250   0.05461   0.83894   0.00000  Uiso   1.00
H1046  H     0.12288   0.02339   0.94513   0.00000  Uiso   1.00
H1047  H     0.25501   0.04975   0.83116   0.00000  Uiso   1.00
H1048  H     0.22059   0.00410   0.82943   0.00000  Uiso   1.00
H1049  H     0.09202   0.28139   0.65596   0.00000  Uiso   1.00
H1050  H     0.15211   0.27481   0.65571   0.00000  Uiso   1.00
H1051  H     0.12728   0.32628   0.65901   0.00000  Uiso   1.00
H1052  H     0.02938   0.12569   0.62173   0.00000  Uiso   1.00
H1053  H     0.00235   0.17444   0.64207   0.00000  Uiso   1.00
H1054  H     0.30479   0.13548   0.61977   0.00000  Uiso   1.00
H1055  H     0.01168   0.26131   0.84605   0.00000  Uiso   1.00
H1056  H     0.04252   0.25660   0.78522   0.00000  Uiso   1.00
H1057  H     0.10820   0.02697   0.89277   0.00000  Uiso   1.00
H1058  H     0.07152   0.24534   0.82634   0.00000  Uiso   1.00
H1059  H     0.08760   0.05965   0.67812   0.00000  Uiso   1.00
H1060  H     0.02835   0.06859   0.71841   0.00000  Uiso   1.00
H1061  H     0.04128   0.07172   0.65738   0.00000  Uiso   1.00
H1062  H     0.26784   0.26113   0.85052   0.00000  Uiso   1.00
H1063  H     0.23085   0.25989   0.81608   0.00000  Uiso   1.00
H1064  H     0.29501   0.26190   0.78887   0.00000  Uiso   1.00
H1065  H     0.25937   0.28488   0.55003   0.00000  Uiso   1.00
H1066  H     0.26420   0.26775   0.99221   0.00000  Uiso   1.00
H1067  H     0.31267   0.29557   0.50262   0.00000  Uiso   1.00
H1068  H     0.16289   0.03835   0.55282   0.00000  Uiso   1.00
H1069  H     0.16418   0.05318   0.60862   0.00000  Uiso   1.00
H1070  H     0.20533   0.07776   0.55950   0.00000  Uiso   1.00
I1071  I     0.05462   0.05241   0.54853   0.00000  Uiso   1.00
I1072  I     0.00085   0.19656   0.92978   0.00000  Uiso   1.00
I1073  I     0.11125   0.19272   0.61087   0.00000  Uiso   1.00
I1074  I     0.16261   0.23107   0.91149   0.00000  Uiso   1.00
I1075  I     0.28501   0.24262   0.62863   0.00000  Uiso   1.00
I1076  I     0.04924   0.09087   0.86176   0.00000  Uiso   1.00
N1077  N     0.04759   0.16668   0.75001   0.00000  Uiso   1.00
N1078  N     0.28574   0.16666   0.74999   0.00000  Uiso   1.00
O1079  O     0.12846   0.22775   0.75001   0.00000  Uiso   1.00
O1080  O     0.30481   0.23508   0.52321   0.00000  Uiso   1.00
O1081  O     0.13376   0.09551   0.57900   0.00000  Uiso   1.00
O1082  O     0.24888   0.16508   0.89834   0.00000  Uiso   1.00
O1083  O     0.25357   0.29442   0.74078   0.00000  Uiso   1.00
O1084  O     0.08240   0.03791   0.75484   0.00000  Uiso   1.00
O1085  O     0.23805   0.04289   0.77246   0.00000  Uiso   1.00
O1086  O     0.10103   0.29069   0.71828   0.00000  Uiso   1.00
O1087  O     0.30650   0.12319   0.68410   0.00000  Uiso   1.00
O1088  O     0.02199   0.20087   0.82255   0.00000  Uiso   1.00
O1089  O     0.06964   0.12075   0.68594   0.00000  Uiso   1.00
O1090  O     0.20488   0.10558   0.75000   0.00000  Uiso   1.00
O1091  O     0.26256   0.20514   0.81946   0.00000  Uiso   1.00
O1092  O     0.20490   0.22774   0.75000   0.00000  Uiso   1.00
O1093  O     0.12843   0.10559   0.75000   0.00000  Uiso   1.00
O1094  O     0.10661   0.16667   0.81613   0.00000  Uiso   1.00
O1095  O     0.22672   0.16666   0.68388   0.00000  Uiso   1.00
O1096  O     0.18305   0.16666   0.81612   0.00000  Uiso   1.00
O1097  O     0.15028   0.16667   0.68388   0.00000  Uiso   1.00
O1098  O     0.06284   0.05841   0.95034   0.00000  Uiso   1.00
Zn1099 Zn    0.11562   0.16667   0.75000   0.00000  Uiso   1.00
Zn1100 Zn    0.21771   0.16666   0.75000   0.00000  Uiso   1.00
C1101  C     0.50211   0.24651   0.74588   0.00000  Uiso   1.00
C1102  C     0.46578   0.31103   0.73629   0.00000  Uiso   1.00
C1103  C     0.49727   0.04195   0.75516   0.00000  Uiso   1.00
C1104  C     0.50513   0.29088   0.74080   0.00000  Uiso   1.00
C1105  C     0.65335   0.14523   0.71680   0.00000  Uiso   1.00
C1106  C     0.34616   0.18735   0.78364   0.00000  Uiso   1.00
C1107  C     0.36809   0.14382   0.71786   0.00000  Uiso   1.00
C1108  C     0.63158   0.18790   0.78312   0.00000  Uiso   1.00
C1109  C     0.47057   0.16436   0.83767   0.00000  Uiso   1.00
C1110  C     0.52913   0.17063   0.66270   0.00000  Uiso   1.00
C1111  C     0.45498   0.15065   0.88565   0.00000  Uiso   1.00
C1112  C     0.49845   0.08660   0.75298   0.00000  Uiso   1.00
C1113  C     0.54526   0.17891   0.61327   0.00000  Uiso   1.00
C1114  C     0.42270   0.09481   0.94002   0.00000  Uiso   1.00
C1115  C     0.60211   0.20655   0.54330   0.00000  Uiso   1.00
C1116  C     0.42544   0.11514   0.89952   0.00000  Uiso   1.00
C1117  C     0.58684   0.20239   0.59112   0.00000  Uiso   1.00
C1118  C     0.48005   0.16621   0.91359   0.00000  Uiso   1.00
C1119  C     0.51513   0.16823   0.58831   0.00000  Uiso   1.00
C1120  C     0.48300   0.14279   0.95016   0.00000  Uiso   1.00
C1121  C     0.53471   0.16268   0.54098   0.00000  Uiso   1.00
C1122  C     0.44923   0.11029   0.96764   0.00000  Uiso   1.00
C1123  C     0.47283   0.11094   0.53613   0.00000  Uiso   1.00
C1124  C     0.57848   0.18333   0.51737   0.00000  Uiso   1.00
C1125  C     0.51800   0.15201   0.97066   0.00000  Uiso   1.00
C1126  C     0.50815   0.14191   0.51651   0.00000  Uiso   1.00
C1127  C     0.42660   0.02506   0.93079   0.00000  Uiso   1.00
C1128  C     0.61713   0.27218   0.51698   0.00000  Uiso   1.00
C1129  C     0.50159   0.06496   0.57417   0.00000  Uiso   1.00
C1130  C     0.59013   0.12333   0.88396   0.00000  Uiso   1.00
C1131  C     0.62672   0.31540   0.70989   0.00000  Uiso   1.00
C1132  C     0.37615   0.01537   0.78402   0.00000  Uiso   1.00
C1133  C     0.55876   0.03735   0.82009   0.00000  Uiso   1.00
C1134  C     0.56465   0.16711   0.94570   0.00000  Uiso   1.00
C1135  C     0.45278   0.29365   0.67017   0.00000  Uiso   1.00
C1136  C     0.66188   0.14074   0.64049   0.00000  Uiso   1.00
C1137  C     0.37085   0.24266   0.81895   0.00000  Uiso   1.00
C1138  C     0.38872   0.07870   0.68559   0.00000  Uiso   1.00
C1139  C     0.59840   0.24870   0.81784   0.00000  Uiso   1.00
C1140  C     0.44368   0.09487   0.51179   0.00000  Uiso   1.00
C1141  C     0.59523   0.18181   0.96907   0.00000  Uiso   1.00
C1142  C     0.54434   0.31375   0.74515   0.00000  Uiso   1.00
C1143  C     0.45859   0.01893   0.74986   0.00000  Uiso   1.00
C1144  C     0.53792   0.02201   0.75754   0.00000  Uiso   1.00
H1145  H     0.40539   0.32912   0.93916   0.00000  Uiso   1.00
H1146  H     0.60720   0.10590   0.90475   0.00000  Uiso   1.00
H1147  H     0.61457   0.12239   0.84793   0.00000  Uiso   1.00
H1148  H     0.55618   0.10760   0.88490   0.00000  Uiso   1.00
H1149  H     0.65599   0.29306   0.69598   0.00000  Uiso   1.00
H1150  H     0.64076   0.00650   0.72783   0.00000  Uiso   1.00
H1151  H     0.61879   0.32864   0.68039   0.00000  Uiso   1.00
H1152  H     0.34602   0.03679   0.79833   0.00000  Uiso   1.00
H1153  H     0.38373   0.00152   0.81340   0.00000  Uiso   1.00
H1154  H     0.36340   0.32479   0.76446   0.00000  Uiso   1.00
H1155  H     0.52584   0.05461   0.83894   0.00000  Uiso   1.00
H1156  H     0.45622   0.02339   0.94513   0.00000  Uiso   1.00
H1157  H     0.58835   0.04975   0.83116   0.00000  Uiso   1.00
H1158  H     0.55392   0.00410   0.82943   0.00000  Uiso   1.00
H1159  H     0.42536   0.28139   0.65596   0.00000  Uiso   1.00
H1160  H     0.48545   0.27481   0.65571   0.00000  Uiso   1.00
H1161  H     0.46061   0.32628   0.65901   0.00000  Uiso   1.00
H1162  H     0.36271   0.12569   0.62173   0.00000  Uiso   1.00
H1163  H     0.33569   0.17444   0.64207   0.00000  Uiso   1.00
H1164  H     0.63813   0.13548   0.61977   0.00000  Uiso   1.00
H1165  H     0.34501   0.26131   0.84605   0.00000  Uiso   1.00
H1166  H     0.37585   0.25660   0.78522   0.00000  Uiso   1.00
H1167  H     0.44153   0.02697   0.89277   0.00000  Uiso   1.00
H1168  H     0.40485   0.24534   0.82634   0.00000  Uiso   1.00
H1169  H     0.42093   0.05965   0.67812   0.00000  Uiso   1.00
H1170  H     0.36168   0.06859   0.71841   0.00000  Uiso   1.00
H1171  H     0.37462   0.07172   0.65738   0.00000  Uiso   1.00
H1172  H     0.60117   0.26113   0.85052   0.00000  Uiso   1.00
H1173  H     0.56419   0.25989   0.81608   0.00000  Uiso   1.00
H1174  H     0.62835   0.26190   0.78887   0.00000  Uiso   1.00
H1175  H     0.59271   0.28488   0.55003   0.00000  Uiso   1.00
H1176  H     0.59753   0.26775   0.99221   0.00000  Uiso   1.00
H1177  H     0.64601   0.29557   0.50262   0.00000  Uiso   1.00
H1178  H     0.49622   0.03835   0.55282   0.00000  Uiso   1.00
H1179  H     0.49752   0.05318   0.60862   0.00000  Uiso   1.00
H1180  H     0.53866   0.07776   0.55950   0.00000  Uiso   1.00
I1181  I     0.38795   0.05241   0.54853   0.00000  Uiso   1.00
I1182  I     0.33418   0.19656   0.92978   0.00000  Uiso   1.00
I1183  I     0.44458   0.19272   0.61087   0.00000  Uiso   1.00
I1184  I     0.49594   0.23107   0.91149   0.00000  Uiso   1.00
I1185  I     0.61834   0.24262   0.62863   0.00000  Uiso   1.00
I1186  I     0.38257   0.09087   0.86176   0.00000  Uiso   1.00
N1187  N     0.38093   0.16668   0.75001   0.00000  Uiso   1.00
N1188  N     0.61907   0.16666   0.74999   0.00000  Uiso   1.00
O1189  O     0.46179   0.22775   0.75001   0.00000  Uiso   1.00
O1190  O     0.63814   0.23508   0.52321   0.00000  Uiso   1.00
O1191  O     0.46709   0.09551   0.57900   0.00000  Uiso   1.00
O1192  O     0.58221   0.16508   0.89834   0.00000  Uiso   1.00
O1193  O     0.58690   0.29442   0.74078   0.00000  Uiso   1.00
O1194  O     0.41574   0.03791   0.75484   0.00000  Uiso   1.00
O1195  O     0.57138   0.04289   0.77246   0.00000  Uiso   1.00
O1196  O     0.43437   0.29069   0.71828   0.00000  Uiso   1.00
O1197  O     0.63983   0.12319   0.68410   0.00000  Uiso   1.00
O1198  O     0.35532   0.20087   0.82255   0.00000  Uiso   1.00
O1199  O     0.40297   0.12075   0.68594   0.00000  Uiso   1.00
O1200  O     0.53821   0.10558   0.75000   0.00000  Uiso   1.00
O1201  O     0.59589   0.20514   0.81946   0.00000  Uiso   1.00
O1202  O     0.53823   0.22774   0.75000   0.00000  Uiso   1.00
O1203  O     0.46177   0.10559   0.75000   0.00000  Uiso   1.00
O1204  O     0.43994   0.16667   0.81613   0.00000  Uiso   1.00
O1205  O     0.56006   0.16666   0.68388   0.00000  Uiso   1.00
O1206  O     0.51639   0.16666   0.81612   0.00000  Uiso   1.00
O1207  O     0.48361   0.16667   0.68388   0.00000  Uiso   1.00
O1208  O     0.39617   0.05841   0.95034   0.00000  Uiso   1.00
Zn1209 Zn    0.44896   0.16667   0.75000   0.00000  Uiso   1.00
Zn1210 Zn    0.55104   0.16666   0.75000   0.00000  Uiso   1.00
C1211  C     0.83544   0.24651   0.74588   0.00000  Uiso   1.00
C1212  C     0.79911   0.31103   0.73629   0.00000  Uiso   1.00
C1213  C     0.83060   0.04195   0.75516   0.00000  Uiso   1.00
C1214  C     0.83846   0.29088   0.74080   0.00000  Uiso   1.00
C1215  C     0.98668   0.14523   0.71680   0.00000  Uiso   1.00
C1216  C     0.67949   0.18735   0.78364   0.00000  Uiso   1.00
C1217  C     0.70142   0.14382   0.71786   0.00000  Uiso   1.00
C1218  C     0.96492   0.18790   0.78312   0.00000  Uiso   1.00
C1219  C     0.80390   0.16436   0.83767   0.00000  Uiso   1.00
C1220  C     0.86246   0.17063   0.66270   0.00000  Uiso   1.00
C1221  C     0.78831   0.15065   0.88565   0.00000  Uiso   1.00
C1222  C     0.83178   0.08660   0.75298   0.00000  Uiso   1.00
C1223  C     0.87859   0.17891   0.61327   0.00000  Uiso   1.00
C1224  C     0.75604   0.09481   0.94002   0.00000  Uiso   1.00
C1225  C     0.93544   0.20655   0.54330   0.00000  Uiso   1.00
C1226  C     0.75878   0.11514   0.89952   0.00000  Uiso   1.00
C1227  C     0.92018   0.20239   0.59112   0.00000  Uiso   1.00
C1228  C     0.81338   0.16621   0.91359   0.00000  Uiso   1.00
C1229  C     0.84846   0.16823   0.58831   0.00000  Uiso   1.00
C1230  C     0.81634   0.14279   0.95016   0.00000  Uiso   1.00
C1231  C     0.86805   0.16268   0.54098   0.00000  Uiso   1.00
C1232  C     0.78257   0.11029   0.96764   0.00000  Uiso   1.00
C1233  C     0.80616   0.11094   0.53613   0.00000  Uiso   1.00
C1234  C     0.91182   0.18333   0.51737   0.00000  Uiso   1.00
C1235  C     0.85133   0.15201   0.97066   0.00000  Uiso   1.00
C1236  C     0.84149   0.14191   0.51651   0.00000  Uiso   1.00
C1237  C     0.75994   0.02506   0.93079   0.00000  Uiso   1.00
C1238  C     0.95046   0.27218   0.51698   0.00000  Uiso   1.00
C1239  C     0.83492   0.06496   0.57417   0.00000  Uiso   1.00
C1240  C     0.92346   0.12333   0.88396   0.00000  Uiso   1.00
C1241  C     0.96006   0.31540   0.70989   0.00000  Uiso   1.00
C1242  C     0.70948   0.01537   0.78402   0.00000  Uiso   1.00
C1243  C     0.89210   0.03735   0.82009   0.00000  Uiso   1.00
C1244  C     0.89798   0.16711   0.94570   0.00000  Uiso   1.00
C1245  C     0.78612   0.29365   0.67017   0.00000  Uiso   1.00
C1246  C     0.99521   0.14074   0.64049   0.00000  Uiso   1.00
C1247  C     0.70419   0.24266   0.81895   0.00000  Uiso   1.00
C1248  C     0.72205   0.07870   0.68559   0.00000  Uiso   1.00
C1249  C     0.93174   0.24870   0.81784   0.00000  Uiso   1.00
C1250  C     0.77701   0.09487   0.51179   0.00000  Uiso   1.00
C1251  C     0.92856   0.18181   0.96907   0.00000  Uiso   1.00
C1252  C     0.87767   0.31375   0.74515   0.00000  Uiso   1.00
C1253  C     0.79192   0.01893   0.74986   0.00000  Uiso   1.00
C1254  C     0.87125   0.02201   0.75754   0.00000  Uiso   1.00
H1255  H     0.73872   0.32912   0.93916   0.00000  Uiso   1.00
H1256  H     0.94053   0.10590   0.90475   0.00000  Uiso   1.00
H1257  H     0.94790   0.12239   0.84793   0.00000  Uiso   1.00
H1258  H     0.88952   0.10760   0.88490   0.00000  Uiso   1.00
H1259  H     0.98933   0.29306   0.69598   0.00000  Uiso   1.00
H1260  H     0.97410   0.00650   0.72783   0.00000  Uiso   1.00
H1261  H     0.95213   0.32864   0.68039   0.00000  Uiso   1.00
H1262  H     0.67935   0.03679   0.79833   0.00000  Uiso   1.00
H1263  H     0.71706   0.00152   0.81340   0.00000  Uiso   1.00
H1264  H     0.69673   0.32479   0.76446   0.00000  Uiso   1.00
H1265  H     0.85917   0.05461   0.83894   0.00000  Uiso   1.00
H1266  H     0.78955   0.02339   0.94513   0.00000  Uiso   1.00
H1267  H     0.92168   0.04975   0.83116   0.00000  Uiso   1.00
H1268  H     0.88726   0.00410   0.82943   0.00000  Uiso   1.00
H1269  H     0.75869   0.28139   0.65596   0.00000  Uiso   1.00
H1270  H     0.81878   0.27481   0.65571   0.00000  Uiso   1.00
H1271  H     0.79394   0.32628   0.65901   0.00000  Uiso   1.00
H1272  H     0.69605   0.12569   0.62173   0.00000  Uiso   1.00
H1273  H     0.66902   0.17444   0.64207   0.00000  Uiso   1.00
H1274  H     0.97146   0.13548   0.61977   0.00000  Uiso   1.00
H1275  H     0.67834   0.26131   0.84605   0.00000  Uiso   1.00
H1276  H     0.70919   0.25660   0.78522   0.00000  Uiso   1.00
H1277  H     0.77487   0.02697   0.89277   0.00000  Uiso   1.00
H1278  H     0.73818   0.24534   0.82634   0.00000  Uiso   1.00
H1279  H     0.75426   0.05965   0.67812   0.00000  Uiso   1.00
H1280  H     0.69501   0.06859   0.71841   0.00000  Uiso   1.00
H1281  H     0.70795   0.07172   0.65738   0.00000  Uiso   1.00
H1282  H     0.93450   0.26113   0.85052   0.00000  Uiso   1.00
H1283  H     0.89752   0.25989   0.81608   0.00000  Uiso   1.00
H1284  H     0.96168   0.26190   0.78887   0.00000  Uiso   1.00
H1285  H     0.92604   0.28488   0.55003   0.00000  Uiso   1.00
H1286  H     0.93086   0.26775   0.99221   0.00000  Uiso   1.00
H1287  H     0.97934   0.29557   0.50262   0.00000  Uiso   1.00
H1288  H     0.82955   0.03835   0.55282   0.00000  Uiso   1.00
H1289  H     0.83085   0.05318   0.60862   0.00000  Uiso   1.00
H1290  H     0.87200   0.07776   0.55950   0.00000  Uiso   1.00
I1291  I     0.72128   0.05241   0.54853   0.00000  Uiso   1.00
I1292  I     0.66751   0.19656   0.92978   0.00000  Uiso   1.00
I1293  I     0.77792   0.19272   0.61087   0.00000  Uiso   1.00
I1294  I     0.82928   0.23107   0.91149   0.00000  Uiso   1.00
I1295  I     0.95167   0.24262   0.62863   0.00000  Uiso   1.00
I1296  I     0.71591   0.09087   0.86176   0.00000  Uiso   1.00
N1297  N     0.71426   0.16668   0.75001   0.00000  Uiso   1.00
N1298  N     0.95241   0.16666   0.74999   0.00000  Uiso   1.00
O1299  O     0.79512   0.22775   0.75001   0.00000  Uiso   1.00
O1300  O     0.97147   0.23508   0.52321   0.00000  Uiso   1.00
O1301  O     0.80042   0.09551   0.57900   0.00000  Uiso   1.00
O1302  O     0.91555   0.16508   0.89834   0.00000  Uiso   1.00
O1303  O     0.92023   0.29442   0.74078   0.00000  Uiso   1.00
O1304  O     0.74907   0.03791   0.75484   0.00000  Uiso   1.00
O1305  O     0.90472   0.04289   0.77246   0.00000  Uiso   1.00
O1306  O     0.76770   0.29069   0.71828   0.00000  Uiso   1.00
O1307  O     0.97317   0.12319   0.68410   0.00000  Uiso   1.00
O1308  O     0.68866   0.20087   0.82255   0.00000  Uiso   1.00
O1309  O     0.73631   0.12075   0.68594   0.00000  Uiso   1.00
O1310  O     0.87154   0.10558   0.75000   0.00000  Uiso   1.00
O1311  O     0.92923   0.20514   0.81946   0.00000  Uiso   1.00
O1312  O     0.87157   0.22774   0.75000   0.00000  Uiso   1.00
O1313  O     0.79510   0.10559   0.75000   0.00000  Uiso   1.00
O1314  O     0.77328   0.16667   0.81613   0.00000  Uiso   1.00
O1315  O     0.89339   0.16666   0.68388   0.00000  Uiso   1.00
O1316  O     0.84972   0.16666   0.81612   0.00000  Uiso   1.00
O1317  O     0.81695   0.16667   0.68388   0.00000  Uiso   1.00
O1318  O     0.72951   0.05841   0.95034   0.00000  Uiso   1.00
Zn1319 Zn    0.78229   0.16667   0.75000   0.00000  Uiso   1.00
Zn1320 Zn    0.88438   0.16666   0.75000   0.00000  Uiso   1.00
C1321  C     0.16878   0.57985   0.74588   0.00000  Uiso   1.00
C1322  C     0.13245   0.64436   0.73629   0.00000  Uiso   1.00
C1323  C     0.16394   0.37528   0.75516   0.00000  Uiso   1.00
C1324  C     0.17179   0.62422   0.74080   0.00000  Uiso   1.00
C1325  C     0.32002   0.47856   0.71680   0.00000  Uiso   1.00
C1326  C     0.01282   0.52069   0.78364   0.00000  Uiso   1.00
C1327  C     0.03476   0.47715   0.71786   0.00000  Uiso   1.00
C1328  C     0.29825   0.52123   0.78312   0.00000  Uiso   1.00
C1329  C     0.13723   0.49769   0.83767   0.00000  Uiso   1.00
C1330  C     0.19579   0.50396   0.66270   0.00000  Uiso   1.00
C1331  C     0.12165   0.48399   0.88565   0.00000  Uiso   1.00
C1332  C     0.16511   0.41994   0.75298   0.00000  Uiso   1.00
C1333  C     0.21193   0.51225   0.61327   0.00000  Uiso   1.00
C1334  C     0.08937   0.42815   0.94002   0.00000  Uiso   1.00
C1335  C     0.26878   0.53988   0.54330   0.00000  Uiso   1.00
C1336  C     0.09211   0.44848   0.89952   0.00000  Uiso   1.00
C1337  C     0.25351   0.53572   0.59112   0.00000  Uiso   1.00
C1338  C     0.14671   0.49954   0.91359   0.00000  Uiso   1.00
C1339  C     0.18180   0.50157   0.58831   0.00000  Uiso   1.00
C1340  C     0.14967   0.47613   0.95016   0.00000  Uiso   1.00
C1341  C     0.20138   0.49602   0.54098   0.00000  Uiso   1.00
C1342  C     0.11590   0.44363   0.96764   0.00000  Uiso   1.00
C1343  C     0.13950   0.44427   0.53613   0.00000  Uiso   1.00
C1344  C     0.24515   0.51666   0.51737   0.00000  Uiso   1.00
C1345  C     0.18466   0.48534   0.97066   0.00000  Uiso   1.00
C1346  C     0.17482   0.47524   0.51651   0.00000  Uiso   1.00
C1347  C     0.09327   0.35839   0.93079   0.00000  Uiso   1.00
C1348  C     0.28380   0.60551   0.51698   0.00000  Uiso   1.00
C1349  C     0.16825   0.39829   0.57417   0.00000  Uiso   1.00
C1350  C     0.25679   0.45667   0.88396   0.00000  Uiso   1.00
C1351  C     0.29339   0.64873   0.70989   0.00000  Uiso   1.00
C1352  C     0.04282   0.34871   0.78402   0.00000  Uiso   1.00
C1353  C     0.22543   0.37068   0.82009   0.00000  Uiso   1.00
C1354  C     0.23131   0.50044   0.94570   0.00000  Uiso   1.00
C1355  C     0.11945   0.62698   0.67017   0.00000  Uiso   1.00
C1356  C     0.32854   0.47407   0.64049   0.00000  Uiso   1.00
C1357  C     0.03752   0.57600   0.81895   0.00000  Uiso   1.00
C1358  C     0.05539   0.41203   0.68559   0.00000  Uiso   1.00
C1359  C     0.26507   0.58203   0.81784   0.00000  Uiso   1.00
C1360  C     0.11034   0.42821   0.51179   0.00000  Uiso   1.00
C1361  C     0.26190   0.51515   0.96907   0.00000  Uiso   1.00
C1362  C     0.21100   0.64708   0.74515   0.00000  Uiso   1.00
C1363  C     0.12526   0.35227   0.74986   0.00000  Uiso   1.00
C1364  C     0.20459   0.35534   0.75754   0.00000  Uiso   1.00
H1365  H     0.07205   0.66245   0.93916   0.00000  Uiso   1.00
H1366  H     0.27386   0.43923   0.90475   0.00000  Uiso   1.00
H1367  H     0.28123   0.45573   0.84793   0.00000  Uiso   1.00
H1368  H     0.22285   0.44093   0.88490   0.00000  Uiso   1.00
H1369  H     0.32266   0.62639   0.69598   0.00000  Uiso   1.00
H1370  H     0.30743   0.33983   0.72783   0.00000  Uiso   1.00
H1371  H     0.28546   0.66197   0.68039   0.00000  Uiso   1.00
H1372  H     0.01268   0.37012   0.79833   0.00000  Uiso   1.00
H1373  H     0.05040   0.33486   0.81340   0.00000  Uiso   1.00
H1374  H     0.03007   0.65813   0.76446   0.00000  Uiso   1.00
H1375  H     0.19250   0.38794   0.83894   0.00000  Uiso   1.00
H1376  H     0.12288   0.35672   0.94513   0.00000  Uiso   1.00
H1377  H     0.25501   0.38308   0.83116   0.00000  Uiso   1.00
H1378  H     0.22059   0.33743   0.82943   0.00000  Uiso   1.00
H1379  H     0.09202   0.61472   0.65596   0.00000  Uiso   1.00
H1380  H     0.15211   0.60815   0.65571   0.00000  Uiso   1.00
H1381  H     0.12728   0.65961   0.65901   0.00000  Uiso   1.00
H1382  H     0.02938   0.45902   0.62173   0.00000  Uiso   1.00
H1383  H     0.00235   0.50778   0.64207   0.00000  Uiso   1.00
H1384  H     0.30479   0.46882   0.61977   0.00000  Uiso   1.00
H1385  H     0.01168   0.59464   0.84605   0.00000  Uiso   1.00
H1386  H     0.04252   0.58994   0.78522   0.00000  Uiso   1.00
H1387  H     0.10820   0.36030   0.89277   0.00000  Uiso   1.00
H1388  H     0.07152   0.57868   0.82634   0.00000  Uiso   1.00
H1389  H     0.08760   0.39298   0.67812   0.00000  Uiso   1.00
H1390  H     0.02835   0.40192   0.71841   0.00000  Uiso   1.00
H1391  H     0.04128   0.40505   0.65738   0.00000  Uiso   1.00
H1392  H     0.26784   0.59447   0.85052   0.00000  Uiso   1.00
H1393  H     0.23085   0.59322   0.81608   0.00000  Uiso   1.00
H1394  H     0.29501   0.59523   0.78887   0.00000  Uiso   1.00
H1395  H     0.25937   0.61821   0.55003   0.00000  Uiso   1.00
H1396  H     0.26420   0.60108   0.99221   0.00000  Uiso   1.00
H1397  H     0.31267   0.62891   0.50262   0.00000  Uiso   1.00
H1398  H     0.16289   0.37168   0.55282   0.00000  Uiso   1.00
H1399  H     0.16418   0.38652   0.60862   0.00000  Uiso   1.00
H1400  H     0.20533   0.41109   0.55950   0.00000  Uiso   1.00
I1401  I     0.05462   0.38574   0.54853   0.00000  Uiso   1.00
I1402  I     0.00085   0.52989   0.92978   0.00000  Uiso   1.00
I1403  I     0.11125   0.52605   0.61087   0.00000  Uiso   1.00
I1404  I     0.16261   0.56440   0.91149   0.00000  Uiso   1.00
I1405  I     0.28501   0.57595   0.62863   0.00000  Uiso   1.00
I1406  I     0.04924   0.42420   0.86176   0.00000  Uiso   1.00
N1407  N     0.04759   0.50001   0.75001   0.00000  Uiso   1.00
N1408  N     0.28574   0.49999   0.74999   0.00000  Uiso   1.00
O1409  O     0.12846   0.56108   0.75001   0.00000  Uiso   1.00
O1410  O     0.30481   0.56841   0.52321   0.00000  Uiso   1.00
O1411  O     0.13376   0.42885   0.57900   0.00000  Uiso   1.00
O1412  O     0.24888   0.49841   0.89834   0.00000  Uiso   1.00
O1413  O     0.25357   0.62775   0.74078   0.00000  Uiso   1.00
O1414  O     0.08240   0.37124   0.75484   0.00000  Uiso   1.00
O1415  O     0.23805   0.37622   0.77246   0.00000  Uiso   1.00
O1416  O     0.10103   0.62403   0.71828   0.00000  Uiso   1.00
O1417  O     0.30650   0.45652   0.68410   0.00000  Uiso   1.00
O1418  O     0.02199   0.53420   0.82255   0.00000  Uiso   1.00
O1419  O     0.06964   0.45408   0.68594   0.00000  Uiso   1.00
O1420  O     0.20488   0.43892   0.75000   0.00000  Uiso   1.00
O1421  O     0.26256   0.53847   0.81946   0.00000  Uiso   1.00
O1422  O     0.20490   0.56107   0.75000   0.00000  Uiso   1.00
O1423  O     0.12843   0.43893   0.75000   0.00000  Uiso   1.00
O1424  O     0.10661   0.50001   0.81613   0.00000  Uiso   1.00
O1425  O     0.22672   0.49999   0.68388   0.00000  Uiso   1.00
O1426  O     0.18305   0.50000   0.81612   0.00000  Uiso   1.00
O1427  O     0.15028   0.50000   0.68388   0.00000  Uiso   1.00
O1428  O     0.06284   0.39175   0.95034   0.00000  Uiso   1.00
Zn1429 Zn    0.11562   0.50001   0.75000   0.00000  Uiso   1.00
Zn1430 Zn    0.21771   0.49999   0.75000   0.00000  Uiso   1.00
C1431  C     0.50211   0.57985   0.74588   0.00000  Uiso   1.00
C1432  C     0.46578   0.64436   0.73629   0.00000  Uiso   1.00
C1433  C     0.49727   0.37528   0.75516   0.00000  Uiso   1.00
C1434  C     0.50513   0.62422   0.74080   0.00000  Uiso   1.00
C1435  C     0.65335   0.47856   0.71680   0.00000  Uiso   1.00
C1436  C     0.34616   0.52069   0.78364   0.00000  Uiso   1.00
C1437  C     0.36809   0.47715   0.71786   0.00000  Uiso   1.00
C1438  C     0.63158   0.52123   0.78312   0.00000  Uiso   1.00
C1439  C     0.47057   0.49769   0.83767   0.00000  Uiso   1.00
C1440  C     0.52913   0.50396   0.66270   0.00000  Uiso   1.00
C1441  C     0.45498   0.48399   0.88565   0.00000  Uiso   1.00
C1442  C     0.49845   0.41994   0.75298   0.00000  Uiso   1.00
C1443  C     0.54526   0.51225   0.61327   0.00000  Uiso   1.00
C1444  C     0.42270   0.42815   0.94002   0.00000  Uiso   1.00
C1445  C     0.60211   0.53988   0.54330   0.00000  Uiso   1.00
C1446  C     0.42544   0.44848   0.89952   0.00000  Uiso   1.00
C1447  C     0.58684   0.53572   0.59112   0.00000  Uiso   1.00
C1448  C     0.48005   0.49954   0.91359   0.00000  Uiso   1.00
C1449  C     0.51513   0.50157   0.58831   0.00000  Uiso   1.00
C1450  C     0.48300   0.47613   0.95016   0.00000  Uiso   1.00
C1451  C     0.53471   0.49602   0.54098   0.00000  Uiso   1.00
C1452  C     0.44923   0.44363   0.96764   0.00000  Uiso   1.00
C1453  C     0.47283   0.44427   0.53613   0.00000  Uiso   1.00
C1454  C     0.57848   0.51666   0.51737   0.00000  Uiso   1.00
C1455  C     0.51800   0.48534   0.97066   0.00000  Uiso   1.00
C1456  C     0.50815   0.47524   0.51651   0.00000  Uiso   1.00
C1457  C     0.42660   0.35839   0.93079   0.00000  Uiso   1.00
C1458  C     0.61713   0.60551   0.51698   0.00000  Uiso   1.00
C1459  C     0.50159   0.39829   0.57417   0.00000  Uiso   1.00
C1460  C     0.59013   0.45667   0.88396   0.00000  Uiso   1.00
C1461  C     0.62672   0.64873   0.70989   0.00000  Uiso   1.00
C1462  C     0.37615   0.34871   0.78402   0.00000  Uiso   1.00
C1463  C     0.55876   0.37068   0.82009   0.00000  Uiso   1.00
C1464  C     0.56465   0.50044   0.94570   0.00000  Uiso   1.00
C1465  C     0.45278   0.62698   0.67017   0.00000  Uiso   1.00
C1466  C     0.66188   0.47407   0.64049   0.00000  Uiso   1.00
C1467  C     0.37085   0.57600   0.81895   0.00000  Uiso   1.00
C1468  C     0.38872   0.41203   0.68559   0.00000  Uiso   1.00
C1469  C     0.59840   0.58203   0.81784   0.00000  Uiso   1.00
C1470  C     0.44368   0.42821   0.51179   0.00000  Uiso   1.00
C1471  C     0.59523   0.51515   0.96907   0.00000  Uiso   1.00
C1472  C     0.54434   0.64708   0.74515   0.00000  Uiso   1.00
C1473  C     0.45859   0.35227   0.74986   0.00000  Uiso   1.00
C1474  C     0.53792   0.35534   0.75754   0.00000  Uiso   1.00
H1475  H     0.40539   0.66245   0.93916   0.00000  Uiso   1.00
H1476  H     0.60720   0.43923   0.90475   0.00000  Uiso   1.00
H1477  H     0.61457   0.45573   0.84793   0.00000  Uiso   1.00
H1478  H     0.55618   0.44093   0.88490   0.00000  Uiso   1.00
H1479  H     0.65599   0.62639   0.69598   0.00000  Uiso   1.00
H1480  H     0.64076   0.33983   0.72783   0.00000  Uiso   1.00
H1481  H     0.61879   0.66197   0.68039   0.00000  Uiso   1.00
H1482  H     0.34602   0.37012   0.79833   0.00000  Uiso   1.00
H1483  H     0.38373   0.33486   0.81340   0.00000  Uiso   1.00
H1484  H     0.36340   0.65813   0.76446   0.00000  Uiso   1.00
H1485  H     0.52584   0.38794   0.83894   0.00000  Uiso   1.00
H1486  H     0.45622   0.35672   0.94513   0.00000  Uiso   1.00
H1487  H     0.58835   0.38308   0.83116   0.00000  Uiso   1.00
H1488  H     0.55392   0.33743   0.82943   0.00000  Uiso   1.00
H1489  H     0.42536   0.61472   0.65596   0.00000  Uiso   1.00
H1490  H     0.48545   0.60815   0.65571   0.00000  Uiso   1.00
H1491  H     0.46061   0.65961   0.65901   0.00000  Uiso   1.00
H1492  H     0.36271   0.45902   0.62173   0.00000  Uiso   1.00
H1493  H     0.33569   0.50778   0.64207   0.00000  Uiso   1.00
H1494  H     0.63813   0.46882   0.61977   0.00000  Uiso   1.00
H1495  H     0.34501   0.59464   0.84605   0.00000  Uiso   1.00
H1496  H     0.37585   0.58994   0.78522   0.00000  Uiso   1.00
H1497  H     0.44153   0.36030   0.89277   0.00000  Uiso   1.00
H1498  H     0.40485   0.57868   0.82634   0.00000  Uiso   1.00
H1499  H     0.42093   0.39298   0.67812   0.00000  Uiso   1.00
H1500  H     0.36168   0.40192   0.71841   0.00000  Uiso   1.00
H1501  H     0.37462   0.40505   0.65738   0.00000  Uiso   1.00
H1502  H     0.60117   0.59447   0.85052   0.00000  Uiso   1.00
H1503  H     0.56419   0.59322   0.81608   0.00000  Uiso   1.00
H1504  H     0.62835   0.59523   0.78887   0.00000  Uiso   1.00
H1505  H     0.59271   0.61821   0.55003   0.00000  Uiso   1.00
H1506  H     0.59753   0.60108   0.99221   0.00000  Uiso   1.00
H1507  H     0.64601   0.62891   0.50262   0.00000  Uiso   1.00
H1508  H     0.49622   0.37168   0.55282   0.00000  Uiso   1.00
H1509  H     0.49752   0.38652   0.60862   0.00000  Uiso   1.00
H1510  H     0.53866   0.41109   0.55950   0.00000  Uiso   1.00
I1511  I     0.38795   0.38574   0.54853   0.00000  Uiso   1.00
I1512  I     0.33418   0.52989   0.92978   0.00000  Uiso   1.00
I1513  I     0.44458   0.52605   0.61087   0.00000  Uiso   1.00
I1514  I     0.49594   0.56440   0.91149   0.00000  Uiso   1.00
I1515  I     0.61834   0.57595   0.62863   0.00000  Uiso   1.00
I1516  I     0.38257   0.42420   0.86176   0.00000  Uiso   1.00
N1517  N     0.38093   0.50001   0.75001   0.00000  Uiso   1.00
N1518  N     0.61907   0.49999   0.74999   0.00000  Uiso   1.00
O1519  O     0.46179   0.56108   0.75001   0.00000  Uiso   1.00
O1520  O     0.63814   0.56841   0.52321   0.00000  Uiso   1.00
O1521  O     0.46709   0.42885   0.57900   0.00000  Uiso   1.00
O1522  O     0.58221   0.49841   0.89834   0.00000  Uiso   1.00
O1523  O     0.58690   0.62775   0.74078   0.00000  Uiso   1.00
O1524  O     0.41574   0.37124   0.75484   0.00000  Uiso   1.00
O1525  O     0.57138   0.37622   0.77246   0.00000  Uiso   1.00
O1526  O     0.43437   0.62403   0.71828   0.00000  Uiso   1.00
O1527  O     0.63983   0.45652   0.68410   0.00000  Uiso   1.00
O1528  O     0.35532   0.53420   0.82255   0.00000  Uiso   1.00
O1529  O     0.40297   0.45408   0.68594   0.00000  Uiso   1.00
O1530  O     0.53821   0.43892   0.75000   0.00000  Uiso   1.00
O1531  O     0.59589   0.53847   0.81946   0.00000  Uiso   1.00
O1532  O     0.53823   0.56107   0.75000   0.00000  Uiso   1.00
O1533  O     0.46177   0.43893   0.75000   0.00000  Uiso   1.00
O1534  O     0.43994   0.50001   0.81613   0.00000  Uiso   1.00
O1535  O     0.56006   0.49999   0.68388   0.00000  Uiso   1.00
O1536  O     0.51639   0.50000   0.81612   0.00000  Uiso   1.00
O1537  O     0.48361   0.50000   0.68388   0.00000  Uiso   1.00
O1538  O     0.39617   0.39175   0.95034   0.00000  Uiso   1.00
Zn1539 Zn    0.44896   0.50001   0.75000   0.00000  Uiso   1.00
Zn1540 Zn    0.55104   0.49999   0.75000   0.00000  Uiso   1.00
C1541  C     0.83544   0.57985   0.74588   0.00000  Uiso   1.00
C1542  C     0.79911   0.64436   0.73629   0.00000  Uiso   1.00
C1543  C     0.83060   0.37528   0.75516   0.00000  Uiso   1.00
C1544  C     0.83846   0.62422   0.74080   0.00000  Uiso   1.00
C1545  C     0.98668   0.47856   0.71680   0.00000  Uiso   1.00
C1546  C     0.67949   0.52069   0.78364   0.00000  Uiso   1.00
C1547  C     0.70142   0.47715   0.71786   0.00000  Uiso   1.00
C1548  C     0.96492   0.52123   0.78312   0.00000  Uiso   1.00
C1549  C     0.80390   0.49769   0.83767   0.00000  Uiso   1.00
C1550  C     0.86246   0.50396   0.66270   0.00000  Uiso   1.00
C1551  C     0.78831   0.48399   0.88565   0.00000  Uiso   1.00
C1552  C     0.83178   0.41994   0.75298   0.00000  Uiso   1.00
C1553  C     0.87859   0.51225   0.61327   0.00000  Uiso   1.00
C1554  C     0.75604   0.42815   0.94002   0.00000  Uiso   1.00
C1555  C     0.93544   0.53988   0.54330   0.00000  Uiso   1.00
C1556  C     0.75878   0.44848   0.89952   0.00000  Uiso   1.00
C1557  C     0.92018   0.53572   0.59112   0.00000  Uiso   1.00
C1558  C     0.81338   0.49954   0.91359   0.00000  Uiso   1.00
C1559  C     0.84846   0.50157   0.58831   0.00000  Uiso   1.00
C1560  C     0.81634   0.47613   0.95016   0.00000  Uiso   1.00
C1561  C     0.86805   0.49602   0.54098   0.00000  Uiso   1.00
C1562  C     0.78257   0.44363   0.96764   0.00000  Uiso   1.00
C1563  C     0.80616   0.44427   0.53613   0.00000  Uiso   1.00
C1564  C     0.91182   0.51666   0.51737   0.00000  Uiso   1.00
C1565  C     0.85133   0.48534   0.97066   0.00000  Uiso   1.00
C1566  C     0.84149   0.47524   0.51651   0.00000  Uiso   1.00
C1567  C     0.75994   0.35839   0.93079   0.00000  Uiso   1.00
C1568  C     0.95046   0.60551   0.51698   0.00000  Uiso   1.00
C1569  C     0.83492   0.39829   0.57417   0.00000  Uiso   1.00
C1570  C     0.92346   0.45667   0.88396   0.00000  Uiso   1.00
C1571  C     0.96006   0.64873   0.70989   0.00000  Uiso   1.00
C1572  C     0.70948   0.34871   0.78402   0.00000  Uiso   1.00
C1573  C     0.89210   0.37068   0.82009   0.00000  Uiso   1.00
C1574  C     0.89798   0.50044   0.94570   0.00000  Uiso   1.00
C1575  C     0.78612   0.62698   0.67017   0.00000  Uiso   1.00
C1576  C     0.99521   0.47407   0.64049   0.00000  Uiso   1.00
C1577  C     0.70419   0.57600   0.81895   0.00000  Uiso   1.00
C1578  C     0.72205   0.41203   0.68559   0.00000  Uiso   1.00
C1579  C     0.93174   0.58203   0.81784   0.00000  Uiso   1.00
C1580  C     0.77701   0.42821   0.51179   0.00000  Uiso   1.00
C1581  C     0.92856   0.51515   0.96907   0.00000  Uiso   1.00
C1582  C     0.87767   0.64708   0.74515   0.00000  Uiso   1.00
C1583  C     0.79192   0.35227   0.74986   0.00000  Uiso   1.00
C1584  C     0.87125   0.35534   0.75754   0.00000  Uiso   1.00
H1585  H     0.73872   0.66245   0.93916   0.00000  Uiso   1.00
H1586  H     0.94053   0.43923   0.90475   0.00000  Uiso   1.00
H1587  H     0.94790   0.45573   0.84793   0.00000  Uiso   1.00
H1588  H     0.88952   0.44093   0.88490   0.00000  Uiso   1.00
H1589  H     0.98933   0.62639   0.69598   0.00000  Uiso   1.00
H1590  H     0.97410   0.33983   0.72783   0.00000  Uiso   1.00
H1591  H     0.95213   0.66197   0.68039   0.00000  Uiso   1.00
H1592  H     0.67935   0.37012   0.79833   0.00000  Uiso   1.00
H1593  H     0.71706   0.33486   0.81340   0.00000  Uiso   1.00
H1594  H     0.69673   0.65813   0.76446   0.00000  Uiso   1.00
H1595  H     0.85917   0.38794   0.83894   0.00000  Uiso   1.00
H1596  H     0.78955   0.35672   0.94513   0.00000  Uiso   1.00
H1597  H     0.92168   0.38308   0.83116   0.00000  Uiso   1.00
H1598  H     0.88726   0.33743   0.82943   0.00000  Uiso   1.00
H1599  H     0.75869   0.61472   0.65596   0.00000  Uiso   1.00
H1600  H     0.81878   0.60815   0.65571   0.00000  Uiso   1.00
H1601  H     0.79394   0.65961   0.65901   0.00000  Uiso   1.00
H1602  H     0.69605   0.45902   0.62173   0.00000  Uiso   1.00
H1603  H     0.66902   0.50778   0.64207   0.00000  Uiso   1.00
H1604  H     0.97146   0.46882   0.61977   0.00000  Uiso   1.00
H1605  H     0.67834   0.59464   0.84605   0.00000  Uiso   1.00
H1606  H     0.70919   0.58994   0.78522   0.00000  Uiso   1.00
H1607  H     0.77487   0.36030   0.89277   0.00000  Uiso   1.00
H1608  H     0.73818   0.57868   0.82634   0.00000  Uiso   1.00
H1609  H     0.75426   0.39298   0.67812   0.00000  Uiso   1.00
H1610  H     0.69501   0.40192   0.71841   0.00000  Uiso   1.00
H1611  H     0.70795   0.40505   0.65738   0.00000  Uiso   1.00
H1612  H     0.93450   0.59447   0.85052   0.00000  Uiso   1.00
H1613  H     0.89752   0.59322   0.81608   0.00000  Uiso   1.00
H1614  H     0.96168   0.59523   0.78887   0.00000  Uiso   1.00
H1615  H     0.92604   0.61821   0.55003   0.00000  Uiso   1.00
H1616  H     0.93086   0.60108   0.99221   0.00000  Uiso   1.00
H1617  H     0.97934   0.62891   0.50262   0.00000  Uiso   1.00
H1618  H     0.82955   0.37168   0.55282   0.00000  Uiso   1.00
H1619  H     0.83085   0.38652   0.60862   0.00000  Uiso   1.00
H1620  H     0.87200   0.41109   0.55950   0.00000  Uiso   1.00
I1621  I     0.72128   0.38574   0.54853   0.00000  Uiso   1.00
I1622  I     0.66751   0.52989   0.92978   0.00000  Uiso   1.00
I1623  I     0.77792   0.52605   0.61087   0.00000  Uiso   1.00
I1624  I     0.82928   0.56440   0.91149   0.00000  Uiso   1.00
I1625  I     0.95167   0.57595   0.62863   0.00000  Uiso   1.00
I1626  I     0.71591   0.42420   0.86176   0.00000  Uiso   1.00
N1627  N     0.71426   0.50001   0.75001   0.00000  Uiso   1.00
N1628  N     0.95241   0.49999   0.74999   0.00000  Uiso   1.00
O1629  O     0.79512   0.56108   0.75001   0.00000  Uiso   1.00
O1630  O     0.97147   0.56841   0.52321   0.00000  Uiso   1.00
O1631  O     0.80042   0.42885   0.57900   0.00000  Uiso   1.00
O1632  O     0.91555   0.49841   0.89834   0.00000  Uiso   1.00
O1633  O     0.92023   0.62775   0.74078   0.00000  Uiso   1.00
O1634  O     0.74907   0.37124   0.75484   0.00000  Uiso   1.00
O1635  O     0.90472   0.37622   0.77246   0.00000  Uiso   1.00
O1636  O     0.76770   0.62403   0.71828   0.00000  Uiso   1.00
O1637  O     0.97317   0.45652   0.68410   0.00000  Uiso   1.00
O1638  O     0.68866   0.53420   0.82255   0.00000  Uiso   1.00
O1639  O     0.73631   0.45408   0.68594   0.00000  Uiso   1.00
O1640  O     0.87154   0.43892   0.75000   0.00000  Uiso   1.00
O1641  O     0.92923   0.53847   0.81946   0.00000  Uiso   1.00
O1642  O     0.87157   0.56107   0.75000   0.00000  Uiso   1.00
O1643  O     0.79510   0.43893   0.75000   0.00000  Uiso   1.00
O1644  O     0.77328   0.50001   0.81613   0.00000  Uiso   1.00
O1645  O     0.89339   0.49999   0.68388   0.00000  Uiso   1.00
O1646  O     0.84972   0.50000   0.81612   0.00000  Uiso   1.00
O1647  O     0.81695   0.50000   0.68388   0.00000  Uiso   1.00
O1648  O     0.72951   0.39175   0.95034   0.00000  Uiso   1.00
Zn1649 Zn    0.78229   0.50001   0.75000   0.00000  Uiso   1.00
Zn1650 Zn    0.88438   0.49999   0.75000   0.00000  Uiso   1.00
C1651  C     0.16878   0.91318   0.74588   0.00000  Uiso   1.00
C1652  C     0.13245   0.97769   0.73629   0.00000  Uiso   1.00
C1653  C     0.16394   0.70862   0.75516   0.00000  Uiso   1.00
C1654  C     0.17179   0.95755   0.74080   0.00000  Uiso   1.00
C1655  C     0.32002   0.81189   0.71680   0.00000  Uiso   1.00
C1656  C     0.01282   0.85402   0.78364   0.00000  Uiso   1.00
C1657  C     0.03476   0.81048   0.71786   0.00000  Uiso   1.00
C1658  C     0.29825   0.85457   0.78312   0.00000  Uiso   1.00
C1659  C     0.13723   0.83103   0.83767   0.00000  Uiso   1.00
C1660  C     0.19579   0.83730   0.66270   0.00000  Uiso   1.00
C1661  C     0.12165   0.81732   0.88565   0.00000  Uiso   1.00
C1662  C     0.16511   0.75327   0.75298   0.00000  Uiso   1.00
C1663  C     0.21193   0.84558   0.61327   0.00000  Uiso   1.00
C1664  C     0.08937   0.76148   0.94002   0.00000  Uiso   1.00
C1665  C     0.26878   0.87321   0.54330   0.00000  Uiso   1.00
C1666  C     0.09211   0.78181   0.89952   0.00000  Uiso   1.00
C1667  C     0.25351   0.86906   0.59112   0.00000  Uiso   1.00
C1668  C     0.14671   0.83287   0.91359   0.00000  Uiso   1.00
C1669  C     0.18180   0.83490   0.58831   0.00000  Uiso   1.00
C1670  C     0.14967   0.80946   0.95016   0.00000  Uiso   1.00
C1671  C     0.20138   0.82935   0.54098   0.00000  Uiso   1.00
C1672  C     0.11590   0.77696   0.96764   0.00000  Uiso   1.00
C1673  C     0.13950   0.77761   0.53613   0.00000  Uiso   1.00
C1674  C     0.24515   0.84999   0.51737   0.00000  Uiso   1.00
C1675  C     0.18466   0.81867   0.97066   0.00000  Uiso   1.00
C1676  C     0.17482   0.80857   0.51651   0.00000  Uiso   1.00
C1677  C     0.09327   0.69172   0.93079   0.00000  Uiso   1.00
C1678  C     0.28380   0.93884   0.51698   0.00000  Uiso   1.00
C1679  C     0.16825   0.73163   0.57417   0.00000  Uiso   1.00
C1680  C     0.25679   0.79000   0.88396   0.00000  Uiso   1.00
C1681  C     0.29339   0.98206   0.70989   0.00000  Uiso   1.00
C1682  C     0.04282   0.68204   0.78402   0.00000  Uiso   1.00
C1683  C     0.22543   0.70401   0.82009   0.00000  Uiso   1.00
C1684  C     0.23131   0.83378   0.94570   0.00000  Uiso   1.00
C1685  C     0.11945   0.96031   0.67017   0.00000  Uiso   1.00
C1686  C     0.32854   0.80741   0.64049   0.00000  Uiso   1.00
C1687  C     0.03752   0.90933   0.81895   0.00000  Uiso   1.00
C1688  C     0.05539   0.74536   0.68559   0.00000  Uiso   1.00
C1689  C     0.26507   0.91537   0.81784   0.00000  Uiso   1.00
C1690  C     0.11034   0.76154   0.51179   0.00000  Uiso   1.00
C1691  C     0.26190   0.84848   0.96907   0.00000  Uiso   1.00
C1692  C     0.21100   0.98042   0.74515   0.00000  Uiso   1.00
C1693  C     0.12526   0.68560   0.74986   0.00000  Uiso   1.00
C1694  C     0.20459   0.68867   0.75754   0.00000  Uiso   1.00
H1695  H     0.07205   0.99578   0.93916   0.00000  Uiso   1.00
H1696  H     0.27386   0.77257   0.90475   0.00000  Uiso   1.00
H1697  H     0.28123   0.78906   0.84793   0.00000  Uiso   1.00
H1698  H     0.22285   0.77426   0.88490   0.00000  Uiso   1.00
H1699  H     0.32266   0.95972   0.69598   0.00000  Uiso   1.00
H1700  H     0.30743   0.67317   0.72783   0.00000  Uiso   1.00
H1701  H     0.28546   0.99530   0.68039   0.00000  Uiso   1.00
H1702  H     0.01268   0.70345   0.79833   0.00000  Uiso   1.00
H1703  H     0.05040   0.66819   0.81340   0.00000  Uiso   1.00
H1704  H     0.03007   0.99146   0.76446   0.00000  Uiso   1.00
H1705  H     0.19250   0.72128   0.83894   0.00000  Uiso   1.00
H1706  H     0.12288   0.69005   0.94513   0.00000  Uiso   1.00
H1707  H     0.25501   0.71641   0.83116   0.00000  Uiso   1.00
H1708  H     0.22059   0.67076   0.82943   0.00000  Uiso   1.00
H1709  H     0.09202   0.94806   0.65596   0.00000  Uiso   1.00
H1710  H     0.15211   0.94148   0.65571   0.00000  Uiso   1.00
H1711  H     0.12728   0.99295   0.65901   0.00000  Uiso   1.00
H1712  H     0.02938   0.79236   0.62173   0.00000  Uiso   1.00
H1713  H     0.00235   0.84111   0.64207   0.00000  Uiso   1.00
H1714  H     0.30479   0.80215   0.61977   0.00000  Uiso   1.00
H1715  H     0.01168   0.92797   0.84605   0.00000  Uiso   1.00
H1716  H     0.04252   0.92327   0.78522   0.00000  Uiso   1.00
H1717  H     0.10820   0.69363   0.89277   0.00000  Uiso   1.00
H1718  H     0.07152   0.91201   0.82634   0.00000  Uiso   1.00
H1719  H     0.08760   0.72631   0.67812   0.00000  Uiso   1.00
H1720  H     0.02835   0.73526   0.71841   0.00000  Uiso   1.00
H1721  H     0.04128   0.73838   0.65738   0.00000  Uiso   1.00
H1722  H     0.26784   0.92780   0.85052   0.00000  Uiso   1.00
H1723  H     0.23085   0.92656   0.81608   0.00000  Uiso   1.00
H1724  H     0.29501   0.92856   0.78887   0.00000  Uiso   1.00
H1725  H     0.25937   0.95155   0.55003   0.00000  Uiso   1.00
H1726  H     0.26420   0.93442   0.99221   0.00000  Uiso   1.00
H1727  H     0.31267   0.96224   0.50262   0.00000  Uiso   1.00
H1728  H     0.16289   0.70501   0.55282   0.00000  Uiso   1.00
H1729  H     0.16418   0.71985   0.60862   0.00000  Uiso   1.00
H1730  H     0.20533   0.74442   0.55950   0.00000  Uiso   1.00
I1731  I     0.05462   0.71908   0.54853   0.00000  Uiso   1.00
I1732  I     0.00085   0.86322   0.92978   0.00000  Uiso   1.00
I1733  I     0.11125   0.85939   0.61087   0.00000  Uiso   1.00
I1734  I     0.16261   0.89773   0.91149   0.00000  Uiso   1.00
I1735  I     0.28501   0.90928   0.62863   0.00000  Uiso   1.00
I1736  I     0.04924   0.75753   0.86176   0.00000  Uiso   1.00
N1737  N     0.04759   0.83334   0.75001   0.00000  Uiso   1.00
N1738  N     0.28574   0.83332   0.74999   0.00000  Uiso   1.00
O1739  O     0.12846   0.89442   0.75001   0.00000  Uiso   1.00
O1740  O     0.30481   0.90175   0.52321   0.00000  Uiso   1.00
O1741  O     0.13376   0.76218   0.57900   0.00000  Uiso   1.00
O1742  O     0.24888   0.83175   0.89834   0.00000  Uiso   1.00
O1743  O     0.25357   0.96108   0.74078   0.00000  Uiso   1.00
O1744  O     0.08240   0.70458   0.75484   0.00000  Uiso   1.00
O1745  O     0.23805   0.70955   0.77246   0.00000  Uiso   1.00
O1746  O     0.10103   0.95736   0.71828   0.00000  Uiso   1.00
O1747  O     0.30650   0.78986   0.68410   0.00000  Uiso   1.00
O1748  O     0.02199   0.86754   0.82255   0.00000  Uiso   1.00
O1749  O     0.06964   0.78741   0.68594   0.00000  Uiso   1.00
O1750  O     0.20488   0.77225   0.75000   0.00000  Uiso   1.00
O1751  O     0.26256   0.87180   0.81946   0.00000  Uiso   1.00
O1752  O     0.20490   0.89441   0.75000   0.00000  Uiso   1.00
O1753  O     0.12843   0.77226   0.75000   0.00000  Uiso   1.00
O1754  O     0.10661   0.83334   0.81613   0.00000  Uiso   1.00
O1755  O     0.22672   0.83333   0.68388   0.00000  Uiso   1.00
O1756  O     0.18305   0.83333   0.81612   0.00000  Uiso   1.00
O1757  O     0.15028   0.83334   0.68388   0.00000  Uiso   1.00
O1758  O     0.06284   0.72508   0.95034   0.00000  Uiso   1.00
Zn1759 Zn    0.11562   0.83334   0.75000   0.00000  Uiso   1.00
Zn1760 Zn    0.21771   0.83333   0.75000   0.00000  Uiso   1.00
C1761  C     0.50211   0.91318   0.74588   0.00000  Uiso   1.00
C1762  C     0.46578   0.97769   0.73629   0.00000  Uiso   1.00
C1763  C     0.49727   0.70862   0.75516   0.00000  Uiso   1.00
C1764  C     0.50513   0.95755   0.74080   0.00000  Uiso   1.00
C1765  C     0.65335   0.81189   0.71680   0.00000  Uiso   1.00
C1766  C     0.34616   0.85402   0.78364   0.00000  Uiso   1.00
C1767  C     0.36809   0.81048   0.71786   0.00000  Uiso   1.00
C1768  C     0.63158   0.85457   0.78312   0.00000  Uiso   1.00
C1769  C     0.47057   0.83103   0.83767   0.00000  Uiso   1.00
C1770  C     0.52913   0.83730   0.66270   0.00000  Uiso   1.00
C1771  C     0.45498   0.81732   0.88565   0.00000  Uiso   1.00
C1772  C     0.49845   0.75327   0.75298   0.00000  Uiso   1.00
C1773  C     0.54526   0.84558   0.61327   0.00000  Uiso   1.00
C1774  C     0.42270   0.76148   0.94002   0.00000  Uiso   1.00
C1775  C     0.60211   0.87321   0.54330   0.00000  Uiso   1.00
C1776  C     0.42544   0.78181   0.89952   0.00000  Uiso   1.00
C1777  C     0.58684   0.86906   0.59112   0.00000  Uiso   1.00
C1778  C     0.48005   0.83287   0.91359   0.00000  Uiso   1.00
C1779  C     0.51513   0.83490   0.58831   0.00000  Uiso   1.00
C1780  C     0.48300   0.80946   0.95016   0.00000  Uiso   1.00
C1781  C     0.53471   0.82935   0.54098   0.00000  Uiso   1.00
C1782  C     0.44923   0.77696   0.96764   0.00000  Uiso   1.00
C1783  C     0.47283   0.77761   0.53613   0.00000  Uiso   1.00
C1784  C     0.57848   0.84999   0.51737   0.00000  Uiso   1.00
C1785  C     0.51800   0.81867   0.97066   0.00000  Uiso   1.00
C1786  C     0.50815   0.80857   0.51651   0.00000  Uiso   1.00
C1787  C     0.42660   0.69172   0.93079   0.00000  Uiso   1.00
C1788  C     0.61713   0.93884   0.51698   0.00000  Uiso   1.00
C1789  C     0.50159   0.73163   0.57417   0.00000  Uiso   1.00
C1790  C     0.59013   0.79000   0.88396   0.00000  Uiso   1.00
C1791  C     0.62672   0.98206   0.70989   0.00000  Uiso   1.00
C1792  C     0.37615   0.68204   0.78402   0.00000  Uiso   1.00
C1793  C     0.55876   0.70401   0.82009   0.00000  Uiso   1.00
C1794  C     0.56465   0.83378   0.94570   0.00000  Uiso   1.00
C1795  C     0.45278   0.96031   0.67017   0.00000  Uiso   1.00
C1796  C     0.66188   0.80741   0.64049   0.00000  Uiso   1.00
C1797  C     0.37085   0.90933   0.81895   0.00000  Uiso   1.00
C1798  C     0.38872   0.74536   0.68559   0.00000  Uiso   1.00
C1799  C     0.59840   0.91537   0.81784   0.00000  Uiso   1.00
C1800  C     0.44368   0.76154   0.51179   0.00000  Uiso   1.00
C1801  C     0.59523   0.84848   0.96907   0.00000  Uiso   1.00
C1802  C     0.54434   0.98042   0.74515   0.00000  Uiso   1.00
C1803  C     0.45859   0.68560   0.74986   0.00000  Uiso   1.00
C1804  C     0.53792   0.68867   0.75754   0.00000  Uiso   1.00
H1805  H     0.40539   0.99578   0.93916   0.00000  Uiso   1.00
H1806  H     0.60720   0.77257   0.90475   0.00000  Uiso   1.00
H1807  H     0.61457   0.78906   0.84793   0.00000  Uiso   1.00
H1808  H     0.55618   0.77426   0.88490   0.00000  Uiso   1.00
H1809  H     0.65599   0.95972   0.69598   0.00000  Uiso   1.00
H1810  H     0.64076   0.67317   0.72783   0.00000  Uiso   1.00
H1811  H     0.61879   0.99530   0.68039   0.00000  Uiso   1.00
H1812  H     0.34602   0.70345   0.79833   0.00000  Uiso   1.00
H1813  H     0.38373   0.66819   0.81340   0.00000  Uiso   1.00
H1814  H     0.36340   0.99146   0.76446   0.00000  Uiso   1.00
H1815  H     0.52584   0.72128   0.83894   0.00000  Uiso   1.00
H1816  H     0.45622   0.69005   0.94513   0.00000  Uiso   1.00
H1817  H     0.58835   0.71641   0.83116   0.00000  Uiso   1.00
H1818  H     0.55392   0.67076   0.82943   0.00000  Uiso   1.00
H1819  H     0.42536   0.94806   0.65596   0.00000  Uiso   1.00
H1820  H     0.48545   0.94148   0.65571   0.00000  Uiso   1.00
H1821  H     0.46061   0.99295   0.65901   0.00000  Uiso   1.00
H1822  H     0.36271   0.79236   0.62173   0.00000  Uiso   1.00
H1823  H     0.33569   0.84111   0.64207   0.00000  Uiso   1.00
H1824  H     0.63813   0.80215   0.61977   0.00000  Uiso   1.00
H1825  H     0.34501   0.92797   0.84605   0.00000  Uiso   1.00
H1826  H     0.37585   0.92327   0.78522   0.00000  Uiso   1.00
H1827  H     0.44153   0.69363   0.89277   0.00000  Uiso   1.00
H1828  H     0.40485   0.91201   0.82634   0.00000  Uiso   1.00
H1829  H     0.42093   0.72631   0.67812   0.00000  Uiso   1.00
H1830  H     0.36168   0.73526   0.71841   0.00000  Uiso   1.00
H1831  H     0.37462   0.73838   0.65738   0.00000  Uiso   1.00
H1832  H     0.60117   0.92780   0.85052   0.00000  Uiso   1.00
H1833  H     0.56419   0.92656   0.81608   0.00000  Uiso   1.00
H1834  H     0.62835   0.92856   0.78887   0.00000  Uiso   1.00
H1835  H     0.59271   0.95155   0.55003   0.00000  Uiso   1.00
H1836  H     0.59753   0.93442   0.99221   0.00000  Uiso   1.00
H1837  H     0.64601   0.96224   0.50262   0.00000  Uiso   1.00
H1838  H     0.49622   0.70501   0.55282   0.00000  Uiso   1.00
H1839  H     0.49752   0.71985   0.60862   0.00000  Uiso   1.00
H1840  H     0.53866   0.74442   0.55950   0.00000  Uiso   1.00
I1841  I     0.38795   0.71908   0.54853   0.00000  Uiso   1.00
I1842  I     0.33418   0.86322   0.92978   0.00000  Uiso   1.00
I1843  I     0.44458   0.85939   0.61087   0.00000  Uiso   1.00
I1844  I     0.49594   0.89773   0.91149   0.00000  Uiso   1.00
I1845  I     0.61834   0.90928   0.62863   0.00000  Uiso   1.00
I1846  I     0.38257   0.75753   0.86176   0.00000  Uiso   1.00
N1847  N     0.38093   0.83334   0.75001   0.00000  Uiso   1.00
N1848  N     0.61907   0.83332   0.74999   0.00000  Uiso   1.00
O1849  O     0.46179   0.89442   0.75001   0.00000  Uiso   1.00
O1850  O     0.63814   0.90175   0.52321   0.00000  Uiso   1.00
O1851  O     0.46709   0.76218   0.57900   0.00000  Uiso   1.00
O1852  O     0.58221   0.83175   0.89834   0.00000  Uiso   1.00
O1853  O     0.58690   0.96108   0.74078   0.00000  Uiso   1.00
O1854  O     0.41574   0.70458   0.75484   0.00000  Uiso   1.00
O1855  O     0.57138   0.70955   0.77246   0.00000  Uiso   1.00
O1856  O     0.43437   0.95736   0.71828   0.00000  Uiso   1.00
O1857  O     0.63983   0.78986   0.68410   0.00000  Uiso   1.00
O1858  O     0.35532   0.86754   0.82255   0.00000  Uiso   1.00
O1859  O     0.40297   0.78741   0.68594   0.00000  Uiso   1.00
O1860  O     0.53821   0.77225   0.75000   0.00000  Uiso   1.00
O1861  O     0.59589   0.87180   0.81946   0.00000  Uiso   1.00
O1862  O     0.53823   0.89441   0.75000   0.00000  Uiso   1.00
O1863  O     0.46177   0.77226   0.75000   0.00000  Uiso   1.00
O1864  O     0.43994   0.83334   0.81613   0.00000  Uiso   1.00
O1865  O     0.56006   0.83333   0.68388   0.00000  Uiso   1.00
O1866  O     0.51639   0.83333   0.81612   0.00000  Uiso   1.00
O1867  O     0.48361   0.83334   0.68388   0.00000  Uiso   1.00
O1868  O     0.39617   0.72508   0.95034   0.00000  Uiso   1.00
Zn1869 Zn    0.44896   0.83334   0.75000   0.00000  Uiso   1.00
Zn1870 Zn    0.55104   0.83333   0.75000   0.00000  Uiso   1.00
C1871  C     0.83544   0.91318   0.74588   0.00000  Uiso   1.00
C1872  C     0.79911   0.97769   0.73629   0.00000  Uiso   1.00
C1873  C     0.83060   0.70862   0.75516   0.00000  Uiso   1.00
C1874  C     0.83846   0.95755   0.74080   0.00000  Uiso   1.00
C1875  C     0.98668   0.81189   0.71680   0.00000  Uiso   1.00
C1876  C     0.67949   0.85402   0.78364   0.00000  Uiso   1.00
C1877  C     0.70142   0.81048   0.71786   0.00000  Uiso   1.00
C1878  C     0.96492   0.85457   0.78312   0.00000  Uiso   1.00
C1879  C     0.80390   0.83103   0.83767   0.00000  Uiso   1.00
C1880  C     0.86246   0.83730   0.66270   0.00000  Uiso   1.00
C1881  C     0.78831   0.81732   0.88565   0.00000  Uiso   1.00
C1882  C     0.83178   0.75327   0.75298   0.00000  Uiso   1.00
C1883  C     0.87859   0.84558   0.61327   0.00000  Uiso   1.00
C1884  C     0.75604   0.76148   0.94002   0.00000  Uiso   1.00
C1885  C     0.93544   0.87321   0.54330   0.00000  Uiso   1.00
C1886  C     0.75878   0.78181   0.89952   0.00000  Uiso   1.00
C1887  C     0.92018   0.86906   0.59112   0.00000  Uiso   1.00
C1888  C     0.81338   0.83287   0.91359   0.00000  Uiso   1.00
C1889  C     0.84846   0.83490   0.58831   0.00000  Uiso   1.00
C1890  C     0.81634   0.80946   0.95016   0.00000  Uiso   1.00
C1891  C     0.86805   0.82935   0.54098   0.00000  Uiso   1.00
C1892  C     0.78257   0.77696   0.96764   0.00000  Uiso   1.00
C1893  C     0.80616   0.77761   0.53613   0.00000  Uiso   1.00
C1894  C     0.91182   0.84999   0.51737   0.00000  Uiso   1.00
C1895  C     0.85133   0.81867   0.97066   0.00000  Uiso   1.00
C1896  C     0.84149   0.80857   0.51651   0.00000  Uiso   1.00
C1897  C     0.75994   0.69172   0.93079   0.00000  Uiso   1.00
C1898  C     0.95046   0.93884   0.51698   0.00000  Uiso   1.00
C1899  C     0.83492   0.73163   0.57417   0.00000  Uiso   1.00
C1900  C     0.92346   0.79000   0.88396   0.00000  Uiso   1.00
C1901  C     0.96006   0.98206   0.70989   0.00000  Uiso   1.00
C1902  C     0.70948   0.68204   0.78402   0.00000  Uiso   1.00
C1903  C     0.89210   0.70401   0.82009   0.00000  Uiso   1.00
C1904  C     0.89798   0.83378   0.94570   0.00000  Uiso   1.00
C1905  C     0.78612   0.96031   0.67017   0.00000  Uiso   1.00
C1906  C     0.99521   0.80741   0.64049   0.00000  Uiso   1.00
C1907  C     0.70419   0.90933   0.81895   0.00000  Uiso   1.00
C1908  C     0.72205   0.74536   0.68559   0.00000  Uiso   1.00
C1909  C     0.93174   0.91537   0.81784   0.00000  Uiso   1.00
C1910  C     0.77701   0.76154   0.51179   0.00000  Uiso   1.00
C1911  C     0.92856   0.84848   0.96907   0.00000  Uiso   1.00
C1912  C     0.87767   0.98042   0.74515   0.00000  Uiso   1.00
C1913  C     0.79192   0.68560   0.74986   0.00000  Uiso   1.00
C1914  C     0.87125   0.68867   0.75754   0.00000  Uiso   1.00
H1915  H     0.73872   0.99578   0.93916   0.00000  Uiso   1.00
H1916  H     0.94053   0.77257   0.90475   0.00000  Uiso   1.00
H1917  H     0.94790   0.78906   0.84793   0.00000  Uiso   1.00
H1918  H     0.88952   0.77426   0.88490   0.00000  Uiso   1.00
H1919  H     0.98933   0.95972   0.69598   0.00000  Uiso   1.00
H1920  H     0.97410   0.67317   0.72783   0.00000  Uiso   1.00
H1921  H     0.95213   0.99530   0.68039   0.00000  Uiso   1.00
H1922  H     0.67935   0.70345   0.79833   0.00000  Uiso   1.00
H1923  H     0.71706   0.66819   0.81340   0.00000  Uiso   1.00
H1924  H     0.69673   0.99146   0.76446   0.00000  Uiso   1.00
H1925  H     0.85917   0.72128   0.83894   0.00000  Uiso   1.00
H1926  H     0.78955   0.69005   0.94513   0.00000  Uiso   1.00
H1927  H     0.92168   0.71641   0.83116   0.00000  Uiso   1.00
H1928  H     0.88726   0.67076   0.82943   0.00000  Uiso   1.00
H1929  H     0.75869   0.94806   0.65596   0.00000  Uiso   1.00
H1930  H     0.81878   0.94148   0.65571   0.00000  Uiso   1.00
H1931  H     0.79394   0.99295   0.65901   0.00000  Uiso   1.00
H1932  H     0.69605   0.79236   0.62173   0.00000  Uiso   1.00
H1933  H     0.66902   0.84111   0.64207   0.00000  Uiso   1.00
H1934  H     0.97146   0.80215   0.61977   0.00000  Uiso   1.00
H1935  H     0.67834   0.92797   0.84605   0.00000  Uiso   1.00
H1936  H     0.70919   0.92327   0.78522   0.00000  Uiso   1.00
H1937  H     0.77487   0.69363   0.89277   0.00000  Uiso   1.00
H1938  H     0.73818   0.91201   0.82634   0.00000  Uiso   1.00
H1939  H     0.75426   0.72631   0.67812   0.00000  Uiso   1.00
H1940  H     0.69501   0.73526   0.71841   0.00000  Uiso   1.00
H1941  H     0.70795   0.73838   0.65738   0.00000  Uiso   1.00
H1942  H     0.93450   0.92780   0.85052   0.00000  Uiso   1.00
H1943  H     0.89752   0.92656   0.81608   0.00000  Uiso   1.00
H1944  H     0.96168   0.92856   0.78887   0.00000  Uiso   1.00
H1945  H     0.92604   0.95155   0.55003   0.00000  Uiso   1.00
H1946  H     0.93086   0.93442   0.99221   0.00000  Uiso   1.00
H1947  H     0.97934   0.96224   0.50262   0.00000  Uiso   1.00
H1948  H     0.82955   0.70501   0.55282   0.00000  Uiso   1.00
H1949  H     0.83085   0.71985   0.60862   0.00000  Uiso   1.00
H1950  H     0.87200   0.74442   0.55950   0.00000  Uiso   1.00
I1951  I     0.72128   0.71908   0.54853   0.00000  Uiso   1.00
I1952  I     0.66751   0.86322   0.92978   0.00000  Uiso   1.00
I1953  I     0.77792   0.85939   0.61087   0.00000  Uiso   1.00
I1954  I     0.82928   0.89773   0.91149   0.00000  Uiso   1.00
I1955  I     0.95167   0.90928   0.62863   0.00000  Uiso   1.00
I1956  I     0.71591   0.75753   0.86176   0.00000  Uiso   1.00
N1957  N     0.71426   0.83334   0.75001   0.00000  Uiso   1.00
N1958  N     0.95241   0.83332   0.74999   0.00000  Uiso   1.00
O1959  O     0.79512   0.89442   0.75001   0.00000  Uiso   1.00
O1960  O     0.97147   0.90175   0.52321   0.00000  Uiso   1.00
O1961  O     0.80042   0.76218   0.57900   0.00000  Uiso   1.00
O1962  O     0.91555   0.83175   0.89834   0.00000  Uiso   1.00
O1963  O     0.92023   0.96108   0.74078   0.00000  Uiso   1.00
O1964  O     0.74907   0.70458   0.75484   0.00000  Uiso   1.00
O1965  O     0.90472   0.70955   0.77246   0.00000  Uiso   1.00
O1966  O     0.76770   0.95736   0.71828   0.00000  Uiso   1.00
O1967  O     0.97317   0.78986   0.68410   0.00000  Uiso   1.00
O1968  O     0.68866   0.86754   0.82255   0.00000  Uiso   1.00
O1969  O     0.73631   0.78741   0.68594   0.00000  Uiso   1.00
O1970  O     0.87154   0.77225   0.75000   0.00000  Uiso   1.00
O1971  O     0.92923   0.87180   0.81946   0.00000  Uiso   1.00
O1972  O     0.87157   0.89441   0.75000   0.00000  Uiso   1.00
O1973  O     0.79510   0.77226   0.75000   0.00000  Uiso   1.00
O1974  O     0.77328   0.83334   0.81613   0.00000  Uiso   1.00
O1975  O     0.89339   0.83333   0.68388   0.00000  Uiso   1.00
O1976  O     0.84972   0.83333   0.81612   0.00000  Uiso   1.00
O1977  O     0.81695   0.83334   0.68388   0.00000  Uiso   1.00
O1978  O     0.72951   0.72508   0.95034   0.00000  Uiso   1.00
Zn1979 Zn    0.78229   0.83334   0.75000   0.00000  Uiso   1.00
Zn1980 Zn    0.88438   0.83333   0.75000   0.00000  Uiso   1.00
loop_
_geom_bond_atom_site_label_1
_geom_bond_atom_site_label_2
_geom_bond_distance
_geom_bond_site_symmetry_2
_ccdc_geom_bond_type
C1     O89     1.296   .     A
C1     C4      1.445   .     S
C1     O102    1.291   .     A
C2     C4      1.401   .     A
C2     O96     1.382   .     S
C2     C373    1.389   .     S
C3     C43     1.405   .     A
C3     C12     1.446   .     S
C3     C44     1.408   .     A
C4     C42     1.405   .     A
C5     N88     1.369   .     A
C5     O97     1.384   .     S
C5     C117    1.440   .     S
C6     O98     1.380   .     S
C6     N87     1.371   .     A
C6     C228    1.428   1_455 S
C7     O99     1.387   .     S
C7     N87     1.374   .     A
C7     C225    1.440   1_455 S
C8     O101    1.378   .     S
C8     N88     1.367   .     A
C8     C116    1.428   .     S
C9     O106    1.300   .     A
C9     C11     1.476   .     S
C9     O104    1.300   .     A
C10    O107    1.293   .     A
C10    C13     1.471   .     S
C10    O105    1.305   .     A
C11    C18     1.395   .     A
C11    C16     1.410   .     A
C12    O103    1.295   .     A
C12    O100    1.292   .     A
C13    C19     1.397   .     A
C13    C17     1.406   .     A
C14    C16     1.408   .     A
C14    O108    1.381   .     S
C14    C22     1.419   .     A
C15    C24     1.421   .     A
C15    C17     1.404   .     A
C15    O90     1.382   .     S
C16    I86     2.122   .     S
C17    I85     2.123   .     S
C18    I84     2.135   .     S
C18    C20     1.406   .     A
C19    C21     1.392   .     A
C19    I83     2.140   .     S
C20    C25     1.410   .     A
C20    C22     1.418   .     A
C21    C26     1.412   .     A
C21    C24     1.417   .     A
C22    C1030   1.422   .     S
C23    C40     1.408   .     A
C23    C26     1.420   .     A
C23    O91     1.385   .     S
C24    C1031   1.409   1_554 S
C25    C34     1.420   .     A
C25    C1016   1.395   .     S
C26    C1015   1.395   1_554 S
C27    H56     1.113   .     S
C27    O108    1.414   .     S
C27    H67     1.113   .     S
C27    H705    1.109   1_545 S
C28    H77     1.109   .     S
C28    O90     1.414   .     S
C28    H75     1.113   .     S
C28    H1066   1.112   1_554 S
C29    H78     1.113   .     S
C29    H79     1.108   .     S
C29    O91     1.411   .     S
C29    H80     1.113   .     S
C30    H48     1.108   .     S
C30    H47     1.108   .     S
C30    O92     1.412   .     S
C30    H46     1.114   .     S
C31    H49     1.109   .     S
C31    O93     1.415   .     S
C31    H51     1.115   .     S
C31    H380    1.106   .     S
C32    O94     1.415   .     S
C32    H52     1.108   .     S
C32    H53     1.114   .     S
C32    H714    1.106   1_545 S
C33    H55     1.113   .     S
C33    H58     1.114   .     S
C33    O95     1.410   .     S
C33    H57     1.107   .     S
C34    C41     1.406   .     A
C34    O92     1.382   .     S
C35    O96     1.409   .     S
C35    H59     1.108   .     S
C35    H60     1.113   .     S
C35    H61     1.113   .     S
C36    O97     1.414   .     S
C36    H64     1.109   .     S
C36    H172    1.105   .     S
C36    H173    1.108   .     S
C37    H68     1.108   .     S
C37    H65     1.106   .     S
C37    O98     1.411   .     S
C37    H66     1.110   .     S
C38    H70     1.113   .     S
C38    H69     1.106   .     S
C38    H71     1.105   .     S
C38    O99     1.414   .     S
C39    H74     1.114   .     S
C39    H72     1.108   .     S
C39    O101    1.410   .     S
C39    H73     1.106   .     S
C40    I81     2.147   .     S
C40    C1012   1.422   1_554 S
C41    C1014   1.409   .     S
C41    I192    2.129   .     S
C42    O93     1.389   .     S
C42    C374    1.390   .     S
C43    O94     1.387   .     S
C43    C662    1.389   1_545 S
C44    O95     1.383   .     S
C44    C702    1.390   1_545 S
H45    C357    1.109   .     S
H50    C691    1.106   1_545 S
H54    C362    1.106   .     S
H62    C256    1.105   1_455 S
H63    C256    1.108   1_455 S
H76    C1018   1.112   .     S
I82    C261    2.129   1_455 S
N87    Zn109   2.020   .     S
N88    Zn110   2.020   .     S
O89    Zn109   2.002   .     S
O100   Zn110   2.002   .     S
O102   Zn110   2.022   .     S
O103   Zn109   2.022   .     S
O104   Zn109   1.974   .     S
O105   Zn110   1.974   .     S
O106   Zn110   1.959   .     S
O107   Zn109   1.959   .     S
C111   O199    1.296   .     A
C111   C114    1.445   .     S
C111   O212    1.291   .     A
C112   C114    1.401   .     A
C112   O206    1.382   .     S
C112   C483    1.389   .     S
C113   C153    1.405   .     A
C113   C122    1.446   .     S
C113   C154    1.408   .     A
C114   C152    1.405   .     A
C115   N198    1.369   .     A
C115   O207    1.384   .     S
C115   C227    1.440   .     S
C116   O208    1.380   .     S
C116   N197    1.371   .     A
C117   O209    1.387   .     S
C117   N197    1.374   .     A
C118   O211    1.378   .     S
C118   N198    1.367   .     A
C118   C226    1.428   .     S
C119   O216    1.300   .     A
C119   C121    1.476   .     S
C119   O214    1.300   .     A
C120   O217    1.293   .     A
C120   C123    1.471   .     S
C120   O215    1.305   .     A
C121   C128    1.395   .     A
C121   C126    1.410   .     A
C122   O213    1.295   .     A
C122   O210    1.292   .     A
C123   C129    1.397   .     A
C123   C127    1.406   .     A
C124   C126    1.408   .     A
C124   O218    1.381   .     S
C124   C132    1.419   .     A
C125   C134    1.421   .     A
C125   C127    1.404   .     A
C125   O200    1.382   .     S
C126   I196    2.122   .     S
C127   I195    2.123   .     S
C128   I194    2.135   .     S
C128   C130    1.406   .     A
C129   C131    1.392   .     A
C129   I193    2.140   .     S
C130   C135    1.410   .     A
C130   C132    1.418   .     A
C131   C136    1.412   .     A
C131   C134    1.417   .     A
C132   C1140   1.422   .     S
C133   C150    1.408   .     A
C133   C136    1.420   .     A
C133   O201    1.385   .     S
C134   C1141   1.409   1_554 S
C135   C144    1.420   .     A
C135   C1126   1.395   .     S
C136   C1125   1.395   1_554 S
C137   H166    1.113   .     S
C137   O218    1.414   .     S
C137   H177    1.113   .     S
C137   H815    1.109   1_545 S
C138   H187    1.109   .     S
C138   O200    1.414   .     S
C138   H185    1.113   .     S
C138   H1176   1.112   1_554 S
C139   H188    1.113   .     S
C139   H189    1.108   .     S
C139   O201    1.411   .     S
C139   H190    1.113   .     S
C140   H158    1.108   .     S
C140   H157    1.108   .     S
C140   O202    1.412   .     S
C140   H156    1.114   .     S
C141   H159    1.109   .     S
C141   O203    1.415   .     S
C141   H161    1.115   .     S
C141   H490    1.106   .     S
C142   O204    1.415   .     S
C142   H162    1.108   .     S
C142   H163    1.114   .     S
C142   H824    1.106   1_545 S
C143   H165    1.113   .     S
C143   H168    1.114   .     S
C143   O205    1.410   .     S
C143   H167    1.107   .     S
C144   C151    1.406   .     A
C144   O202    1.382   .     S
C145   O206    1.409   .     S
C145   H169    1.108   .     S
C145   H170    1.113   .     S
C145   H171    1.113   .     S
C146   O207    1.414   .     S
C146   H174    1.109   .     S
C146   H282    1.105   .     S
C146   H283    1.108   .     S
C147   H178    1.108   .     S
C147   H175    1.106   .     S
C147   O208    1.411   .     S
C147   H176    1.110   .     S
C148   H180    1.113   .     S
C148   H179    1.106   .     S
C148   H181    1.105   .     S
C148   O209    1.414   .     S
C149   H184    1.114   .     S
C149   H182    1.108   .     S
C149   O211    1.410   .     S
C149   H183    1.106   .     S
C150   I191    2.147   .     S
C150   C1122   1.422   1_554 S
C151   C1124   1.409   .     S
C151   I302    2.129   .     S
C152   O203    1.389   .     S
C152   C484    1.390   .     S
C153   O204    1.387   .     S
C153   C772    1.389   1_545 S
C154   O205    1.383   .     S
C154   C812    1.390   1_545 S
H155   C467    1.109   .     S
H160   C801    1.106   1_545 S
H164   C472    1.106   .     S
H186   C1128   1.112   .     S
N197   Zn219   2.020   .     S
N198   Zn220   2.020   .     S
O199   Zn219   2.002   .     S
O210   Zn220   2.002   .     S
O212   Zn220   2.022   .     S
O213   Zn219   2.022   .     S
O214   Zn219   1.974   .     S
O215   Zn220   1.974   .     S
O216   Zn220   1.959   .     S
O217   Zn219   1.959   .     S
C221   O309    1.296   .     A
C221   C224    1.445   .     S
C221   O322    1.291   .     A
C222   C224    1.401   .     A
C222   O316    1.382   .     S
C222   C593    1.389   .     S
C223   C263    1.405   .     A
C223   C232    1.446   .     S
C223   C264    1.408   .     A
C224   C262    1.405   .     A
C225   N308    1.369   .     A
C225   O317    1.384   .     S
C225   C7      1.440   1_655 S
C226   O318    1.380   .     S
C226   N307    1.371   .     A
C227   O319    1.387   .     S
C227   N307    1.374   .     A
C228   O321    1.378   .     S
C228   N308    1.367   .     A
C228   C6      1.428   1_655 S
C229   O326    1.300   .     A
C229   C231    1.476   .     S
C229   O324    1.300   .     A
C230   O327    1.293   .     A
C230   C233    1.471   .     S
C230   O325    1.305   .     A
C231   C238    1.395   .     A
C231   C236    1.410   .     A
C232   O323    1.295   .     A
C232   O320    1.292   .     A
C233   C239    1.397   .     A
C233   C237    1.406   .     A
C234   C236    1.408   .     A
C234   O328    1.381   .     S
C234   C242    1.419   .     A
C235   C244    1.421   .     A
C235   C237    1.404   .     A
C235   O310    1.382   .     S
C236   I306    2.122   .     S
C237   I305    2.123   .     S
C238   I304    2.135   .     S
C238   C240    1.406   .     A
C239   C241    1.392   .     A
C239   I303    2.140   .     S
C240   C245    1.410   .     A
C240   C242    1.418   .     A
C241   C246    1.412   .     A
C241   C244    1.417   .     A
C242   C1250   1.422   .     S
C243   C260    1.408   .     A
C243   C246    1.420   .     A
C243   O311    1.385   .     S
C244   C1251   1.409   1_554 S
C245   C254    1.420   .     A
C245   C1236   1.395   .     S
C246   C1235   1.395   1_554 S
C247   H276    1.113   .     S
C247   O328    1.414   .     S
C247   H287    1.113   .     S
C247   H925    1.109   1_545 S
C248   H297    1.109   .     S
C248   O310    1.414   .     S
C248   H295    1.113   .     S
C248   H1286   1.112   1_554 S
C249   H298    1.113   .     S
C249   H299    1.108   .     S
C249   O311    1.411   .     S
C249   H300    1.113   .     S
C250   H268    1.108   .     S
C250   H267    1.108   .     S
C250   O312    1.412   .     S
C250   H266    1.114   .     S
C251   H269    1.109   .     S
C251   O313    1.415   .     S
C251   H271    1.115   .     S
C251   H600    1.106   .     S
C252   O314    1.415   .     S
C252   H272    1.108   .     S
C252   H273    1.114   .     S
C252   H934    1.106   1_545 S
C253   H275    1.113   .     S
C253   H278    1.114   .     S
C253   O315    1.410   .     S
C253   H277    1.107   .     S
C254   C261    1.406   .     A
C254   O312    1.382   .     S
C255   O316    1.409   .     S
C255   H279    1.108   .     S
C255   H280    1.113   .     S
C255   H281    1.113   .     S
C256   O317    1.414   .     S
C256   H284    1.109   .     S
C256   H62     1.105   1_655 S
C256   H63     1.108   1_655 S
C257   H288    1.108   .     S
C257   H285    1.106   .     S
C257   O318    1.411   .     S
C257   H286    1.110   .     S
C258   H290    1.113   .     S
C258   H289    1.106   .     S
C258   H291    1.105   .     S
C258   O319    1.414   .     S
C259   H294    1.114   .     S
C259   H292    1.108   .     S
C259   O321    1.410   .     S
C259   H293    1.106   .     S
C260   I301    2.147   .     S
C260   C1232   1.422   1_554 S
C261   C1234   1.409   .     S
C261   I82     2.129   1_655 S
C262   O313    1.389   .     S
C262   C594    1.390   .     S
C263   O314    1.387   .     S
C263   C882    1.389   1_545 S
C264   O315    1.383   .     S
C264   C922    1.390   1_545 S
H265   C577    1.109   .     S
H270   C911    1.106   1_545 S
H274   C582    1.106   .     S
H296   C1238   1.112   .     S
N307   Zn329   2.020   .     S
N308   Zn330   2.020   .     S
O309   Zn329   2.002   .     S
O320   Zn330   2.002   .     S
O322   Zn330   2.022   .     S
O323   Zn329   2.022   .     S
O324   Zn329   1.974   .     S
O325   Zn330   1.974   .     S
O326   Zn330   1.959   .     S
O327   Zn329   1.959   .     S
C331   O419    1.296   .     A
C331   C334    1.445   .     S
C331   O432    1.291   .     A
C332   C334    1.401   .     A
C332   O426    1.382   .     S
C332   C703    1.389   .     S
C333   C373    1.405   .     A
C333   C342    1.446   .     S
C333   C374    1.408   .     A
C334   C372    1.405   .     A
C335   N418    1.369   .     A
C335   O427    1.384   .     S
C335   C447    1.440   .     S
C336   O428    1.380   .     S
C336   N417    1.371   .     A
C336   C558    1.428   1_455 S
C337   O429    1.387   .     S
C337   N417    1.374   .     A
C337   C555    1.440   1_455 S
C338   O431    1.378   .     S
C338   N418    1.367   .     A
C338   C446    1.428   .     S
C339   O436    1.300   .     A
C339   C341    1.476   .     S
C339   O434    1.300   .     A
C340   O437    1.293   .     A
C340   C343    1.471   .     S
C340   O435    1.305   .     A
C341   C348    1.395   .     A
C341   C346    1.410   .     A
C342   O433    1.295   .     A
C342   O430    1.292   .     A
C343   C349    1.397   .     A
C343   C347    1.406   .     A
C344   C346    1.408   .     A
C344   O438    1.381   .     S
C344   C352    1.419   .     A
C345   C354    1.421   .     A
C345   C347    1.404   .     A
C345   O420    1.382   .     S
C346   I416    2.122   .     S
C347   I415    2.123   .     S
C348   I414    2.135   .     S
C348   C350    1.406   .     A
C349   C351    1.392   .     A
C349   I413    2.140   .     S
C350   C355    1.410   .     A
C350   C352    1.418   .     A
C351   C356    1.412   .     A
C351   C354    1.417   .     A
C352   C1360   1.422   .     S
C353   C370    1.408   .     A
C353   C356    1.420   .     A
C353   O421    1.385   .     S
C354   C1361   1.409   1_554 S
C355   C364    1.420   .     A
C355   C1346   1.395   .     S
C356   C1345   1.395   1_554 S
C357   H386    1.113   .     S
C357   O438    1.414   .     S
C357   H397    1.113   .     S
C358   H407    1.109   .     S
C358   O420    1.414   .     S
C358   H405    1.113   .     S
C358   H1396   1.112   1_554 S
C359   H408    1.113   .     S
C359   H409    1.108   .     S
C359   O421    1.411   .     S
C359   H410    1.113   .     S
C360   H378    1.108   .     S
C360   H377    1.108   .     S
C360   O422    1.412   .     S
C360   H376    1.114   .     S
C361   H379    1.109   .     S
C361   O423    1.415   .     S
C361   H381    1.115   .     S
C361   H710    1.106   .     S
C362   O424    1.415   .     S
C362   H382    1.108   .     S
C362   H383    1.114   .     S
C363   H385    1.113   .     S
C363   H388    1.114   .     S
C363   O425    1.410   .     S
C363   H387    1.107   .     S
C364   C371    1.406   .     A
C364   O422    1.382   .     S
C365   O426    1.409   .     S
C365   H389    1.108   .     S
C365   H390    1.113   .     S
C365   H391    1.113   .     S
C366   O427    1.414   .     S
C366   H394    1.109   .     S
C366   H502    1.105   .     S
C366   H503    1.108   .     S
C367   H398    1.108   .     S
C367   H395    1.106   .     S
C367   O428    1.411   .     S
C367   H396    1.110   .     S
C368   H400    1.113   .     S
C368   H399    1.106   .     S
C368   H401    1.105   .     S
C368   O429    1.414   .     S
C369   H404    1.114   .     S
C369   H402    1.108   .     S
C369   O431    1.410   .     S
C369   H403    1.106   .     S
C370   I411    2.147   .     S
C370   C1342   1.422   1_554 S
C371   C1344   1.409   .     S
C371   I522    2.129   .     S
C372   O423    1.389   .     S
C372   C704    1.390   .     S
C373   O424    1.387   .     S
C374   O425    1.383   .     S
H375   C687    1.109   .     S
H384   C692    1.106   .     S
H392   C586    1.105   1_455 S
H393   C586    1.108   1_455 S
H406   C1348   1.112   .     S
I412   C591    2.129   1_455 S
N417   Zn439   2.020   .     S
N418   Zn440   2.020   .     S
O419   Zn439   2.002   .     S
O430   Zn440   2.002   .     S
O432   Zn440   2.022   .     S
O433   Zn439   2.022   .     S
O434   Zn439   1.974   .     S
O435   Zn440   1.974   .     S
O436   Zn440   1.959   .     S
O437   Zn439   1.959   .     S
C441   O529    1.296   .     A
C441   C444    1.445   .     S
C441   O542    1.291   .     A
C442   C444    1.401   .     A
C442   O536    1.382   .     S
C442   C813    1.389   .     S
C443   C483    1.405   .     A
C443   C452    1.446   .     S
C443   C484    1.408   .     A
C444   C482    1.405   .     A
C445   N528    1.369   .     A
C445   O537    1.384   .     S
C445   C557    1.440   .     S
C446   O538    1.380   .     S
C446   N527    1.371   .     A
C447   O539    1.387   .     S
C447   N527    1.374   .     A
C448   O541    1.378   .     S
C448   N528    1.367   .     A
C448   C556    1.428   .     S
C449   O546    1.300   .     A
C449   C451    1.476   .     S
C449   O544    1.300   .     A
C450   O547    1.293   .     A
C450   C453    1.471   .     S
C450   O545    1.305   .     A
C451   C458    1.395   .     A
C451   C456    1.410   .     A
C452   O543    1.295   .     A
C452   O540    1.292   .     A
C453   C459    1.397   .     A
C453   C457    1.406   .     A
C454   C456    1.408   .     A
C454   O548    1.381   .     S
C454   C462    1.419   .     A
C455   C464    1.421   .     A
C455   C457    1.404   .     A
C455   O530    1.382   .     S
C456   I526    2.122   .     S
C457   I525    2.123   .     S
C458   I524    2.135   .     S
C458   C460    1.406   .     A
C459   C461    1.392   .     A
C459   I523    2.140   .     S
C460   C465    1.410   .     A
C460   C462    1.418   .     A
C461   C466    1.412   .     A
C461   C464    1.417   .     A
C462   C1470   1.422   .     S
C463   C480    1.408   .     A
C463   C466    1.420   .     A
C463   O531    1.385   .     S
C464   C1471   1.409   1_554 S
C465   C474    1.420   .     A
C465   C1456   1.395   .     S
C466   C1455   1.395   1_554 S
C467   H496    1.113   .     S
C467   O548    1.414   .     S
C467   H507    1.113   .     S
C468   H517    1.109   .     S
C468   O530    1.414   .     S
C468   H515    1.113   .     S
C468   H1506   1.112   1_554 S
C469   H518    1.113   .     S
C469   H519    1.108   .     S
C469   O531    1.411   .     S
C469   H520    1.113   .     S
C470   H488    1.108   .     S
C470   H487    1.108   .     S
C470   O532    1.412   .     S
C470   H486    1.114   .     S
C471   H489    1.109   .     S
C471   O533    1.415   .     S
C471   H491    1.115   .     S
C471   H820    1.106   .     S
C472   O534    1.415   .     S
C472   H492    1.108   .     S
C472   H493    1.114   .     S
C473   H495    1.113   .     S
C473   H498    1.114   .     S
C473   O535    1.410   .     S
C473   H497    1.107   .     S
C474   C481    1.406   .     A
C474   O532    1.382   .     S
C475   O536    1.409   .     S
C475   H499    1.108   .     S
C475   H500    1.113   .     S
C475   H501    1.113   .     S
C476   O537    1.414   .     S
C476   H504    1.109   .     S
C476   H612    1.105   .     S
C476   H613    1.108   .     S
C477   H508    1.108   .     S
C477   H505    1.106   .     S
C477   O538    1.411   .     S
C477   H506    1.110   .     S
C478   H510    1.113   .     S
C478   H509    1.106   .     S
C478   H511    1.105   .     S
C478   O539    1.414   .     S
C479   H514    1.114   .     S
C479   H512    1.108   .     S
C479   O541    1.410   .     S
C479   H513    1.106   .     S
C480   I521    2.147   .     S
C480   C1452   1.422   1_554 S
C481   C1454   1.409   .     S
C481   I632    2.129   .     S
C482   O533    1.389   .     S
C482   C814    1.390   .     S
C483   O534    1.387   .     S
C484   O535    1.383   .     S
H485   C797    1.109   .     S
H494   C802    1.106   .     S
H516   C1458   1.112   .     S
N527   Zn549   2.020   .     S
N528   Zn550   2.020   .     S
O529   Zn549   2.002   .     S
O540   Zn550   2.002   .     S
O542   Zn550   2.022   .     S
O543   Zn549   2.022   .     S
O544   Zn549   1.974   .     S
O545   Zn550   1.974   .     S
O546   Zn550   1.959   .     S
O547   Zn549   1.959   .     S
C551   O639    1.296   .     A
C551   C554    1.445   .     S
C551   O652    1.291   .     A
C552   C554    1.401   .     A
C552   O646    1.382   .     S
C552   C923    1.389   .     S
C553   C593    1.405   .     A
C553   C562    1.446   .     S
C553   C594    1.408   .     A
C554   C592    1.405   .     A
C555   N638    1.369   .     A
C555   O647    1.384   .     S
C555   C337    1.440   1_655 S
C556   O648    1.380   .     S
C556   N637    1.371   .     A
C557   O649    1.387   .     S
C557   N637    1.374   .     A
C558   O651    1.378   .     S
C558   N638    1.367   .     A
C558   C336    1.428   1_655 S
C559   O656    1.300   .     A
C559   C561    1.476   .     S
C559   O654    1.300   .     A
C560   O657    1.293   .     A
C560   C563    1.471   .     S
C560   O655    1.305   .     A
C561   C568    1.395   .     A
C561   C566    1.410   .     A
C562   O653    1.295   .     A
C562   O650    1.292   .     A
C563   C569    1.397   .     A
C563   C567    1.406   .     A
C564   C566    1.408   .     A
C564   O658    1.381   .     S
C564   C572    1.419   .     A
C565   C574    1.421   .     A
C565   C567    1.404   .     A
C565   O640    1.382   .     S
C566   I636    2.122   .     S
C567   I635    2.123   .     S
C568   I634    2.135   .     S
C568   C570    1.406   .     A
C569   C571    1.392   .     A
C569   I633    2.140   .     S
C570   C575    1.410   .     A
C570   C572    1.418   .     A
C571   C576    1.412   .     A
C571   C574    1.417   .     A
C572   C1580   1.422   .     S
C573   C590    1.408   .     A
C573   C576    1.420   .     A
C573   O641    1.385   .     S
C574   C1581   1.409   1_554 S
C575   C584    1.420   .     A
C575   C1566   1.395   .     S
C576   C1565   1.395   1_554 S
C577   H606    1.113   .     S
C577   O658    1.414   .     S
C577   H617    1.113   .     S
C578   H627    1.109   .     S
C578   O640    1.414   .     S
C578   H625    1.113   .     S
C578   H1616   1.112   1_554 S
C579   H628    1.113   .     S
C579   H629    1.108   .     S
C579   O641    1.411   .     S
C579   H630    1.113   .     S
C580   H598    1.108   .     S
C580   H597    1.108   .     S
C580   O642    1.412   .     S
C580   H596    1.114   .     S
C581   H599    1.109   .     S
C581   O643    1.415   .     S
C581   H601    1.115   .     S
C581   H930    1.106   .     S
C582   O644    1.415   .     S
C582   H602    1.108   .     S
C582   H603    1.114   .     S
C583   H605    1.113   .     S
C583   H608    1.114   .     S
C583   O645    1.410   .     S
C583   H607    1.107   .     S
C584   C591    1.406   .     A
C584   O642    1.382   .     S
C585   O646    1.409   .     S
C585   H609    1.108   .     S
C585   H610    1.113   .     S
C585   H611    1.113   .     S
C586   O647    1.414   .     S
C586   H614    1.109   .     S
C586   H392    1.105   1_655 S
C586   H393    1.108   1_655 S
C587   H618    1.108   .     S
C587   H615    1.106   .     S
C587   O648    1.411   .     S
C587   H616    1.110   .     S
C588   H620    1.113   .     S
C588   H619    1.106   .     S
C588   H621    1.105   .     S
C588   O649    1.414   .     S
C589   H624    1.114   .     S
C589   H622    1.108   .     S
C589   O651    1.410   .     S
C589   H623    1.106   .     S
C590   I631    2.147   .     S
C590   C1562   1.422   1_554 S
C591   C1564   1.409   .     S
C591   I412    2.129   1_655 S
C592   O643    1.389   .     S
C592   C924    1.390   .     S
C593   O644    1.387   .     S
C594   O645    1.383   .     S
H595   C907    1.109   .     S
H604   C912    1.106   .     S
H626   C1568   1.112   .     S
N637   Zn659   2.020   .     S
N638   Zn660   2.020   .     S
O639   Zn659   2.002   .     S
O650   Zn660   2.002   .     S
O652   Zn660   2.022   .     S
O653   Zn659   2.022   .     S
O654   Zn659   1.974   .     S
O655   Zn660   1.974   .     S
O656   Zn660   1.959   .     S
O657   Zn659   1.959   .     S
C661   O749    1.296   .     A
C661   C664    1.445   .     S
C661   O762    1.291   .     A
C662   C664    1.401   .     A
C662   O756    1.382   .     S
C662   C43     1.389   1_565 S
C663   C703    1.405   .     A
C663   C672    1.446   .     S
C663   C704    1.408   .     A
C664   C702    1.405   .     A
C665   N748    1.369   .     A
C665   O757    1.384   .     S
C665   C777    1.440   .     S
C666   O758    1.380   .     S
C666   N747    1.371   .     A
C666   C888    1.428   1_455 S
C667   O759    1.387   .     S
C667   N747    1.374   .     A
C667   C885    1.440   1_455 S
C668   O761    1.378   .     S
C668   N748    1.367   .     A
C668   C776    1.428   .     S
C669   O766    1.300   .     A
C669   C671    1.476   .     S
C669   O764    1.300   .     A
C670   O767    1.293   .     A
C670   C673    1.471   .     S
C670   O765    1.305   .     A
C671   C678    1.395   .     A
C671   C676    1.410   .     A
C672   O763    1.295   .     A
C672   O760    1.292   .     A
C673   C679    1.397   .     A
C673   C677    1.406   .     A
C674   C676    1.408   .     A
C674   O768    1.381   .     S
C674   C682    1.419   .     A
C675   C684    1.421   .     A
C675   C677    1.404   .     A
C675   O750    1.382   .     S
C676   I746    2.122   .     S
C677   I745    2.123   .     S
C678   I744    2.135   .     S
C678   C680    1.406   .     A
C679   C681    1.392   .     A
C679   I743    2.140   .     S
C680   C685    1.410   .     A
C680   C682    1.418   .     A
C681   C686    1.412   .     A
C681   C684    1.417   .     A
C682   C1690   1.422   .     S
C683   C700    1.408   .     A
C683   C686    1.420   .     A
C683   O751    1.385   .     S
C684   C1691   1.409   1_554 S
C685   C694    1.420   .     A
C685   C1676   1.395   .     S
C686   C1675   1.395   1_554 S
C687   H716    1.113   .     S
C687   O768    1.414   .     S
C687   H727    1.113   .     S
C688   H737    1.109   .     S
C688   O750    1.414   .     S
C688   H735    1.113   .     S
C688   H1726   1.112   1_554 S
C689   H738    1.113   .     S
C689   H739    1.108   .     S
C689   O751    1.411   .     S
C689   H740    1.113   .     S
C690   H708    1.108   .     S
C690   H707    1.108   .     S
C690   O752    1.412   .     S
C690   H706    1.114   .     S
C691   H709    1.109   .     S
C691   O753    1.415   .     S
C691   H711    1.115   .     S
C691   H50     1.106   1_565 S
C692   O754    1.415   .     S
C692   H712    1.108   .     S
C692   H713    1.114   .     S
C693   H715    1.113   .     S
C693   H718    1.114   .     S
C693   O755    1.410   .     S
C693   H717    1.107   .     S
C694   C701    1.406   .     A
C694   O752    1.382   .     S
C695   O756    1.409   .     S
C695   H719    1.108   .     S
C695   H720    1.113   .     S
C695   H721    1.113   .     S
C696   O757    1.414   .     S
C696   H724    1.109   .     S
C696   H832    1.105   .     S
C696   H833    1.108   .     S
C697   H728    1.108   .     S
C697   H725    1.106   .     S
C697   O758    1.411   .     S
C697   H726    1.110   .     S
C698   H730    1.113   .     S
C698   H729    1.106   .     S
C698   H731    1.105   .     S
C698   O759    1.414   .     S
C699   H734    1.114   .     S
C699   H732    1.108   .     S
C699   O761    1.410   .     S
C699   H733    1.106   .     S
C700   I741    2.147   .     S
C700   C1672   1.422   1_554 S
C701   C1674   1.409   .     S
C701   I852    2.129   .     S
C702   O753    1.389   .     S
C702   C44     1.390   1_565 S
C703   O754    1.387   .     S
C704   O755    1.383   .     S
H705   C27     1.109   1_565 S
H714   C32     1.106   1_565 S
H722   C916    1.105   1_455 S
H723   C916    1.108   1_455 S
H736   C1678   1.112   .     S
I742   C921    2.129   1_455 S
N747   Zn769   2.020   .     S
N748   Zn770   2.020   .     S
O749   Zn769   2.002   .     S
O760   Zn770   2.002   .     S
O762   Zn770   2.022   .     S
O763   Zn769   2.022   .     S
O764   Zn769   1.974   .     S
O765   Zn770   1.974   .     S
O766   Zn770   1.959   .     S
O767   Zn769   1.959   .     S
C771   O859    1.296   .     A
C771   C774    1.445   .     S
C771   O872    1.291   .     A
C772   C774    1.401   .     A
C772   O866    1.382   .     S
C772   C153    1.389   1_565 S
C773   C813    1.405   .     A
C773   C782    1.446   .     S
C773   C814    1.408   .     A
C774   C812    1.405   .     A
C775   N858    1.369   .     A
C775   O867    1.384   .     S
C775   C887    1.440   .     S
C776   O868    1.380   .     S
C776   N857    1.371   .     A
C777   O869    1.387   .     S
C777   N857    1.374   .     A
C778   O871    1.378   .     S
C778   N858    1.367   .     A
C778   C886    1.428   .     S
C779   O876    1.300   .     A
C779   C781    1.476   .     S
C779   O874    1.300   .     A
C780   O877    1.293   .     A
C780   C783    1.471   .     S
C780   O875    1.305   .     A
C781   C788    1.395   .     A
C781   C786    1.410   .     A
C782   O873    1.295   .     A
C782   O870    1.292   .     A
C783   C789    1.397   .     A
C783   C787    1.406   .     A
C784   C786    1.408   .     A
C784   O878    1.381   .     S
C784   C792    1.419   .     A
C785   C794    1.421   .     A
C785   C787    1.404   .     A
C785   O860    1.382   .     S
C786   I856    2.122   .     S
C787   I855    2.123   .     S
C788   I854    2.135   .     S
C788   C790    1.406   .     A
C789   C791    1.392   .     A
C789   I853    2.140   .     S
C790   C795    1.410   .     A
C790   C792    1.418   .     A
C791   C796    1.412   .     A
C791   C794    1.417   .     A
C792   C1800   1.422   .     S
C793   C810    1.408   .     A
C793   C796    1.420   .     A
C793   O861    1.385   .     S
C794   C1801   1.409   1_554 S
C795   C804    1.420   .     A
C795   C1786   1.395   .     S
C796   C1785   1.395   1_554 S
C797   H826    1.113   .     S
C797   O878    1.414   .     S
C797   H837    1.113   .     S
C798   H847    1.109   .     S
C798   O860    1.414   .     S
C798   H845    1.113   .     S
C798   H1836   1.112   1_554 S
C799   H848    1.113   .     S
C799   H849    1.108   .     S
C799   O861    1.411   .     S
C799   H850    1.113   .     S
C800   H818    1.108   .     S
C800   H817    1.108   .     S
C800   O862    1.412   .     S
C800   H816    1.114   .     S
C801   H819    1.109   .     S
C801   O863    1.415   .     S
C801   H821    1.115   .     S
C801   H160    1.106   1_565 S
C802   O864    1.415   .     S
C802   H822    1.108   .     S
C802   H823    1.114   .     S
C803   H825    1.113   .     S
C803   H828    1.114   .     S
C803   O865    1.410   .     S
C803   H827    1.107   .     S
C804   C811    1.406   .     A
C804   O862    1.382   .     S
C805   O866    1.409   .     S
C805   H829    1.108   .     S
C805   H830    1.113   .     S
C805   H831    1.113   .     S
C806   O867    1.414   .     S
C806   H834    1.109   .     S
C806   H942    1.105   .     S
C806   H943    1.108   .     S
C807   H838    1.108   .     S
C807   H835    1.106   .     S
C807   O868    1.411   .     S
C807   H836    1.110   .     S
C808   H840    1.113   .     S
C808   H839    1.106   .     S
C808   H841    1.105   .     S
C808   O869    1.414   .     S
C809   H844    1.114   .     S
C809   H842    1.108   .     S
C809   O871    1.410   .     S
C809   H843    1.106   .     S
C810   I851    2.147   .     S
C810   C1782   1.422   1_554 S
C811   C1784   1.409   .     S
C811   I962    2.129   .     S
C812   O863    1.389   .     S
C812   C154    1.390   1_565 S
C813   O864    1.387   .     S
C814   O865    1.383   .     S
H815   C137    1.109   1_565 S
H824   C142    1.106   1_565 S
H846   C1788   1.112   .     S
N857   Zn879   2.020   .     S
N858   Zn880   2.020   .     S
O859   Zn879   2.002   .     S
O870   Zn880   2.002   .     S
O872   Zn880   2.022   .     S
O873   Zn879   2.022   .     S
O874   Zn879   1.974   .     S
O875   Zn880   1.974   .     S
O876   Zn880   1.959   .     S
O877   Zn879   1.959   .     S
C881   O969    1.296   .     A
C881   C884    1.445   .     S
C881   O982    1.291   .     A
C882   C884    1.401   .     A
C882   O976    1.382   .     S
C882   C263    1.389   1_565 S
C883   C923    1.405   .     A
C883   C892    1.446   .     S
C883   C924    1.408   .     A
C884   C922    1.405   .     A
C885   N968    1.369   .     A
C885   O977    1.384   .     S
C885   C667    1.440   1_655 S
C886   O978    1.380   .     S
C886   N967    1.371   .     A
C887   O979    1.387   .     S
C887   N967    1.374   .     A
C888   O981    1.378   .     S
C888   N968    1.367   .     A
C888   C666    1.428   1_655 S
C889   O986    1.300   .     A
C889   C891    1.476   .     S
C889   O984    1.300   .     A
C890   O987    1.293   .     A
C890   C893    1.471   .     S
C890   O985    1.305   .     A
C891   C898    1.395   .     A
C891   C896    1.410   .     A
C892   O983    1.295   .     A
C892   O980    1.292   .     A
C893   C899    1.397   .     A
C893   C897    1.406   .     A
C894   C896    1.408   .     A
C894   O988    1.381   .     S
C894   C902    1.419   .     A
C895   C904    1.421   .     A
C895   C897    1.404   .     A
C895   O970    1.382   .     S
C896   I966    2.122   .     S
C897   I965    2.123   .     S
C898   I964    2.135   .     S
C898   C900    1.406   .     A
C899   C901    1.392   .     A
C899   I963    2.140   .     S
C900   C905    1.410   .     A
C900   C902    1.418   .     A
C901   C906    1.412   .     A
C901   C904    1.417   .     A
C902   C1910   1.422   .     S
C903   C920    1.408   .     A
C903   C906    1.420   .     A
C903   O971    1.385   .     S
C904   C1911   1.409   1_554 S
C905   C914    1.420   .     A
C905   C1896   1.395   .     S
C906   C1895   1.395   1_554 S
C907   H936    1.113   .     S
C907   O988    1.414   .     S
C907   H947    1.113   .     S
C908   H957    1.109   .     S
C908   O970    1.414   .     S
C908   H955    1.113   .     S
C908   H1946   1.112   1_554 S
C909   H958    1.113   .     S
C909   H959    1.108   .     S
C909   O971    1.411   .     S
C909   H960    1.113   .     S
C910   H928    1.108   .     S
C910   H927    1.108   .     S
C910   O972    1.412   .     S
C910   H926    1.114   .     S
C911   H929    1.109   .     S
C911   O973    1.415   .     S
C911   H931    1.115   .     S
C911   H270    1.106   1_565 S
C912   O974    1.415   .     S
C912   H932    1.108   .     S
C912   H933    1.114   .     S
C913   H935    1.113   .     S
C913   H938    1.114   .     S
C913   O975    1.410   .     S
C913   H937    1.107   .     S
C914   C921    1.406   .     A
C914   O972    1.382   .     S
C915   O976    1.409   .     S
C915   H939    1.108   .     S
C915   H940    1.113   .     S
C915   H941    1.113   .     S
C916   O977    1.414   .     S
C916   H944    1.109   .     S
C916   H722    1.105   1_655 S
C916   H723    1.108   1_655 S
C917   H948    1.108   .     S
C917   H945    1.106   .     S
C917   O978    1.411   .     S
C917   H946    1.110   .     S
C918   H950    1.113   .     S
C918   H949    1.106   .     S
C918   H951    1.105   .     S
C918   O979    1.414   .     S
C919   H954    1.114   .     S
C919   H952    1.108   .     S
C919   O981    1.410   .     S
C919   H953    1.106   .     S
C920   I961    2.147   .     S
C920   C1892   1.422   1_554 S
C921   C1894   1.409   .     S
C921   I742    2.129   1_655 S
C922   O973    1.389   .     S
C922   C264    1.390   1_565 S
C923   O974    1.387   .     S
C924   O975    1.383   .     S
H925   C247    1.109   1_565 S
H934   C252    1.106   1_565 S
H956   C1898   1.112   .     S
N967   Zn989   2.020   .     S
N968   Zn990   2.020   .     S
O969   Zn989   2.002   .     S
O980   Zn990   2.002   .     S
O982   Zn990   2.022   .     S
O983   Zn989   2.022   .     S
O984   Zn989   1.974   .     S
O985   Zn990   1.974   .     S
O986   Zn990   1.959   .     S
O987   Zn989   1.959   .     S
C991   O1079   1.296   .     A
C991   C994    1.445   .     S
C991   O1092   1.291   .     A
C992   C994    1.401   .     A
C992   O1086   1.382   .     S
C992   C1363   1.389   .     S
C993   C1033   1.405   .     A
C993   C1002   1.446   .     S
C993   C1034   1.408   .     A
C994   C1032   1.405   .     A
C995   N1078   1.369   .     A
C995   O1087   1.384   .     S
C995   C1107   1.440   .     S
C996   O1088   1.380   .     S
C996   N1077   1.371   .     A
C996   C1218   1.428   1_455 S
C997   O1089   1.387   .     S
C997   N1077   1.374   .     A
C997   C1215   1.440   1_455 S
C998   O1091   1.378   .     S
C998   N1078   1.367   .     A
C998   C1106   1.428   .     S
C999   O1096   1.300   .     A
C999   C1001   1.476   .     S
C999   O1094   1.300   .     A
C1000  O1097   1.293   .     A
C1000  C1003   1.471   .     S
C1000  O1095   1.305   .     A
C1001  C1008   1.395   .     A
C1001  C1006   1.410   .     A
C1002  O1093   1.295   .     A
C1002  O1090   1.292   .     A
C1003  C1009   1.397   .     A
C1003  C1007   1.406   .     A
C1004  C1006   1.408   .     A
C1004  O1098   1.381   .     S
C1004  C1012   1.419   .     A
C1005  C1014   1.421   .     A
C1005  C1007   1.404   .     A
C1005  O1080   1.382   .     S
C1006  I1076   2.122   .     S
C1007  I1075   2.123   .     S
C1008  I1074   2.135   .     S
C1008  C1010   1.406   .     A
C1009  C1011   1.392   .     A
C1009  I1073   2.140   .     S
C1010  C1015   1.410   .     A
C1010  C1012   1.418   .     A
C1011  C1016   1.412   .     A
C1011  C1014   1.417   .     A
C1012  C40     1.422   1_556 S
C1013  C1030   1.408   .     A
C1013  C1016   1.420   .     A
C1013  O1081   1.385   .     S
C1015  C1024   1.420   .     A
C1015  C26     1.395   1_556 S
C1017  H1046   1.113   .     S
C1017  O1098   1.414   .     S
C1017  H1057   1.113   .     S
C1017  H1695   1.109   1_545 S
C1018  H1067   1.109   .     S
C1018  O1080   1.414   .     S
C1018  H1065   1.113   .     S
C1019  H1068   1.113   .     S
C1019  H1069   1.108   .     S
C1019  O1081   1.411   .     S
C1019  H1070   1.113   .     S
C1020  H1038   1.108   .     S
C1020  H1037   1.108   .     S
C1020  O1082   1.412   .     S
C1020  H1036   1.114   .     S
C1021  H1039   1.109   .     S
C1021  O1083   1.415   .     S
C1021  H1041   1.115   .     S
C1021  H1370   1.106   .     S
C1022  O1084   1.415   .     S
C1022  H1042   1.108   .     S
C1022  H1043   1.114   .     S
C1022  H1704   1.106   1_545 S
C1023  H1045   1.113   .     S
C1023  H1048   1.114   .     S
C1023  O1085   1.410   .     S
C1023  H1047   1.107   .     S
C1024  C1031   1.406   .     A
C1024  O1082   1.382   .     S
C1025  O1086   1.409   .     S
C1025  H1049   1.108   .     S
C1025  H1050   1.113   .     S
C1025  H1051   1.113   .     S
C1026  O1087   1.414   .     S
C1026  H1054   1.109   .     S
C1026  H1162   1.105   .     S
C1026  H1163   1.108   .     S
C1027  H1058   1.108   .     S
C1027  H1055   1.106   .     S
C1027  O1088   1.411   .     S
C1027  H1056   1.110   .     S
C1028  H1060   1.113   .     S
C1028  H1059   1.106   .     S
C1028  H1061   1.105   .     S
C1028  O1089   1.414   .     S
C1029  H1064   1.114   .     S
C1029  H1062   1.108   .     S
C1029  O1091   1.410   .     S
C1029  H1063   1.106   .     S
C1030  I1071   2.147   .     S
C1031  C24     1.409   1_556 S
C1031  I1182   2.129   .     S
C1032  O1083   1.389   .     S
C1032  C1364   1.390   .     S
C1033  O1084   1.387   .     S
C1033  C1652   1.389   1_545 S
C1034  O1085   1.383   .     S
C1034  C1692   1.390   1_545 S
H1035  C1347   1.109   .     S
H1040  C1681   1.106   1_545 S
H1044  C1352   1.106   .     S
H1052  C1246   1.105   1_455 S
H1053  C1246   1.108   1_455 S
H1066  C28     1.112   1_556 S
I1072  C1251   2.129   1_455 S
N1077  Zn1099  2.020   .     S
N1078  Zn1100  2.020   .     S
O1079  Zn1099  2.002   .     S
O1090  Zn1100  2.002   .     S
O1092  Zn1100  2.022   .     S
O1093  Zn1099  2.022   .     S
O1094  Zn1099  1.974   .     S
O1095  Zn1100  1.974   .     S
O1096  Zn1100  1.959   .     S
O1097  Zn1099  1.959   .     S
C1101  O1189   1.296   .     A
C1101  C1104   1.445   .     S
C1101  O1202   1.291   .     A
C1102  C1104   1.401   .     A
C1102  O1196   1.382   .     S
C1102  C1473   1.389   .     S
C1103  C1143   1.405   .     A
C1103  C1112   1.446   .     S
C1103  C1144   1.408   .     A
C1104  C1142   1.405   .     A
C1105  N1188   1.369   .     A
C1105  O1197   1.384   .     S
C1105  C1217   1.440   .     S
C1106  O1198   1.380   .     S
C1106  N1187   1.371   .     A
C1107  O1199   1.387   .     S
C1107  N1187   1.374   .     A
C1108  O1201   1.378   .     S
C1108  N1188   1.367   .     A
C1108  C1216   1.428   .     S
C1109  O1206   1.300   .     A
C1109  C1111   1.476   .     S
C1109  O1204   1.300   .     A
C1110  O1207   1.293   .     A
C1110  C1113   1.471   .     S
C1110  O1205   1.305   .     A
C1111  C1118   1.395   .     A
C1111  C1116   1.410   .     A
C1112  O1203   1.295   .     A
C1112  O1200   1.292   .     A
C1113  C1119   1.397   .     A
C1113  C1117   1.406   .     A
C1114  C1116   1.408   .     A
C1114  O1208   1.381   .     S
C1114  C1122   1.419   .     A
C1115  C1124   1.421   .     A
C1115  C1117   1.404   .     A
C1115  O1190   1.382   .     S
C1116  I1186   2.122   .     S
C1117  I1185   2.123   .     S
C1118  I1184   2.135   .     S
C1118  C1120   1.406   .     A
C1119  C1121   1.392   .     A
C1119  I1183   2.140   .     S
C1120  C1125   1.410   .     A
C1120  C1122   1.418   .     A
C1121  C1126   1.412   .     A
C1121  C1124   1.417   .     A
C1122  C150    1.422   1_556 S
C1123  C1140   1.408   .     A
C1123  C1126   1.420   .     A
C1123  O1191   1.385   .     S
C1125  C1134   1.420   .     A
C1125  C136    1.395   1_556 S
C1127  H1156   1.113   .     S
C1127  O1208   1.414   .     S
C1127  H1167   1.113   .     S
C1127  H1805   1.109   1_545 S
C1128  H1177   1.109   .     S
C1128  O1190   1.414   .     S
C1128  H1175   1.113   .     S
C1129  H1178   1.113   .     S
C1129  H1179   1.108   .     S
C1129  O1191   1.411   .     S
C1129  H1180   1.113   .     S
C1130  H1148   1.108   .     S
C1130  H1147   1.108   .     S
C1130  O1192   1.412   .     S
C1130  H1146   1.114   .     S
C1131  H1149   1.109   .     S
C1131  O1193   1.415   .     S
C1131  H1151   1.115   .     S
C1131  H1480   1.106   .     S
C1132  O1194   1.415   .     S
C1132  H1152   1.108   .     S
C1132  H1153   1.114   .     S
C1132  H1814   1.106   1_545 S
C1133  H1155   1.113   .     S
C1133  H1158   1.114   .     S
C1133  O1195   1.410   .     S
C1133  H1157   1.107   .     S
C1134  C1141   1.406   .     A
C1134  O1192   1.382   .     S
C1135  O1196   1.409   .     S
C1135  H1159   1.108   .     S
C1135  H1160   1.113   .     S
C1135  H1161   1.113   .     S
C1136  O1197   1.414   .     S
C1136  H1164   1.109   .     S
C1136  H1272   1.105   .     S
C1136  H1273   1.108   .     S
C1137  H1168   1.108   .     S
C1137  H1165   1.106   .     S
C1137  O1198   1.411   .     S
C1137  H1166   1.110   .     S
C1138  H1170   1.113   .     S
C1138  H1169   1.106   .     S
C1138  H1171   1.105   .     S
C1138  O1199   1.414   .     S
C1139  H1174   1.114   .     S
C1139  H1172   1.108   .     S
C1139  O1201   1.410   .     S
C1139  H1173   1.106   .     S
C1140  I1181   2.147   .     S
C1141  C134    1.409   1_556 S
C1141  I1292   2.129   .     S
C1142  O1193   1.389   .     S
C1142  C1474   1.390   .     S
C1143  O1194   1.387   .     S
C1143  C1762   1.389   1_545 S
C1144  O1195   1.383   .     S
C1144  C1802   1.390   1_545 S
H1145  C1457   1.109   .     S
H1150  C1791   1.106   1_545 S
H1154  C1462   1.106   .     S
H1176  C138    1.112   1_556 S
N1187  Zn1209  2.020   .     S
N1188  Zn1210  2.020   .     S
O1189  Zn1209  2.002   .     S
O1200  Zn1210  2.002   .     S
O1202  Zn1210  2.022   .     S
O1203  Zn1209  2.022   .     S
O1204  Zn1209  1.974   .     S
O1205  Zn1210  1.974   .     S
O1206  Zn1210  1.959   .     S
O1207  Zn1209  1.959   .     S
C1211  O1299   1.296   .     A
C1211  C1214   1.445   .     S
C1211  O1312   1.291   .     A
C1212  C1214   1.401   .     A
C1212  O1306   1.382   .     S
C1212  C1583   1.389   .     S
C1213  C1253   1.405   .     A
C1213  C1222   1.446   .     S
C1213  C1254   1.408   .     A
C1214  C1252   1.405   .     A
C1215  N1298   1.369   .     A
C1215  O1307   1.384   .     S
C1215  C997    1.440   1_655 S
C1216  O1308   1.380   .     S
C1216  N1297   1.371   .     A
C1217  O1309   1.387   .     S
C1217  N1297   1.374   .     A
C1218  O1311   1.378   .     S
C1218  N1298   1.367   .     A
C1218  C996    1.428   1_655 S
C1219  O1316   1.300   .     A
C1219  C1221   1.476   .     S
C1219  O1314   1.300   .     A
C1220  O1317   1.293   .     A
C1220  C1223   1.471   .     S
C1220  O1315   1.305   .     A
C1221  C1228   1.395   .     A
C1221  C1226   1.410   .     A
C1222  O1313   1.295   .     A
C1222  O1310   1.292   .     A
C1223  C1229   1.397   .     A
C1223  C1227   1.406   .     A
C1224  C1226   1.408   .     A
C1224  O1318   1.381   .     S
C1224  C1232   1.419   .     A
C1225  C1234   1.421   .     A
C1225  C1227   1.404   .     A
C1225  O1300   1.382   .     S
C1226  I1296   2.122   .     S
C1227  I1295   2.123   .     S
C1228  I1294   2.135   .     S
C1228  C1230   1.406   .     A
C1229  C1231   1.392   .     A
C1229  I1293   2.140   .     S
C1230  C1235   1.410   .     A
C1230  C1232   1.418   .     A
C1231  C1236   1.412   .     A
C1231  C1234   1.417   .     A
C1232  C260    1.422   1_556 S
C1233  C1250   1.408   .     A
C1233  C1236   1.420   .     A
C1233  O1301   1.385   .     S
C1235  C1244   1.420   .     A
C1235  C246    1.395   1_556 S
C1237  H1266   1.113   .     S
C1237  O1318   1.414   .     S
C1237  H1277   1.113   .     S
C1237  H1915   1.109   1_545 S
C1238  H1287   1.109   .     S
C1238  O1300   1.414   .     S
C1238  H1285   1.113   .     S
C1239  H1288   1.113   .     S
C1239  H1289   1.108   .     S
C1239  O1301   1.411   .     S
C1239  H1290   1.113   .     S
C1240  H1258   1.108   .     S
C1240  H1257   1.108   .     S
C1240  O1302   1.412   .     S
C1240  H1256   1.114   .     S
C1241  H1259   1.109   .     S
C1241  O1303   1.415   .     S
C1241  H1261   1.115   .     S
C1241  H1590   1.106   .     S
C1242  O1304   1.415   .     S
C1242  H1262   1.108   .     S
C1242  H1263   1.114   .     S
C1242  H1924   1.106   1_545 S
C1243  H1265   1.113   .     S
C1243  H1268   1.114   .     S
C1243  O1305   1.410   .     S
C1243  H1267   1.107   .     S
C1244  C1251   1.406   .     A
C1244  O1302   1.382   .     S
C1245  O1306   1.409   .     S
C1245  H1269   1.108   .     S
C1245  H1270   1.113   .     S
C1245  H1271   1.113   .     S
C1246  O1307   1.414   .     S
C1246  H1274   1.109   .     S
C1246  H1052   1.105   1_655 S
C1246  H1053   1.108   1_655 S
C1247  H1278   1.108   .     S
C1247  H1275   1.106   .     S
C1247  O1308   1.411   .     S
C1247  H1276   1.110   .     S
C1248  H1280   1.113   .     S
C1248  H1279   1.106   .     S
C1248  H1281   1.105   .     S
C1248  O1309   1.414   .     S
C1249  H1284   1.114   .     S
C1249  H1282   1.108   .     S
C1249  O1311   1.410   .     S
C1249  H1283   1.106   .     S
C1250  I1291   2.147   .     S
C1251  C244    1.409   1_556 S
C1251  I1072   2.129   1_655 S
C1252  O1303   1.389   .     S
C1252  C1584   1.390   .     S
C1253  O1304   1.387   .     S
C1253  C1872   1.389   1_545 S
C1254  O1305   1.383   .     S
C1254  C1912   1.390   1_545 S
H1255  C1567   1.109   .     S
H1260  C1901   1.106   1_545 S
H1264  C1572   1.106   .     S
H1286  C248    1.112   1_556 S
N1297  Zn1319  2.020   .     S
N1298  Zn1320  2.020   .     S
O1299  Zn1319  2.002   .     S
O1310  Zn1320  2.002   .     S
O1312  Zn1320  2.022   .     S
O1313  Zn1319  2.022   .     S
O1314  Zn1319  1.974   .     S
O1315  Zn1320  1.974   .     S
O1316  Zn1320  1.959   .     S
O1317  Zn1319  1.959   .     S
C1321  O1409   1.296   .     A
C1321  C1324   1.445   .     S
C1321  O1422   1.291   .     A
C1322  C1324   1.401   .     A
C1322  O1416   1.382   .     S
C1322  C1693   1.389   .     S
C1323  C1363   1.405   .     A
C1323  C1332   1.446   .     S
C1323  C1364   1.408   .     A
C1324  C1362   1.405   .     A
C1325  N1408   1.369   .     A
C1325  O1417   1.384   .     S
C1325  C1437   1.440   .     S
C1326  O1418   1.380   .     S
C1326  N1407   1.371   .     A
C1326  C1548   1.428   1_455 S
C1327  O1419   1.387   .     S
C1327  N1407   1.374   .     A
C1327  C1545   1.440   1_455 S
C1328  O1421   1.378   .     S
C1328  N1408   1.367   .     A
C1328  C1436   1.428   .     S
C1329  O1426   1.300   .     A
C1329  C1331   1.476   .     S
C1329  O1424   1.300   .     A
C1330  O1427   1.293   .     A
C1330  C1333   1.471   .     S
C1330  O1425   1.305   .     A
C1331  C1338   1.395   .     A
C1331  C1336   1.410   .     A
C1332  O1423   1.295   .     A
C1332  O1420   1.292   .     A
C1333  C1339   1.397   .     A
C1333  C1337   1.406   .     A
C1334  C1336   1.408   .     A
C1334  O1428   1.381   .     S
C1334  C1342   1.419   .     A
C1335  C1344   1.421   .     A
C1335  C1337   1.404   .     A
C1335  O1410   1.382   .     S
C1336  I1406   2.122   .     S
C1337  I1405   2.123   .     S
C1338  I1404   2.135   .     S
C1338  C1340   1.406   .     A
C1339  C1341   1.392   .     A
C1339  I1403   2.140   .     S
C1340  C1345   1.410   .     A
C1340  C1342   1.418   .     A
C1341  C1346   1.412   .     A
C1341  C1344   1.417   .     A
C1342  C370    1.422   1_556 S
C1343  C1360   1.408   .     A
C1343  C1346   1.420   .     A
C1343  O1411   1.385   .     S
C1345  C1354   1.420   .     A
C1345  C356    1.395   1_556 S
C1347  H1376   1.113   .     S
C1347  O1428   1.414   .     S
C1347  H1387   1.113   .     S
C1348  H1397   1.109   .     S
C1348  O1410   1.414   .     S
C1348  H1395   1.113   .     S
C1349  H1398   1.113   .     S
C1349  H1399   1.108   .     S
C1349  O1411   1.411   .     S
C1349  H1400   1.113   .     S
C1350  H1368   1.108   .     S
C1350  H1367   1.108   .     S
C1350  O1412   1.412   .     S
C1350  H1366   1.114   .     S
C1351  H1369   1.109   .     S
C1351  O1413   1.415   .     S
C1351  H1371   1.115   .     S
C1351  H1700   1.106   .     S
C1352  O1414   1.415   .     S
C1352  H1372   1.108   .     S
C1352  H1373   1.114   .     S
C1353  H1375   1.113   .     S
C1353  H1378   1.114   .     S
C1353  O1415   1.410   .     S
C1353  H1377   1.107   .     S
C1354  C1361   1.406   .     A
C1354  O1412   1.382   .     S
C1355  O1416   1.409   .     S
C1355  H1379   1.108   .     S
C1355  H1380   1.113   .     S
C1355  H1381   1.113   .     S
C1356  O1417   1.414   .     S
C1356  H1384   1.109   .     S
C1356  H1492   1.105   .     S
C1356  H1493   1.108   .     S
C1357  H1388   1.108   .     S
C1357  H1385   1.106   .     S
C1357  O1418   1.411   .     S
C1357  H1386   1.110   .     S
C1358  H1390   1.113   .     S
C1358  H1389   1.106   .     S
C1358  H1391   1.105   .     S
C1358  O1419   1.414   .     S
C1359  H1394   1.114   .     S
C1359  H1392   1.108   .     S
C1359  O1421   1.410   .     S
C1359  H1393   1.106   .     S
C1360  I1401   2.147   .     S
C1361  C354    1.409   1_556 S
C1361  I1512   2.129   .     S
C1362  O1413   1.389   .     S
C1362  C1694   1.390   .     S
C1363  O1414   1.387   .     S
C1364  O1415   1.383   .     S
H1365  C1677   1.109   .     S
H1374  C1682   1.106   .     S
H1382  C1576   1.105   1_455 S
H1383  C1576   1.108   1_455 S
H1396  C358    1.112   1_556 S
I1402  C1581   2.129   1_455 S
N1407  Zn1429  2.020   .     S
N1408  Zn1430  2.020   .     S
O1409  Zn1429  2.002   .     S
O1420  Zn1430  2.002   .     S
O1422  Zn1430  2.022   .     S
O1423  Zn1429  2.022   .     S
O1424  Zn1429  1.974   .     S
O1425  Zn1430  1.974   .     S
O1426  Zn1430  1.959   .     S
O1427  Zn1429  1.959   .     S
C1431  O1519   1.296   .     A
C1431  C1434   1.445   .     S
C1431  O1532   1.291   .     A
C1432  C1434   1.401   .     A
C1432  O1526   1.382   .     S
C1432  C1803   1.389   .     S
C1433  C1473   1.405   .     A
C1433  C1442   1.446   .     S
C1433  C1474   1.408   .     A
C1434  C1472   1.405   .     A
C1435  N1518   1.369   .     A
C1435  O1527   1.384   .     S
C1435  C1547   1.440   .     S
C1436  O1528   1.380   .     S
C1436  N1517   1.371   .     A
C1437  O1529   1.387   .     S
C1437  N1517   1.374   .     A
C1438  O1531   1.378   .     S
C1438  N1518   1.367   .     A
C1438  C1546   1.428   .     S
C1439  O1536   1.300   .     A
C1439  C1441   1.476   .     S
C1439  O1534   1.300   .     A
C1440  O1537   1.293   .     A
C1440  C1443   1.471   .     S
C1440  O1535   1.305   .     A
C1441  C1448   1.395   .     A
C1441  C1446   1.410   .     A
C1442  O1533   1.295   .     A
C1442  O1530   1.292   .     A
C1443  C1449   1.397   .     A
C1443  C1447   1.406   .     A
C1444  C1446   1.408   .     A
C1444  O1538   1.381   .     S
C1444  C1452   1.419   .     A
C1445  C1454   1.421   .     A
C1445  C1447   1.404   .     A
C1445  O1520   1.382   .     S
C1446  I1516   2.122   .     S
C1447  I1515   2.123   .     S
C1448  I1514   2.135   .     S
C1448  C1450   1.406   .     A
C1449  C1451   1.392   .     A
C1449  I1513   2.140   .     S
C1450  C1455   1.410   .     A
C1450  C1452   1.418   .     A
C1451  C1456   1.412   .     A
C1451  C1454   1.417   .     A
C1452  C480    1.422   1_556 S
C1453  C1470   1.408   .     A
C1453  C1456   1.420   .     A
C1453  O1521   1.385   .     S
C1455  C1464   1.420   .     A
C1455  C466    1.395   1_556 S
C1457  H1486   1.113   .     S
C1457  O1538   1.414   .     S
C1457  H1497   1.113   .     S
C1458  H1507   1.109   .     S
C1458  O1520   1.414   .     S
C1458  H1505   1.113   .     S
C1459  H1508   1.113   .     S
C1459  H1509   1.108   .     S
C1459  O1521   1.411   .     S
C1459  H1510   1.113   .     S
C1460  H1478   1.108   .     S
C1460  H1477   1.108   .     S
C1460  O1522   1.412   .     S
C1460  H1476   1.114   .     S
C1461  H1479   1.109   .     S
C1461  O1523   1.415   .     S
C1461  H1481   1.115   .     S
C1461  H1810   1.106   .     S
C1462  O1524   1.415   .     S
C1462  H1482   1.108   .     S
C1462  H1483   1.114   .     S
C1463  H1485   1.113   .     S
C1463  H1488   1.114   .     S
C1463  O1525   1.410   .     S
C1463  H1487   1.107   .     S
C1464  C1471   1.406   .     A
C1464  O1522   1.382   .     S
C1465  O1526   1.409   .     S
C1465  H1489   1.108   .     S
C1465  H1490   1.113   .     S
C1465  H1491   1.113   .     S
C1466  O1527   1.414   .     S
C1466  H1494   1.109   .     S
C1466  H1602   1.105   .     S
C1466  H1603   1.108   .     S
C1467  H1498   1.108   .     S
C1467  H1495   1.106   .     S
C1467  O1528   1.411   .     S
C1467  H1496   1.110   .     S
C1468  H1500   1.113   .     S
C1468  H1499   1.106   .     S
C1468  H1501   1.105   .     S
C1468  O1529   1.414   .     S
C1469  H1504   1.114   .     S
C1469  H1502   1.108   .     S
C1469  O1531   1.410   .     S
C1469  H1503   1.106   .     S
C1470  I1511   2.147   .     S
C1471  C464    1.409   1_556 S
C1471  I1622   2.129   .     S
C1472  O1523   1.389   .     S
C1472  C1804   1.390   .     S
C1473  O1524   1.387   .     S
C1474  O1525   1.383   .     S
H1475  C1787   1.109   .     S
H1484  C1792   1.106   .     S
H1506  C468    1.112   1_556 S
N1517  Zn1539  2.020   .     S
N1518  Zn1540  2.020   .     S
O1519  Zn1539  2.002   .     S
O1530  Zn1540  2.002   .     S
O1532  Zn1540  2.022   .     S
O1533  Zn1539  2.022   .     S
O1534  Zn1539  1.974   .     S
O1535  Zn1540  1.974   .     S
O1536  Zn1540  1.959   .     S
O1537  Zn1539  1.959   .     S
C1541  O1629   1.296   .     A
C1541  C1544   1.445   .     S
C1541  O1642   1.291   .     A
C1542  C1544   1.401   .     A
C1542  O1636   1.382   .     S
C1542  C1913   1.389   .     S
C1543  C1583   1.405   .     A
C1543  C1552   1.446   .     S
C1543  C1584   1.408   .     A
C1544  C1582   1.405   .     A
C1545  N1628   1.369   .     A
C1545  O1637   1.384   .     S
C1545  C1327   1.440   1_655 S
C1546  O1638   1.380   .     S
C1546  N1627   1.371   .     A
C1547  O1639   1.387   .     S
C1547  N1627   1.374   .     A
C1548  O1641   1.378   .     S
C1548  N1628   1.367   .     A
C1548  C1326   1.428   1_655 S
C1549  O1646   1.300   .     A
C1549  C1551   1.476   .     S
C1549  O1644   1.300   .     A
C1550  O1647   1.293   .     A
C1550  C1553   1.471   .     S
C1550  O1645   1.305   .     A
C1551  C1558   1.395   .     A
C1551  C1556   1.410   .     A
C1552  O1643   1.295   .     A
C1552  O1640   1.292   .     A
C1553  C1559   1.397   .     A
C1553  C1557   1.406   .     A
C1554  C1556   1.408   .     A
C1554  O1648   1.381   .     S
C1554  C1562   1.419   .     A
C1555  C1564   1.421   .     A
C1555  C1557   1.404   .     A
C1555  O1630   1.382   .     S
C1556  I1626   2.122   .     S
C1557  I1625   2.123   .     S
C1558  I1624   2.135   .     S
C1558  C1560   1.406   .     A
C1559  C1561   1.392   .     A
C1559  I1623   2.140   .     S
C1560  C1565   1.410   .     A
C1560  C1562   1.418   .     A
C1561  C1566   1.412   .     A
C1561  C1564   1.417   .     A
C1562  C590    1.422   1_556 S
C1563  C1580   1.408   .     A
C1563  C1566   1.420   .     A
C1563  O1631   1.385   .     S
C1565  C1574   1.420   .     A
C1565  C576    1.395   1_556 S
C1567  H1596   1.113   .     S
C1567  O1648   1.414   .     S
C1567  H1607   1.113   .     S
C1568  H1617   1.109   .     S
C1568  O1630   1.414   .     S
C1568  H1615   1.113   .     S
C1569  H1618   1.113   .     S
C1569  H1619   1.108   .     S
C1569  O1631   1.411   .     S
C1569  H1620   1.113   .     S
C1570  H1588   1.108   .     S
C1570  H1587   1.108   .     S
C1570  O1632   1.412   .     S
C1570  H1586   1.114   .     S
C1571  H1589   1.109   .     S
C1571  O1633   1.415   .     S
C1571  H1591   1.115   .     S
C1571  H1920   1.106   .     S
C1572  O1634   1.415   .     S
C1572  H1592   1.108   .     S
C1572  H1593   1.114   .     S
C1573  H1595   1.113   .     S
C1573  H1598   1.114   .     S
C1573  O1635   1.410   .     S
C1573  H1597   1.107   .     S
C1574  C1581   1.406   .     A
C1574  O1632   1.382   .     S
C1575  O1636   1.409   .     S
C1575  H1599   1.108   .     S
C1575  H1600   1.113   .     S
C1575  H1601   1.113   .     S
C1576  O1637   1.414   .     S
C1576  H1604   1.109   .     S
C1576  H1382   1.105   1_655 S
C1576  H1383   1.108   1_655 S
C1577  H1608   1.108   .     S
C1577  H1605   1.106   .     S
C1577  O1638   1.411   .     S
C1577  H1606   1.110   .     S
C1578  H1610   1.113   .     S
C1578  H1609   1.106   .     S
C1578  H1611   1.105   .     S
C1578  O1639   1.414   .     S
C1579  H1614   1.114   .     S
C1579  H1612   1.108   .     S
C1579  O1641   1.410   .     S
C1579  H1613   1.106   .     S
C1580  I1621   2.147   .     S
C1581  C574    1.409   1_556 S
C1581  I1402   2.129   1_655 S
C1582  O1633   1.389   .     S
C1582  C1914   1.390   .     S
C1583  O1634   1.387   .     S
C1584  O1635   1.383   .     S
H1585  C1897   1.109   .     S
H1594  C1902   1.106   .     S
H1616  C578    1.112   1_556 S
N1627  Zn1649  2.020   .     S
N1628  Zn1650  2.020   .     S
O1629  Zn1649  2.002   .     S
O1640  Zn1650  2.002   .     S
O1642  Zn1650  2.022   .     S
O1643  Zn1649  2.022   .     S
O1644  Zn1649  1.974   .     S
O1645  Zn1650  1.974   .     S
O1646  Zn1650  1.959   .     S
O1647  Zn1649  1.959   .     S
C1651  O1739   1.296   .     A
C1651  C1654   1.445   .     S
C1651  O1752   1.291   .     A
C1652  C1654   1.401   .     A
C1652  O1746   1.382   .     S
C1652  C1033   1.389   1_565 S
C1653  C1693   1.405   .     A
C1653  C1662   1.446   .     S
C1653  C1694   1.408   .     A
C1654  C1692   1.405   .     A
C1655  N1738   1.369   .     A
C1655  O1747   1.384   .     S
C1655  C1767   1.440   .     S
C1656  O1748   1.380   .     S
C1656  N1737   1.371   .     A
C1656  C1878   1.428   1_455 S
C1657  O1749   1.387   .     S
C1657  N1737   1.374   .     A
C1657  C1875   1.440   1_455 S
C1658  O1751   1.378   .     S
C1658  N1738   1.367   .     A
C1658  C1766   1.428   .     S
C1659  O1756   1.300   .     A
C1659  C1661   1.476   .     S
C1659  O1754   1.300   .     A
C1660  O1757   1.293   .     A
C1660  C1663   1.471   .     S
C1660  O1755   1.305   .     A
C1661  C1668   1.395   .     A
C1661  C1666   1.410   .     A
C1662  O1753   1.295   .     A
C1662  O1750   1.292   .     A
C1663  C1669   1.397   .     A
C1663  C1667   1.406   .     A
C1664  C1666   1.408   .     A
C1664  O1758   1.381   .     S
C1664  C1672   1.419   .     A
C1665  C1674   1.421   .     A
C1665  C1667   1.404   .     A
C1665  O1740   1.382   .     S
C1666  I1736   2.122   .     S
C1667  I1735   2.123   .     S
C1668  I1734   2.135   .     S
C1668  C1670   1.406   .     A
C1669  C1671   1.392   .     A
C1669  I1733   2.140   .     S
C1670  C1675   1.410   .     A
C1670  C1672   1.418   .     A
C1671  C1676   1.412   .     A
C1671  C1674   1.417   .     A
C1672  C700    1.422   1_556 S
C1673  C1690   1.408   .     A
C1673  C1676   1.420   .     A
C1673  O1741   1.385   .     S
C1675  C1684   1.420   .     A
C1675  C686    1.395   1_556 S
C1677  H1706   1.113   .     S
C1677  O1758   1.414   .     S
C1677  H1717   1.113   .     S
C1678  H1727   1.109   .     S
C1678  O1740   1.414   .     S
C1678  H1725   1.113   .     S
C1679  H1728   1.113   .     S
C1679  H1729   1.108   .     S
C1679  O1741   1.411   .     S
C1679  H1730   1.113   .     S
C1680  H1698   1.108   .     S
C1680  H1697   1.108   .     S
C1680  O1742   1.412   .     S
C1680  H1696   1.114   .     S
C1681  H1699   1.109   .     S
C1681  O1743   1.415   .     S
C1681  H1701   1.115   .     S
C1681  H1040   1.106   1_565 S
C1682  O1744   1.415   .     S
C1682  H1702   1.108   .     S
C1682  H1703   1.114   .     S
C1683  H1705   1.113   .     S
C1683  H1708   1.114   .     S
C1683  O1745   1.410   .     S
C1683  H1707   1.107   .     S
C1684  C1691   1.406   .     A
C1684  O1742   1.382   .     S
C1685  O1746   1.409   .     S
C1685  H1709   1.108   .     S
C1685  H1710   1.113   .     S
C1685  H1711   1.113   .     S
C1686  O1747   1.414   .     S
C1686  H1714   1.109   .     S
C1686  H1822   1.105   .     S
C1686  H1823   1.108   .     S
C1687  H1718   1.108   .     S
C1687  H1715   1.106   .     S
C1687  O1748   1.411   .     S
C1687  H1716   1.110   .     S
C1688  H1720   1.113   .     S
C1688  H1719   1.106   .     S
C1688  H1721   1.105   .     S
C1688  O1749   1.414   .     S
C1689  H1724   1.114   .     S
C1689  H1722   1.108   .     S
C1689  O1751   1.410   .     S
C1689  H1723   1.106   .     S
C1690  I1731   2.147   .     S
C1691  C684    1.409   1_556 S
C1691  I1842   2.129   .     S
C1692  O1743   1.389   .     S
C1692  C1034   1.390   1_565 S
C1693  O1744   1.387   .     S
C1694  O1745   1.383   .     S
H1695  C1017   1.109   1_565 S
H1704  C1022   1.106   1_565 S
H1712  C1906   1.105   1_455 S
H1713  C1906   1.108   1_455 S
H1726  C688    1.112   1_556 S
I1732  C1911   2.129   1_455 S
N1737  Zn1759  2.020   .     S
N1738  Zn1760  2.020   .     S
O1739  Zn1759  2.002   .     S
O1750  Zn1760  2.002   .     S
O1752  Zn1760  2.022   .     S
O1753  Zn1759  2.022   .     S
O1754  Zn1759  1.974   .     S
O1755  Zn1760  1.974   .     S
O1756  Zn1760  1.959   .     S
O1757  Zn1759  1.959   .     S
C1761  O1849   1.296   .     A
C1761  C1764   1.445   .     S
C1761  O1862   1.291   .     A
C1762  C1764   1.401   .     A
C1762  O1856   1.382   .     S
C1762  C1143   1.389   1_565 S
C1763  C1803   1.405   .     A
C1763  C1772   1.446   .     S
C1763  C1804   1.408   .     A
C1764  C1802   1.405   .     A
C1765  N1848   1.369   .     A
C1765  O1857   1.384   .     S
C1765  C1877   1.440   .     S
C1766  O1858   1.380   .     S
C1766  N1847   1.371   .     A
C1767  O1859   1.387   .     S
C1767  N1847   1.374   .     A
C1768  O1861   1.378   .     S
C1768  N1848   1.367   .     A
C1768  C1876   1.428   .     S
C1769  O1866   1.300   .     A
C1769  C1771   1.476   .     S
C1769  O1864   1.300   .     A
C1770  O1867   1.293   .     A
C1770  C1773   1.471   .     S
C1770  O1865   1.305   .     A
C1771  C1778   1.395   .     A
C1771  C1776   1.410   .     A
C1772  O1863   1.295   .     A
C1772  O1860   1.292   .     A
C1773  C1779   1.397   .     A
C1773  C1777   1.406   .     A
C1774  C1776   1.408   .     A
C1774  O1868   1.381   .     S
C1774  C1782   1.419   .     A
C1775  C1784   1.421   .     A
C1775  C1777   1.404   .     A
C1775  O1850   1.382   .     S
C1776  I1846   2.122   .     S
C1777  I1845   2.123   .     S
C1778  I1844   2.135   .     S
C1778  C1780   1.406   .     A
C1779  C1781   1.392   .     A
C1779  I1843   2.140   .     S
C1780  C1785   1.410   .     A
C1780  C1782   1.418   .     A
C1781  C1786   1.412   .     A
C1781  C1784   1.417   .     A
C1782  C810    1.422   1_556 S
C1783  C1800   1.408   .     A
C1783  C1786   1.420   .     A
C1783  O1851   1.385   .     S
C1785  C1794   1.420   .     A
C1785  C796    1.395   1_556 S
C1787  H1816   1.113   .     S
C1787  O1868   1.414   .     S
C1787  H1827   1.113   .     S
C1788  H1837   1.109   .     S
C1788  O1850   1.414   .     S
C1788  H1835   1.113   .     S
C1789  H1838   1.113   .     S
C1789  H1839   1.108   .     S
C1789  O1851   1.411   .     S
C1789  H1840   1.113   .     S
C1790  H1808   1.108   .     S
C1790  H1807   1.108   .     S
C1790  O1852   1.412   .     S
C1790  H1806   1.114   .     S
C1791  H1809   1.109   .     S
C1791  O1853   1.415   .     S
C1791  H1811   1.115   .     S
C1791  H1150   1.106   1_565 S
C1792  O1854   1.415   .     S
C1792  H1812   1.108   .     S
C1792  H1813   1.114   .     S
C1793  H1815   1.113   .     S
C1793  H1818   1.114   .     S
C1793  O1855   1.410   .     S
C1793  H1817   1.107   .     S
C1794  C1801   1.406   .     A
C1794  O1852   1.382   .     S
C1795  O1856   1.409   .     S
C1795  H1819   1.108   .     S
C1795  H1820   1.113   .     S
C1795  H1821   1.113   .     S
C1796  O1857   1.414   .     S
C1796  H1824   1.109   .     S
C1796  H1932   1.105   .     S
C1796  H1933   1.108   .     S
C1797  H1828   1.108   .     S
C1797  H1825   1.106   .     S
C1797  O1858   1.411   .     S
C1797  H1826   1.110   .     S
C1798  H1830   1.113   .     S
C1798  H1829   1.106   .     S
C1798  H1831   1.105   .     S
C1798  O1859   1.414   .     S
C1799  H1834   1.114   .     S
C1799  H1832   1.108   .     S
C1799  O1861   1.410   .     S
C1799  H1833   1.106   .     S
C1800  I1841   2.147   .     S
C1801  C794    1.409   1_556 S
C1801  I1952   2.129   .     S
C1802  O1853   1.389   .     S
C1802  C1144   1.390   1_565 S
C1803  O1854   1.387   .     S
C1804  O1855   1.383   .     S
H1805  C1127   1.109   1_565 S
H1814  C1132   1.106   1_565 S
H1836  C798    1.112   1_556 S
N1847  Zn1869  2.020   .     S
N1848  Zn1870  2.020   .     S
O1849  Zn1869  2.002   .     S
O1860  Zn1870  2.002   .     S
O1862  Zn1870  2.022   .     S
O1863  Zn1869  2.022   .     S
O1864  Zn1869  1.974   .     S
O1865  Zn1870  1.974   .     S
O1866  Zn1870  1.959   .     S
O1867  Zn1869  1.959   .     S
C1871  O1959   1.296   .     A
C1871  C1874   1.445   .     S
C1871  O1972   1.291   .     A
C1872  C1874   1.401   .     A
C1872  O1966   1.382   .     S
C1872  C1253   1.389   1_565 S
C1873  C1913   1.405   .     A
C1873  C1882   1.446   .     S
C1873  C1914   1.408   .     A
C1874  C1912   1.405   .     A
C1875  N1958   1.369   .     A
C1875  O1967   1.384   .     S
C1875  C1657   1.440   1_655 S
C1876  O1968   1.380   .     S
C1876  N1957   1.371   .     A
C1877  O1969   1.387   .     S
C1877  N1957   1.374   .     A
C1878  O1971   1.378   .     S
C1878  N1958   1.367   .     A
C1878  C1656   1.428   1_655 S
C1879  O1976   1.300   .     A
C1879  C1881   1.476   .     S
C1879  O1974   1.300   .     A
C1880  O1977   1.293   .     A
C1880  C1883   1.471   .     S
C1880  O1975   1.305   .     A
C1881  C1888   1.395   .     A
C1881  C1886   1.410   .     A
C1882  O1973   1.295   .     A
C1882  O1970   1.292   .     A
C1883  C1889   1.397   .     A
C1883  C1887   1.406   .     A
C1884  C1886   1.408   .     A
C1884  O1978   1.381   .     S
C1884  C1892   1.419   .     A
C1885  C1894   1.421   .     A
C1885  C1887   1.404   .     A
C1885  O1960   1.382   .     S
C1886  I1956   2.122   .     S
C1887  I1955   2.123   .     S
C1888  I1954   2.135   .     S
C1888  C1890   1.406   .     A
C1889  C1891   1.392   .     A
C1889  I1953   2.140   .     S
C1890  C1895   1.410   .     A
C1890  C1892   1.418   .     A
C1891  C1896   1.412   .     A
C1891  C1894   1.417   .     A
C1892  C920    1.422   1_556 S
C1893  C1910   1.408   .     A
C1893  C1896   1.420   .     A
C1893  O1961   1.385   .     S
C1895  C1904   1.420   .     A
C1895  C906    1.395   1_556 S
C1897  H1926   1.113   .     S
C1897  O1978   1.414   .     S
C1897  H1937   1.113   .     S
C1898  H1947   1.109   .     S
C1898  O1960   1.414   .     S
C1898  H1945   1.113   .     S
C1899  H1948   1.113   .     S
C1899  H1949   1.108   .     S
C1899  O1961   1.411   .     S
C1899  H1950   1.113   .     S
C1900  H1918   1.108   .     S
C1900  H1917   1.108   .     S
C1900  O1962   1.412   .     S
C1900  H1916   1.114   .     S
C1901  H1919   1.109   .     S
C1901  O1963   1.415   .     S
C1901  H1921   1.115   .     S
C1901  H1260   1.106   1_565 S
C1902  O1964   1.415   .     S
C1902  H1922   1.108   .     S
C1902  H1923   1.114   .     S
C1903  H1925   1.113   .     S
C1903  H1928   1.114   .     S
C1903  O1965   1.410   .     S
C1903  H1927   1.107   .     S
C1904  C1911   1.406   .     A
C1904  O1962   1.382   .     S
C1905  O1966   1.409   .     S
C1905  H1929   1.108   .     S
C1905  H1930   1.113   .     S
C1905  H1931   1.113   .     S
C1906  O1967   1.414   .     S
C1906  H1934   1.109   .     S
C1906  H1712   1.105   1_655 S
C1906  H1713   1.108   1_655 S
C1907  H1938   1.108   .     S
C1907  H1935   1.106   .     S
C1907  O1968   1.411   .     S
C1907  H1936   1.110   .     S
C1908  H1940   1.113   .     S
C1908  H1939   1.106   .     S
C1908  H1941   1.105   .     S
C1908  O1969   1.414   .     S
C1909  H1944   1.114   .     S
C1909  H1942   1.108   .     S
C1909  O1971   1.410   .     S
C1909  H1943   1.106   .     S
C1910  I1951   2.147   .     S
C1911  C904    1.409   1_556 S
C1911  I1732   2.129   1_655 S
C1912  O1963   1.389   .     S
C1912  C1254   1.390   1_565 S
C1913  O1964   1.387   .     S
C1914  O1965   1.383   .     S
H1915  C1237   1.109   1_565 S
H1924  C1242   1.106   1_565 S
H1946  C908    1.112   1_556 S
N1957  Zn1979  2.020   .     S
N1958  Zn1980  2.020   .     S
O1959  Zn1979  2.002   .     S
O1970  Zn1980  2.002   .     S
O1972  Zn1980  2.022   .     S
O1973  Zn1979  2.022   .     S
O1974  Zn1979  1.974   .     S
O1975  Zn1980  1.974   .     S
O1976  Zn1980  1.959   .     S
O1977  Zn1979  1.959   .     S
