data_str_m2_o2_o10_pcu_sym.76
_audit_creation_date              2020-01-03
_audit_creation_method            'Materials Studio'
_symmetry_space_group_name_H-M    'P1'
_symmetry_Int_Tables_number       1
_symmetry_cell_setting            triclinic
loop_
_symmetry_equiv_pos_as_xyz
  x,y,z
_cell_length_a                    26.1648
_cell_length_b                    30.2285
_cell_length_c                    27.8572
_cell_angle_alpha                 89.1953
_cell_angle_beta                  97.4535
_cell_angle_gamma                 91.2593
loop_
_atom_site_label
_atom_site_type_symbol
_atom_site_fract_x
_atom_site_fract_y
_atom_site_fract_z
_atom_site_U_iso_or_equiv
_atom_site_adp_type
_atom_site_occupancy
C1     C     0.16698   0.16498   0.25034   0.00000  Uiso   1.00
C2     C     0.18648   0.28495   0.44819   0.00000  Uiso   1.00
C3     C     0.16876   0.24848   0.02766   0.00000  Uiso   1.00
C4     C     0.16793   0.24796   0.47278   0.00000  Uiso   1.00
C5     C     0.06800   0.24963   0.23770   0.00000  Uiso   1.00
C6     C     0.26534   0.24993   0.26233   0.00000  Uiso   1.00
C7     C     0.01282   0.24880   0.23092   0.00000  Uiso   1.00
C8     C     0.32056   0.25002   0.26919   0.00000  Uiso   1.00
C9     C     0.19022   0.04576   0.28740   0.00000  Uiso   1.00
C10    C     0.13549   0.45245   0.27765   0.00000  Uiso   1.00
C11    C     0.19157   0.09175   0.28953   0.00000  Uiso   1.00
C12    C     0.16573   0.33496   0.24964   0.00000  Uiso   1.00
C13    C     0.13499   0.40642   0.27904   0.00000  Uiso   1.00
C14    C     0.16621   0.11654   0.25060   0.00000  Uiso   1.00
C15    C     0.16431   0.38330   0.24890   0.00000  Uiso   1.00
C16    C     0.13941   0.09471   0.21056   0.00000  Uiso   1.00
C17    C     0.19332   0.40670   0.21768   0.00000  Uiso   1.00
C18    C     0.13735   0.04850   0.20853   0.00000  Uiso   1.00
C19    C     0.19461   0.45300   0.21665   0.00000  Uiso   1.00
C20    C     0.16385   0.02413   0.24721   0.00000  Uiso   1.00
C21    C     0.16486   0.47575   0.24680   0.00000  Uiso   1.00
C22    C     0.22085   0.11246   0.33110   0.00000  Uiso   1.00
C23    C     0.21168   0.26505   0.05913   0.00000  Uiso   1.00
C24    C     0.10265   0.38386   0.31031   0.00000  Uiso   1.00
C25    C     0.10717   0.02619   0.16646   0.00000  Uiso   1.00
C26    C     0.22765   0.47703   0.18489   0.00000  Uiso   1.00
C27    C     0.26195   0.27370   0.04013   0.00000  Uiso   1.00
C28    C     0.13481   0.16908   0.46838   0.00000  Uiso   1.00
C29    C     0.24224   0.29913   0.13822   0.00000  Uiso   1.00
C30    C     0.10933   0.18522   0.36337   0.00000  Uiso   1.00
C31    C     0.14735   0.21170   0.44421   0.00000  Uiso   1.00
C32    C     0.20691   0.26984   0.10925   0.00000  Uiso   1.00
C33    C     0.14269   0.21573   0.39271   0.00000  Uiso   1.00
C34    C     0.12621   0.23222   0.09963   0.00000  Uiso   1.00
C35    C     0.18804   0.28433   0.39794   0.00000  Uiso   1.00
C36    C     0.12529   0.23356   0.04904   0.00000  Uiso   1.00
Cu37   Cu    0.16667   0.25000   0.29822   0.00000  Uiso   1.00
Cu38   Cu    0.16667   0.25001   0.20179   0.00000  Uiso   1.00
H39    H     0.32651   0.24714   0.19412   0.00000  Uiso   1.00
H40    H     0.20097   0.31415   0.46798   0.00000  Uiso   1.00
H41    H     0.10332   0.49041   0.16542   0.00000  Uiso   1.00
H42    H     0.23085   0.01285   0.18527   0.00000  Uiso   1.00
H43    H     0.26909   0.25886   0.00648   0.00000  Uiso   1.00
H44    H     0.15345   0.16152   0.00456   0.00000  Uiso   1.00
H45    H     0.00693   0.25134   0.30601   0.00000  Uiso   1.00
H46    H     0.21033   0.02654   0.31689   0.00000  Uiso   1.00
H47    H     0.11267   0.47040   0.30047   0.00000  Uiso   1.00
H48    H     0.11935   0.11396   0.18111   0.00000  Uiso   1.00
H49    H     0.21595   0.38867   0.19490   0.00000  Uiso   1.00
H50    H     0.09349   0.21814   0.11490   0.00000  Uiso   1.00
H51    H     0.20516   0.31218   0.38067   0.00000  Uiso   1.00
H52    H     0.09080   0.22194   0.02670   0.00000  Uiso   1.00
N53    N     0.16667   0.25001   0.12935   0.00000  Uiso   1.00
N54    N     0.16667   0.24999   0.37066   0.00000  Uiso   1.00
N55    N     0.24428   0.12904   0.36440   0.00000  Uiso   1.00
N56    N     0.07674   0.36576   0.33533   0.00000  Uiso   1.00
N57    N     0.27064   0.32304   0.16087   0.00000  Uiso   1.00
N58    N     0.08208   0.16076   0.34023   0.00000  Uiso   1.00
O59    O     0.16667   0.18573   0.29072   0.00000  Uiso   1.00
O60    O     0.25201   0.45705   0.15787   0.00000  Uiso   1.00
O61    O     0.29626   0.29663   0.06160   0.00000  Uiso   1.00
O62    O     0.10398   0.14197   0.44880   0.00000  Uiso   1.00
O63    O     0.16666   0.31428   0.20929   0.00000  Uiso   1.00
O64    O     0.16667   0.18573   0.20928   0.00000  Uiso   1.00
O65    O     0.16666   0.31427   0.29072   0.00000  Uiso   1.00
O66    O     0.09161   0.25000   0.28132   0.00000  Uiso   1.00
O67    O     0.24172   0.25001   0.21868   0.00000  Uiso   1.00
O68    O     0.09161   0.25000   0.19989   0.00000  Uiso   1.00
O69    O     0.24172   0.25000   0.30012   0.00000  Uiso   1.00
O70    O     0.08597   0.04756   0.13231   0.00000  Uiso   1.00
C71    C     0.50031   0.16498   0.25034   0.00000  Uiso   1.00
C72    C     0.51981   0.28495   0.44819   0.00000  Uiso   1.00
C73    C     0.50209   0.24848   0.02766   0.00000  Uiso   1.00
C74    C     0.50127   0.24796   0.47278   0.00000  Uiso   1.00
C75    C     0.40134   0.24963   0.23770   0.00000  Uiso   1.00
C76    C     0.59868   0.24993   0.26233   0.00000  Uiso   1.00
C77    C     0.34615   0.24880   0.23092   0.00000  Uiso   1.00
C78    C     0.65390   0.25002   0.26919   0.00000  Uiso   1.00
C79    C     0.52355   0.04576   0.28740   0.00000  Uiso   1.00
C80    C     0.46883   0.45245   0.27765   0.00000  Uiso   1.00
C81    C     0.52490   0.09175   0.28953   0.00000  Uiso   1.00
C82    C     0.49907   0.33496   0.24964   0.00000  Uiso   1.00
C83    C     0.46832   0.40642   0.27904   0.00000  Uiso   1.00
C84    C     0.49954   0.11654   0.25060   0.00000  Uiso   1.00
C85    C     0.49764   0.38330   0.24890   0.00000  Uiso   1.00
C86    C     0.47274   0.09471   0.21056   0.00000  Uiso   1.00
C87    C     0.52665   0.40670   0.21768   0.00000  Uiso   1.00
C88    C     0.47069   0.04850   0.20853   0.00000  Uiso   1.00
C89    C     0.52794   0.45300   0.21665   0.00000  Uiso   1.00
C90    C     0.49718   0.02413   0.24721   0.00000  Uiso   1.00
C91    C     0.49820   0.47575   0.24680   0.00000  Uiso   1.00
C92    C     0.55418   0.11246   0.33110   0.00000  Uiso   1.00
C93    C     0.54501   0.26505   0.05913   0.00000  Uiso   1.00
C94    C     0.43598   0.38386   0.31031   0.00000  Uiso   1.00
C95    C     0.44051   0.02619   0.16646   0.00000  Uiso   1.00
C96    C     0.56099   0.47703   0.18489   0.00000  Uiso   1.00
C97    C     0.59528   0.27370   0.04013   0.00000  Uiso   1.00
C98    C     0.46815   0.16908   0.46838   0.00000  Uiso   1.00
C99    C     0.57557   0.29913   0.13822   0.00000  Uiso   1.00
C100   C     0.44266   0.18522   0.36337   0.00000  Uiso   1.00
C101   C     0.48069   0.21170   0.44421   0.00000  Uiso   1.00
C102   C     0.54024   0.26984   0.10925   0.00000  Uiso   1.00
C103   C     0.47602   0.21573   0.39271   0.00000  Uiso   1.00
C104   C     0.45954   0.23222   0.09963   0.00000  Uiso   1.00
C105   C     0.52138   0.28433   0.39794   0.00000  Uiso   1.00
C106   C     0.45862   0.23356   0.04904   0.00000  Uiso   1.00
Cu107  Cu    0.50000   0.25000   0.29822   0.00000  Uiso   1.00
Cu108  Cu    0.50000   0.25001   0.20179   0.00000  Uiso   1.00
H109   H     0.65985   0.24714   0.19412   0.00000  Uiso   1.00
H110   H     0.53431   0.31415   0.46798   0.00000  Uiso   1.00
H111   H     0.43665   0.49041   0.16542   0.00000  Uiso   1.00
H112   H     0.56419   0.01285   0.18527   0.00000  Uiso   1.00
H113   H     0.60242   0.25886   0.00648   0.00000  Uiso   1.00
H114   H     0.48678   0.16152   0.00456   0.00000  Uiso   1.00
H115   H     0.34026   0.25134   0.30601   0.00000  Uiso   1.00
H116   H     0.54366   0.02654   0.31689   0.00000  Uiso   1.00
H117   H     0.44600   0.47040   0.30047   0.00000  Uiso   1.00
H118   H     0.45268   0.11396   0.18111   0.00000  Uiso   1.00
H119   H     0.54928   0.38867   0.19490   0.00000  Uiso   1.00
H120   H     0.42682   0.21814   0.11490   0.00000  Uiso   1.00
H121   H     0.53849   0.31218   0.38067   0.00000  Uiso   1.00
H122   H     0.42414   0.22194   0.02670   0.00000  Uiso   1.00
N123   N     0.50000   0.25001   0.12935   0.00000  Uiso   1.00
N124   N     0.50000   0.24999   0.37066   0.00000  Uiso   1.00
N125   N     0.57762   0.12904   0.36440   0.00000  Uiso   1.00
N126   N     0.41008   0.36576   0.33533   0.00000  Uiso   1.00
N127   N     0.60398   0.32304   0.16087   0.00000  Uiso   1.00
N128   N     0.41541   0.16076   0.34023   0.00000  Uiso   1.00
O129   O     0.50000   0.18573   0.29072   0.00000  Uiso   1.00
O130   O     0.58534   0.45705   0.15787   0.00000  Uiso   1.00
O131   O     0.62959   0.29663   0.06160   0.00000  Uiso   1.00
O132   O     0.43731   0.14197   0.44880   0.00000  Uiso   1.00
O133   O     0.50000   0.31428   0.20929   0.00000  Uiso   1.00
O134   O     0.50000   0.18573   0.20928   0.00000  Uiso   1.00
O135   O     0.50000   0.31427   0.29072   0.00000  Uiso   1.00
O136   O     0.42495   0.25000   0.28132   0.00000  Uiso   1.00
O137   O     0.57505   0.25001   0.21868   0.00000  Uiso   1.00
O138   O     0.42495   0.25000   0.19989   0.00000  Uiso   1.00
O139   O     0.57505   0.25000   0.30012   0.00000  Uiso   1.00
O140   O     0.41931   0.04756   0.13231   0.00000  Uiso   1.00
C141   C     0.83364   0.16498   0.25034   0.00000  Uiso   1.00
C142   C     0.85315   0.28495   0.44819   0.00000  Uiso   1.00
C143   C     0.83542   0.24848   0.02766   0.00000  Uiso   1.00
C144   C     0.83460   0.24796   0.47278   0.00000  Uiso   1.00
C145   C     0.73467   0.24963   0.23770   0.00000  Uiso   1.00
C146   C     0.93201   0.24993   0.26233   0.00000  Uiso   1.00
C147   C     0.67948   0.24880   0.23092   0.00000  Uiso   1.00
C148   C     0.98723   0.25002   0.26919   0.00000  Uiso   1.00
C149   C     0.85689   0.04576   0.28740   0.00000  Uiso   1.00
C150   C     0.80216   0.45245   0.27765   0.00000  Uiso   1.00
C151   C     0.85823   0.09175   0.28953   0.00000  Uiso   1.00
C152   C     0.83240   0.33496   0.24964   0.00000  Uiso   1.00
C153   C     0.80166   0.40642   0.27904   0.00000  Uiso   1.00
C154   C     0.83287   0.11654   0.25060   0.00000  Uiso   1.00
C155   C     0.83097   0.38330   0.24890   0.00000  Uiso   1.00
C156   C     0.80607   0.09471   0.21056   0.00000  Uiso   1.00
C157   C     0.85998   0.40670   0.21768   0.00000  Uiso   1.00
C158   C     0.80402   0.04850   0.20853   0.00000  Uiso   1.00
C159   C     0.86128   0.45300   0.21665   0.00000  Uiso   1.00
C160   C     0.83051   0.02413   0.24721   0.00000  Uiso   1.00
C161   C     0.83153   0.47575   0.24680   0.00000  Uiso   1.00
C162   C     0.88751   0.11246   0.33110   0.00000  Uiso   1.00
C163   C     0.87834   0.26505   0.05913   0.00000  Uiso   1.00
C164   C     0.76932   0.38386   0.31031   0.00000  Uiso   1.00
C165   C     0.77384   0.02619   0.16646   0.00000  Uiso   1.00
C166   C     0.89432   0.47703   0.18489   0.00000  Uiso   1.00
C167   C     0.92861   0.27370   0.04013   0.00000  Uiso   1.00
C168   C     0.80148   0.16908   0.46838   0.00000  Uiso   1.00
C169   C     0.90890   0.29913   0.13822   0.00000  Uiso   1.00
C170   C     0.77600   0.18522   0.36337   0.00000  Uiso   1.00
C171   C     0.81402   0.21170   0.44421   0.00000  Uiso   1.00
C172   C     0.87357   0.26984   0.10925   0.00000  Uiso   1.00
C173   C     0.80936   0.21573   0.39271   0.00000  Uiso   1.00
C174   C     0.79288   0.23222   0.09963   0.00000  Uiso   1.00
C175   C     0.85471   0.28433   0.39794   0.00000  Uiso   1.00
C176   C     0.79196   0.23356   0.04904   0.00000  Uiso   1.00
Cu177  Cu    0.83333   0.25000   0.29822   0.00000  Uiso   1.00
Cu178  Cu    0.83333   0.25001   0.20179   0.00000  Uiso   1.00
H179   H     0.99318   0.24714   0.19412   0.00000  Uiso   1.00
H180   H     0.86764   0.31415   0.46798   0.00000  Uiso   1.00
H181   H     0.76998   0.49041   0.16542   0.00000  Uiso   1.00
H182   H     0.89752   0.01285   0.18527   0.00000  Uiso   1.00
H183   H     0.93575   0.25886   0.00648   0.00000  Uiso   1.00
H184   H     0.82011   0.16152   0.00456   0.00000  Uiso   1.00
H185   H     0.67360   0.25134   0.30601   0.00000  Uiso   1.00
H186   H     0.87700   0.02654   0.31689   0.00000  Uiso   1.00
H187   H     0.77933   0.47040   0.30047   0.00000  Uiso   1.00
H188   H     0.78601   0.11396   0.18111   0.00000  Uiso   1.00
H189   H     0.88262   0.38867   0.19490   0.00000  Uiso   1.00
H190   H     0.76016   0.21814   0.11490   0.00000  Uiso   1.00
H191   H     0.87182   0.31218   0.38067   0.00000  Uiso   1.00
H192   H     0.75747   0.22194   0.02670   0.00000  Uiso   1.00
N193   N     0.83333   0.25001   0.12935   0.00000  Uiso   1.00
N194   N     0.83333   0.24999   0.37066   0.00000  Uiso   1.00
N195   N     0.91095   0.12904   0.36440   0.00000  Uiso   1.00
N196   N     0.74341   0.36576   0.33533   0.00000  Uiso   1.00
N197   N     0.93731   0.32304   0.16087   0.00000  Uiso   1.00
N198   N     0.74875   0.16076   0.34023   0.00000  Uiso   1.00
O199   O     0.83334   0.18573   0.29072   0.00000  Uiso   1.00
O200   O     0.91868   0.45705   0.15787   0.00000  Uiso   1.00
O201   O     0.96293   0.29663   0.06160   0.00000  Uiso   1.00
O202   O     0.77065   0.14197   0.44880   0.00000  Uiso   1.00
O203   O     0.83333   0.31428   0.20929   0.00000  Uiso   1.00
O204   O     0.83334   0.18573   0.20928   0.00000  Uiso   1.00
O205   O     0.83333   0.31427   0.29072   0.00000  Uiso   1.00
O206   O     0.75828   0.25000   0.28132   0.00000  Uiso   1.00
O207   O     0.90839   0.25001   0.21868   0.00000  Uiso   1.00
O208   O     0.75828   0.25000   0.19989   0.00000  Uiso   1.00
O209   O     0.90839   0.25000   0.30012   0.00000  Uiso   1.00
O210   O     0.75264   0.04756   0.13231   0.00000  Uiso   1.00
C211   C     0.16698   0.66498   0.25034   0.00000  Uiso   1.00
C212   C     0.18648   0.78495   0.44819   0.00000  Uiso   1.00
C213   C     0.16876   0.74848   0.02766   0.00000  Uiso   1.00
C214   C     0.16793   0.74796   0.47278   0.00000  Uiso   1.00
C215   C     0.06800   0.74963   0.23770   0.00000  Uiso   1.00
C216   C     0.26534   0.74993   0.26233   0.00000  Uiso   1.00
C217   C     0.01282   0.74880   0.23092   0.00000  Uiso   1.00
C218   C     0.32056   0.75002   0.26919   0.00000  Uiso   1.00
C219   C     0.19022   0.54576   0.28740   0.00000  Uiso   1.00
C220   C     0.13549   0.95245   0.27765   0.00000  Uiso   1.00
C221   C     0.19157   0.59175   0.28953   0.00000  Uiso   1.00
C222   C     0.16573   0.83496   0.24964   0.00000  Uiso   1.00
C223   C     0.13499   0.90642   0.27904   0.00000  Uiso   1.00
C224   C     0.16621   0.61654   0.25060   0.00000  Uiso   1.00
C225   C     0.16431   0.88330   0.24890   0.00000  Uiso   1.00
C226   C     0.13941   0.59471   0.21056   0.00000  Uiso   1.00
C227   C     0.19332   0.90670   0.21768   0.00000  Uiso   1.00
C228   C     0.13735   0.54850   0.20853   0.00000  Uiso   1.00
C229   C     0.19461   0.95300   0.21665   0.00000  Uiso   1.00
C230   C     0.16385   0.52413   0.24721   0.00000  Uiso   1.00
C231   C     0.16486   0.97575   0.24680   0.00000  Uiso   1.00
C232   C     0.22085   0.61246   0.33110   0.00000  Uiso   1.00
C233   C     0.21168   0.76505   0.05913   0.00000  Uiso   1.00
C234   C     0.10265   0.88386   0.31031   0.00000  Uiso   1.00
C235   C     0.10717   0.52619   0.16646   0.00000  Uiso   1.00
C236   C     0.22765   0.97703   0.18489   0.00000  Uiso   1.00
C237   C     0.26195   0.77370   0.04013   0.00000  Uiso   1.00
C238   C     0.13481   0.66908   0.46838   0.00000  Uiso   1.00
C239   C     0.24224   0.79913   0.13822   0.00000  Uiso   1.00
C240   C     0.10933   0.68522   0.36337   0.00000  Uiso   1.00
C241   C     0.14735   0.71170   0.44421   0.00000  Uiso   1.00
C242   C     0.20691   0.76984   0.10925   0.00000  Uiso   1.00
C243   C     0.14269   0.71573   0.39271   0.00000  Uiso   1.00
C244   C     0.12621   0.73222   0.09963   0.00000  Uiso   1.00
C245   C     0.18804   0.78433   0.39794   0.00000  Uiso   1.00
C246   C     0.12529   0.73356   0.04904   0.00000  Uiso   1.00
Cu247  Cu    0.16667   0.75000   0.29822   0.00000  Uiso   1.00
Cu248  Cu    0.16667   0.75001   0.20179   0.00000  Uiso   1.00
H249   H     0.32651   0.74714   0.19412   0.00000  Uiso   1.00
H250   H     0.20097   0.81415   0.46798   0.00000  Uiso   1.00
H251   H     0.10332   0.99041   0.16542   0.00000  Uiso   1.00
H252   H     0.23085   0.51285   0.18527   0.00000  Uiso   1.00
H253   H     0.26909   0.75886   0.00648   0.00000  Uiso   1.00
H254   H     0.15345   0.66152   0.00456   0.00000  Uiso   1.00
H255   H     0.00693   0.75134   0.30601   0.00000  Uiso   1.00
H256   H     0.21033   0.52654   0.31689   0.00000  Uiso   1.00
H257   H     0.11267   0.97040   0.30047   0.00000  Uiso   1.00
H258   H     0.11935   0.61396   0.18111   0.00000  Uiso   1.00
H259   H     0.21595   0.88867   0.19490   0.00000  Uiso   1.00
H260   H     0.09349   0.71814   0.11490   0.00000  Uiso   1.00
H261   H     0.20516   0.81218   0.38067   0.00000  Uiso   1.00
H262   H     0.09080   0.72194   0.02670   0.00000  Uiso   1.00
N263   N     0.16667   0.75001   0.12935   0.00000  Uiso   1.00
N264   N     0.16667   0.74999   0.37066   0.00000  Uiso   1.00
N265   N     0.24428   0.62904   0.36440   0.00000  Uiso   1.00
N266   N     0.07674   0.86576   0.33533   0.00000  Uiso   1.00
N267   N     0.27064   0.82304   0.16087   0.00000  Uiso   1.00
N268   N     0.08208   0.66076   0.34023   0.00000  Uiso   1.00
O269   O     0.16667   0.68573   0.29072   0.00000  Uiso   1.00
O270   O     0.25201   0.95705   0.15787   0.00000  Uiso   1.00
O271   O     0.29626   0.79663   0.06160   0.00000  Uiso   1.00
O272   O     0.10398   0.64197   0.44880   0.00000  Uiso   1.00
O273   O     0.16666   0.81428   0.20929   0.00000  Uiso   1.00
O274   O     0.16667   0.68573   0.20928   0.00000  Uiso   1.00
O275   O     0.16666   0.81427   0.29072   0.00000  Uiso   1.00
O276   O     0.09161   0.75000   0.28132   0.00000  Uiso   1.00
O277   O     0.24172   0.75001   0.21868   0.00000  Uiso   1.00
O278   O     0.09161   0.75000   0.19989   0.00000  Uiso   1.00
O279   O     0.24172   0.75000   0.30012   0.00000  Uiso   1.00
O280   O     0.08597   0.54756   0.13231   0.00000  Uiso   1.00
C281   C     0.50031   0.66498   0.25034   0.00000  Uiso   1.00
C282   C     0.51981   0.78495   0.44819   0.00000  Uiso   1.00
C283   C     0.50209   0.74848   0.02766   0.00000  Uiso   1.00
C284   C     0.50127   0.74796   0.47278   0.00000  Uiso   1.00
C285   C     0.40134   0.74963   0.23770   0.00000  Uiso   1.00
C286   C     0.59868   0.74993   0.26233   0.00000  Uiso   1.00
C287   C     0.34615   0.74880   0.23092   0.00000  Uiso   1.00
C288   C     0.65390   0.75002   0.26919   0.00000  Uiso   1.00
C289   C     0.52355   0.54576   0.28740   0.00000  Uiso   1.00
C290   C     0.46883   0.95245   0.27765   0.00000  Uiso   1.00
C291   C     0.52490   0.59175   0.28953   0.00000  Uiso   1.00
C292   C     0.49907   0.83496   0.24964   0.00000  Uiso   1.00
C293   C     0.46832   0.90642   0.27904   0.00000  Uiso   1.00
C294   C     0.49954   0.61654   0.25060   0.00000  Uiso   1.00
C295   C     0.49764   0.88330   0.24890   0.00000  Uiso   1.00
C296   C     0.47274   0.59471   0.21056   0.00000  Uiso   1.00
C297   C     0.52665   0.90670   0.21768   0.00000  Uiso   1.00
C298   C     0.47069   0.54850   0.20853   0.00000  Uiso   1.00
C299   C     0.52794   0.95300   0.21665   0.00000  Uiso   1.00
C300   C     0.49718   0.52413   0.24721   0.00000  Uiso   1.00
C301   C     0.49820   0.97575   0.24680   0.00000  Uiso   1.00
C302   C     0.55418   0.61246   0.33110   0.00000  Uiso   1.00
C303   C     0.54501   0.76505   0.05913   0.00000  Uiso   1.00
C304   C     0.43598   0.88386   0.31031   0.00000  Uiso   1.00
C305   C     0.44051   0.52619   0.16646   0.00000  Uiso   1.00
C306   C     0.56099   0.97703   0.18489   0.00000  Uiso   1.00
C307   C     0.59528   0.77370   0.04013   0.00000  Uiso   1.00
C308   C     0.46815   0.66908   0.46838   0.00000  Uiso   1.00
C309   C     0.57557   0.79913   0.13822   0.00000  Uiso   1.00
C310   C     0.44266   0.68522   0.36337   0.00000  Uiso   1.00
C311   C     0.48069   0.71170   0.44421   0.00000  Uiso   1.00
C312   C     0.54024   0.76984   0.10925   0.00000  Uiso   1.00
C313   C     0.47602   0.71573   0.39271   0.00000  Uiso   1.00
C314   C     0.45954   0.73222   0.09963   0.00000  Uiso   1.00
C315   C     0.52138   0.78433   0.39794   0.00000  Uiso   1.00
C316   C     0.45862   0.73356   0.04904   0.00000  Uiso   1.00
Cu317  Cu    0.50000   0.75000   0.29822   0.00000  Uiso   1.00
Cu318  Cu    0.50000   0.75001   0.20179   0.00000  Uiso   1.00
H319   H     0.65985   0.74714   0.19412   0.00000  Uiso   1.00
H320   H     0.53431   0.81415   0.46798   0.00000  Uiso   1.00
H321   H     0.43665   0.99041   0.16542   0.00000  Uiso   1.00
H322   H     0.56419   0.51285   0.18527   0.00000  Uiso   1.00
H323   H     0.60242   0.75886   0.00648   0.00000  Uiso   1.00
H324   H     0.48678   0.66152   0.00456   0.00000  Uiso   1.00
H325   H     0.34026   0.75134   0.30601   0.00000  Uiso   1.00
H326   H     0.54366   0.52654   0.31689   0.00000  Uiso   1.00
H327   H     0.44600   0.97040   0.30047   0.00000  Uiso   1.00
H328   H     0.45268   0.61396   0.18111   0.00000  Uiso   1.00
H329   H     0.54928   0.88867   0.19490   0.00000  Uiso   1.00
H330   H     0.42682   0.71814   0.11490   0.00000  Uiso   1.00
H331   H     0.53849   0.81218   0.38067   0.00000  Uiso   1.00
H332   H     0.42414   0.72194   0.02670   0.00000  Uiso   1.00
N333   N     0.50000   0.75001   0.12935   0.00000  Uiso   1.00
N334   N     0.50000   0.74999   0.37066   0.00000  Uiso   1.00
N335   N     0.57762   0.62904   0.36440   0.00000  Uiso   1.00
N336   N     0.41008   0.86576   0.33533   0.00000  Uiso   1.00
N337   N     0.60398   0.82304   0.16087   0.00000  Uiso   1.00
N338   N     0.41541   0.66076   0.34023   0.00000  Uiso   1.00
O339   O     0.50000   0.68573   0.29072   0.00000  Uiso   1.00
O340   O     0.58534   0.95705   0.15787   0.00000  Uiso   1.00
O341   O     0.62959   0.79663   0.06160   0.00000  Uiso   1.00
O342   O     0.43731   0.64197   0.44880   0.00000  Uiso   1.00
O343   O     0.50000   0.81428   0.20929   0.00000  Uiso   1.00
O344   O     0.50000   0.68573   0.20928   0.00000  Uiso   1.00
O345   O     0.50000   0.81427   0.29072   0.00000  Uiso   1.00
O346   O     0.42495   0.75000   0.28132   0.00000  Uiso   1.00
O347   O     0.57505   0.75001   0.21868   0.00000  Uiso   1.00
O348   O     0.42495   0.75000   0.19989   0.00000  Uiso   1.00
O349   O     0.57505   0.75000   0.30012   0.00000  Uiso   1.00
O350   O     0.41931   0.54756   0.13231   0.00000  Uiso   1.00
C351   C     0.83364   0.66498   0.25034   0.00000  Uiso   1.00
C352   C     0.85315   0.78495   0.44819   0.00000  Uiso   1.00
C353   C     0.83542   0.74848   0.02766   0.00000  Uiso   1.00
C354   C     0.83460   0.74796   0.47278   0.00000  Uiso   1.00
C355   C     0.73467   0.74963   0.23770   0.00000  Uiso   1.00
C356   C     0.93201   0.74993   0.26233   0.00000  Uiso   1.00
C357   C     0.67948   0.74880   0.23092   0.00000  Uiso   1.00
C358   C     0.98723   0.75002   0.26919   0.00000  Uiso   1.00
C359   C     0.85689   0.54576   0.28740   0.00000  Uiso   1.00
C360   C     0.80216   0.95245   0.27765   0.00000  Uiso   1.00
C361   C     0.85823   0.59175   0.28953   0.00000  Uiso   1.00
C362   C     0.83240   0.83496   0.24964   0.00000  Uiso   1.00
C363   C     0.80166   0.90642   0.27904   0.00000  Uiso   1.00
C364   C     0.83287   0.61654   0.25060   0.00000  Uiso   1.00
C365   C     0.83097   0.88330   0.24890   0.00000  Uiso   1.00
C366   C     0.80607   0.59471   0.21056   0.00000  Uiso   1.00
C367   C     0.85998   0.90670   0.21768   0.00000  Uiso   1.00
C368   C     0.80402   0.54850   0.20853   0.00000  Uiso   1.00
C369   C     0.86128   0.95300   0.21665   0.00000  Uiso   1.00
C370   C     0.83051   0.52413   0.24721   0.00000  Uiso   1.00
C371   C     0.83153   0.97575   0.24680   0.00000  Uiso   1.00
C372   C     0.88751   0.61246   0.33110   0.00000  Uiso   1.00
C373   C     0.87834   0.76505   0.05913   0.00000  Uiso   1.00
C374   C     0.76932   0.88386   0.31031   0.00000  Uiso   1.00
C375   C     0.77384   0.52619   0.16646   0.00000  Uiso   1.00
C376   C     0.89432   0.97703   0.18489   0.00000  Uiso   1.00
C377   C     0.92861   0.77370   0.04013   0.00000  Uiso   1.00
C378   C     0.80148   0.66908   0.46838   0.00000  Uiso   1.00
C379   C     0.90890   0.79913   0.13822   0.00000  Uiso   1.00
C380   C     0.77600   0.68522   0.36337   0.00000  Uiso   1.00
C381   C     0.81402   0.71170   0.44421   0.00000  Uiso   1.00
C382   C     0.87357   0.76984   0.10925   0.00000  Uiso   1.00
C383   C     0.80936   0.71573   0.39271   0.00000  Uiso   1.00
C384   C     0.79288   0.73222   0.09963   0.00000  Uiso   1.00
C385   C     0.85471   0.78433   0.39794   0.00000  Uiso   1.00
C386   C     0.79196   0.73356   0.04904   0.00000  Uiso   1.00
Cu387  Cu    0.83333   0.75000   0.29822   0.00000  Uiso   1.00
Cu388  Cu    0.83333   0.75001   0.20179   0.00000  Uiso   1.00
H389   H     0.99318   0.74714   0.19412   0.00000  Uiso   1.00
H390   H     0.86764   0.81415   0.46798   0.00000  Uiso   1.00
H391   H     0.76998   0.99041   0.16542   0.00000  Uiso   1.00
H392   H     0.89752   0.51285   0.18527   0.00000  Uiso   1.00
H393   H     0.93575   0.75886   0.00648   0.00000  Uiso   1.00
H394   H     0.82011   0.66152   0.00456   0.00000  Uiso   1.00
H395   H     0.67360   0.75134   0.30601   0.00000  Uiso   1.00
H396   H     0.87700   0.52654   0.31689   0.00000  Uiso   1.00
H397   H     0.77933   0.97040   0.30047   0.00000  Uiso   1.00
H398   H     0.78601   0.61396   0.18111   0.00000  Uiso   1.00
H399   H     0.88262   0.88867   0.19490   0.00000  Uiso   1.00
H400   H     0.76016   0.71814   0.11490   0.00000  Uiso   1.00
H401   H     0.87182   0.81218   0.38067   0.00000  Uiso   1.00
H402   H     0.75747   0.72194   0.02670   0.00000  Uiso   1.00
N403   N     0.83333   0.75001   0.12935   0.00000  Uiso   1.00
N404   N     0.83333   0.74999   0.37066   0.00000  Uiso   1.00
N405   N     0.91095   0.62904   0.36440   0.00000  Uiso   1.00
N406   N     0.74341   0.86576   0.33533   0.00000  Uiso   1.00
N407   N     0.93731   0.82304   0.16087   0.00000  Uiso   1.00
N408   N     0.74875   0.66076   0.34023   0.00000  Uiso   1.00
O409   O     0.83334   0.68573   0.29072   0.00000  Uiso   1.00
O410   O     0.91868   0.95705   0.15787   0.00000  Uiso   1.00
O411   O     0.96293   0.79663   0.06160   0.00000  Uiso   1.00
O412   O     0.77065   0.64197   0.44880   0.00000  Uiso   1.00
O413   O     0.83333   0.81428   0.20929   0.00000  Uiso   1.00
O414   O     0.83334   0.68573   0.20928   0.00000  Uiso   1.00
O415   O     0.83333   0.81427   0.29072   0.00000  Uiso   1.00
O416   O     0.75828   0.75000   0.28132   0.00000  Uiso   1.00
O417   O     0.90839   0.75001   0.21868   0.00000  Uiso   1.00
O418   O     0.75828   0.75000   0.19989   0.00000  Uiso   1.00
O419   O     0.90839   0.75000   0.30012   0.00000  Uiso   1.00
O420   O     0.75264   0.54756   0.13231   0.00000  Uiso   1.00
C421   C     0.16698   0.16498   0.75034   0.00000  Uiso   1.00
C422   C     0.18648   0.28495   0.94819   0.00000  Uiso   1.00
C423   C     0.16876   0.24848   0.52766   0.00000  Uiso   1.00
C424   C     0.16793   0.24796   0.97278   0.00000  Uiso   1.00
C425   C     0.06800   0.24963   0.73770   0.00000  Uiso   1.00
C426   C     0.26534   0.24993   0.76233   0.00000  Uiso   1.00
C427   C     0.01282   0.24880   0.73092   0.00000  Uiso   1.00
C428   C     0.32056   0.25002   0.76919   0.00000  Uiso   1.00
C429   C     0.19022   0.04576   0.78740   0.00000  Uiso   1.00
C430   C     0.13549   0.45245   0.77765   0.00000  Uiso   1.00
C431   C     0.19157   0.09175   0.78953   0.00000  Uiso   1.00
C432   C     0.16573   0.33496   0.74964   0.00000  Uiso   1.00
C433   C     0.13499   0.40642   0.77904   0.00000  Uiso   1.00
C434   C     0.16621   0.11654   0.75060   0.00000  Uiso   1.00
C435   C     0.16431   0.38330   0.74890   0.00000  Uiso   1.00
C436   C     0.13941   0.09471   0.71056   0.00000  Uiso   1.00
C437   C     0.19332   0.40670   0.71768   0.00000  Uiso   1.00
C438   C     0.13735   0.04850   0.70853   0.00000  Uiso   1.00
C439   C     0.19461   0.45300   0.71665   0.00000  Uiso   1.00
C440   C     0.16385   0.02413   0.74721   0.00000  Uiso   1.00
C441   C     0.16486   0.47575   0.74680   0.00000  Uiso   1.00
C442   C     0.22085   0.11246   0.83110   0.00000  Uiso   1.00
C443   C     0.21168   0.26505   0.55913   0.00000  Uiso   1.00
C444   C     0.10265   0.38386   0.81031   0.00000  Uiso   1.00
C445   C     0.10717   0.02619   0.66646   0.00000  Uiso   1.00
C446   C     0.22765   0.47703   0.68489   0.00000  Uiso   1.00
C447   C     0.26195   0.27370   0.54013   0.00000  Uiso   1.00
C448   C     0.13481   0.16908   0.96838   0.00000  Uiso   1.00
C449   C     0.24224   0.29913   0.63822   0.00000  Uiso   1.00
C450   C     0.10933   0.18522   0.86337   0.00000  Uiso   1.00
C451   C     0.14735   0.21170   0.94421   0.00000  Uiso   1.00
C452   C     0.20691   0.26984   0.60925   0.00000  Uiso   1.00
C453   C     0.14269   0.21573   0.89271   0.00000  Uiso   1.00
C454   C     0.12621   0.23222   0.59963   0.00000  Uiso   1.00
C455   C     0.18804   0.28433   0.89794   0.00000  Uiso   1.00
C456   C     0.12529   0.23356   0.54904   0.00000  Uiso   1.00
Cu457  Cu    0.16667   0.25000   0.79822   0.00000  Uiso   1.00
Cu458  Cu    0.16667   0.25001   0.70179   0.00000  Uiso   1.00
H459   H     0.32651   0.24714   0.69412   0.00000  Uiso   1.00
H460   H     0.20097   0.31415   0.96798   0.00000  Uiso   1.00
H461   H     0.10332   0.49041   0.66542   0.00000  Uiso   1.00
H462   H     0.23085   0.01285   0.68527   0.00000  Uiso   1.00
H463   H     0.26909   0.25886   0.50648   0.00000  Uiso   1.00
H464   H     0.15345   0.16152   0.50456   0.00000  Uiso   1.00
H465   H     0.00693   0.25134   0.80601   0.00000  Uiso   1.00
H466   H     0.21033   0.02654   0.81689   0.00000  Uiso   1.00
H467   H     0.11267   0.47040   0.80047   0.00000  Uiso   1.00
H468   H     0.11935   0.11396   0.68111   0.00000  Uiso   1.00
H469   H     0.21595   0.38867   0.69490   0.00000  Uiso   1.00
H470   H     0.09349   0.21814   0.61490   0.00000  Uiso   1.00
H471   H     0.20516   0.31218   0.88067   0.00000  Uiso   1.00
H472   H     0.09080   0.22194   0.52670   0.00000  Uiso   1.00
N473   N     0.16667   0.25001   0.62935   0.00000  Uiso   1.00
N474   N     0.16667   0.24999   0.87066   0.00000  Uiso   1.00
N475   N     0.24428   0.12904   0.86440   0.00000  Uiso   1.00
N476   N     0.07674   0.36576   0.83533   0.00000  Uiso   1.00
N477   N     0.27064   0.32304   0.66087   0.00000  Uiso   1.00
N478   N     0.08208   0.16076   0.84023   0.00000  Uiso   1.00
O479   O     0.16667   0.18573   0.79072   0.00000  Uiso   1.00
O480   O     0.25201   0.45705   0.65787   0.00000  Uiso   1.00
O481   O     0.29626   0.29663   0.56160   0.00000  Uiso   1.00
O482   O     0.10398   0.14197   0.94880   0.00000  Uiso   1.00
O483   O     0.16666   0.31428   0.70929   0.00000  Uiso   1.00
O484   O     0.16667   0.18573   0.70928   0.00000  Uiso   1.00
O485   O     0.16666   0.31427   0.79072   0.00000  Uiso   1.00
O486   O     0.09161   0.25000   0.78132   0.00000  Uiso   1.00
O487   O     0.24172   0.25001   0.71868   0.00000  Uiso   1.00
O488   O     0.09161   0.25000   0.69989   0.00000  Uiso   1.00
O489   O     0.24172   0.25000   0.80012   0.00000  Uiso   1.00
O490   O     0.08597   0.04756   0.63231   0.00000  Uiso   1.00
C491   C     0.50031   0.16498   0.75034   0.00000  Uiso   1.00
C492   C     0.51981   0.28495   0.94819   0.00000  Uiso   1.00
C493   C     0.50209   0.24848   0.52766   0.00000  Uiso   1.00
C494   C     0.50127   0.24796   0.97278   0.00000  Uiso   1.00
C495   C     0.40134   0.24963   0.73770   0.00000  Uiso   1.00
C496   C     0.59868   0.24993   0.76233   0.00000  Uiso   1.00
C497   C     0.34615   0.24880   0.73092   0.00000  Uiso   1.00
C498   C     0.65390   0.25002   0.76919   0.00000  Uiso   1.00
C499   C     0.52355   0.04576   0.78740   0.00000  Uiso   1.00
C500   C     0.46883   0.45245   0.77765   0.00000  Uiso   1.00
C501   C     0.52490   0.09175   0.78953   0.00000  Uiso   1.00
C502   C     0.49907   0.33496   0.74964   0.00000  Uiso   1.00
C503   C     0.46832   0.40642   0.77904   0.00000  Uiso   1.00
C504   C     0.49954   0.11654   0.75060   0.00000  Uiso   1.00
C505   C     0.49764   0.38330   0.74890   0.00000  Uiso   1.00
C506   C     0.47274   0.09471   0.71056   0.00000  Uiso   1.00
C507   C     0.52665   0.40670   0.71768   0.00000  Uiso   1.00
C508   C     0.47069   0.04850   0.70853   0.00000  Uiso   1.00
C509   C     0.52794   0.45300   0.71665   0.00000  Uiso   1.00
C510   C     0.49718   0.02413   0.74721   0.00000  Uiso   1.00
C511   C     0.49820   0.47575   0.74680   0.00000  Uiso   1.00
C512   C     0.55418   0.11246   0.83110   0.00000  Uiso   1.00
C513   C     0.54501   0.26505   0.55913   0.00000  Uiso   1.00
C514   C     0.43598   0.38386   0.81031   0.00000  Uiso   1.00
C515   C     0.44051   0.02619   0.66646   0.00000  Uiso   1.00
C516   C     0.56099   0.47703   0.68489   0.00000  Uiso   1.00
C517   C     0.59528   0.27370   0.54013   0.00000  Uiso   1.00
C518   C     0.46815   0.16908   0.96838   0.00000  Uiso   1.00
C519   C     0.57557   0.29913   0.63822   0.00000  Uiso   1.00
C520   C     0.44266   0.18522   0.86337   0.00000  Uiso   1.00
C521   C     0.48069   0.21170   0.94421   0.00000  Uiso   1.00
C522   C     0.54024   0.26984   0.60925   0.00000  Uiso   1.00
C523   C     0.47602   0.21573   0.89271   0.00000  Uiso   1.00
C524   C     0.45954   0.23222   0.59963   0.00000  Uiso   1.00
C525   C     0.52138   0.28433   0.89794   0.00000  Uiso   1.00
C526   C     0.45862   0.23356   0.54904   0.00000  Uiso   1.00
Cu527  Cu    0.50000   0.25000   0.79822   0.00000  Uiso   1.00
Cu528  Cu    0.50000   0.25001   0.70179   0.00000  Uiso   1.00
H529   H     0.65985   0.24714   0.69412   0.00000  Uiso   1.00
H530   H     0.53431   0.31415   0.96798   0.00000  Uiso   1.00
H531   H     0.43665   0.49041   0.66542   0.00000  Uiso   1.00
H532   H     0.56419   0.01285   0.68527   0.00000  Uiso   1.00
H533   H     0.60242   0.25886   0.50648   0.00000  Uiso   1.00
H534   H     0.48678   0.16152   0.50456   0.00000  Uiso   1.00
H535   H     0.34026   0.25134   0.80601   0.00000  Uiso   1.00
H536   H     0.54366   0.02654   0.81689   0.00000  Uiso   1.00
H537   H     0.44600   0.47040   0.80047   0.00000  Uiso   1.00
H538   H     0.45268   0.11396   0.68111   0.00000  Uiso   1.00
H539   H     0.54928   0.38867   0.69490   0.00000  Uiso   1.00
H540   H     0.42682   0.21814   0.61490   0.00000  Uiso   1.00
H541   H     0.53849   0.31218   0.88067   0.00000  Uiso   1.00
H542   H     0.42414   0.22194   0.52670   0.00000  Uiso   1.00
N543   N     0.50000   0.25001   0.62935   0.00000  Uiso   1.00
N544   N     0.50000   0.24999   0.87066   0.00000  Uiso   1.00
N545   N     0.57762   0.12904   0.86440   0.00000  Uiso   1.00
N546   N     0.41008   0.36576   0.83533   0.00000  Uiso   1.00
N547   N     0.60398   0.32304   0.66087   0.00000  Uiso   1.00
N548   N     0.41541   0.16076   0.84023   0.00000  Uiso   1.00
O549   O     0.50000   0.18573   0.79072   0.00000  Uiso   1.00
O550   O     0.58534   0.45705   0.65787   0.00000  Uiso   1.00
O551   O     0.62959   0.29663   0.56160   0.00000  Uiso   1.00
O552   O     0.43731   0.14197   0.94880   0.00000  Uiso   1.00
O553   O     0.50000   0.31428   0.70929   0.00000  Uiso   1.00
O554   O     0.50000   0.18573   0.70928   0.00000  Uiso   1.00
O555   O     0.50000   0.31427   0.79072   0.00000  Uiso   1.00
O556   O     0.42495   0.25000   0.78132   0.00000  Uiso   1.00
O557   O     0.57505   0.25001   0.71868   0.00000  Uiso   1.00
O558   O     0.42495   0.25000   0.69989   0.00000  Uiso   1.00
O559   O     0.57505   0.25000   0.80012   0.00000  Uiso   1.00
O560   O     0.41931   0.04756   0.63231   0.00000  Uiso   1.00
C561   C     0.83364   0.16498   0.75034   0.00000  Uiso   1.00
C562   C     0.85315   0.28495   0.94819   0.00000  Uiso   1.00
C563   C     0.83542   0.24848   0.52766   0.00000  Uiso   1.00
C564   C     0.83460   0.24796   0.97278   0.00000  Uiso   1.00
C565   C     0.73467   0.24963   0.73770   0.00000  Uiso   1.00
C566   C     0.93201   0.24993   0.76233   0.00000  Uiso   1.00
C567   C     0.67948   0.24880   0.73092   0.00000  Uiso   1.00
C568   C     0.98723   0.25002   0.76919   0.00000  Uiso   1.00
C569   C     0.85689   0.04576   0.78740   0.00000  Uiso   1.00
C570   C     0.80216   0.45245   0.77765   0.00000  Uiso   1.00
C571   C     0.85823   0.09175   0.78953   0.00000  Uiso   1.00
C572   C     0.83240   0.33496   0.74964   0.00000  Uiso   1.00
C573   C     0.80166   0.40642   0.77904   0.00000  Uiso   1.00
C574   C     0.83287   0.11654   0.75060   0.00000  Uiso   1.00
C575   C     0.83097   0.38330   0.74890   0.00000  Uiso   1.00
C576   C     0.80607   0.09471   0.71056   0.00000  Uiso   1.00
C577   C     0.85998   0.40670   0.71768   0.00000  Uiso   1.00
C578   C     0.80402   0.04850   0.70853   0.00000  Uiso   1.00
C579   C     0.86128   0.45300   0.71665   0.00000  Uiso   1.00
C580   C     0.83051   0.02413   0.74721   0.00000  Uiso   1.00
C581   C     0.83153   0.47575   0.74680   0.00000  Uiso   1.00
C582   C     0.88751   0.11246   0.83110   0.00000  Uiso   1.00
C583   C     0.87834   0.26505   0.55913   0.00000  Uiso   1.00
C584   C     0.76932   0.38386   0.81031   0.00000  Uiso   1.00
C585   C     0.77384   0.02619   0.66646   0.00000  Uiso   1.00
C586   C     0.89432   0.47703   0.68489   0.00000  Uiso   1.00
C587   C     0.92861   0.27370   0.54013   0.00000  Uiso   1.00
C588   C     0.80148   0.16908   0.96838   0.00000  Uiso   1.00
C589   C     0.90890   0.29913   0.63822   0.00000  Uiso   1.00
C590   C     0.77600   0.18522   0.86337   0.00000  Uiso   1.00
C591   C     0.81402   0.21170   0.94421   0.00000  Uiso   1.00
C592   C     0.87357   0.26984   0.60925   0.00000  Uiso   1.00
C593   C     0.80936   0.21573   0.89271   0.00000  Uiso   1.00
C594   C     0.79288   0.23222   0.59963   0.00000  Uiso   1.00
C595   C     0.85471   0.28433   0.89794   0.00000  Uiso   1.00
C596   C     0.79196   0.23356   0.54904   0.00000  Uiso   1.00
Cu597  Cu    0.83333   0.25000   0.79822   0.00000  Uiso   1.00
Cu598  Cu    0.83333   0.25001   0.70179   0.00000  Uiso   1.00
H599   H     0.99318   0.24714   0.69412   0.00000  Uiso   1.00
H600   H     0.86764   0.31415   0.96798   0.00000  Uiso   1.00
H601   H     0.76998   0.49041   0.66542   0.00000  Uiso   1.00
H602   H     0.89752   0.01285   0.68527   0.00000  Uiso   1.00
H603   H     0.93575   0.25886   0.50648   0.00000  Uiso   1.00
H604   H     0.82011   0.16152   0.50456   0.00000  Uiso   1.00
H605   H     0.67360   0.25134   0.80601   0.00000  Uiso   1.00
H606   H     0.87700   0.02654   0.81689   0.00000  Uiso   1.00
H607   H     0.77933   0.47040   0.80047   0.00000  Uiso   1.00
H608   H     0.78601   0.11396   0.68111   0.00000  Uiso   1.00
H609   H     0.88262   0.38867   0.69490   0.00000  Uiso   1.00
H610   H     0.76016   0.21814   0.61490   0.00000  Uiso   1.00
H611   H     0.87182   0.31218   0.88067   0.00000  Uiso   1.00
H612   H     0.75747   0.22194   0.52670   0.00000  Uiso   1.00
N613   N     0.83333   0.25001   0.62935   0.00000  Uiso   1.00
N614   N     0.83333   0.24999   0.87066   0.00000  Uiso   1.00
N615   N     0.91095   0.12904   0.86440   0.00000  Uiso   1.00
N616   N     0.74341   0.36576   0.83533   0.00000  Uiso   1.00
N617   N     0.93731   0.32304   0.66087   0.00000  Uiso   1.00
N618   N     0.74875   0.16076   0.84023   0.00000  Uiso   1.00
O619   O     0.83334   0.18573   0.79072   0.00000  Uiso   1.00
O620   O     0.91868   0.45705   0.65787   0.00000  Uiso   1.00
O621   O     0.96293   0.29663   0.56160   0.00000  Uiso   1.00
O622   O     0.77065   0.14197   0.94880   0.00000  Uiso   1.00
O623   O     0.83333   0.31428   0.70929   0.00000  Uiso   1.00
O624   O     0.83334   0.18573   0.70928   0.00000  Uiso   1.00
O625   O     0.83333   0.31427   0.79072   0.00000  Uiso   1.00
O626   O     0.75828   0.25000   0.78132   0.00000  Uiso   1.00
O627   O     0.90839   0.25001   0.71868   0.00000  Uiso   1.00
O628   O     0.75828   0.25000   0.69989   0.00000  Uiso   1.00
O629   O     0.90839   0.25000   0.80012   0.00000  Uiso   1.00
O630   O     0.75264   0.04756   0.63231   0.00000  Uiso   1.00
C631   C     0.16698   0.66498   0.75034   0.00000  Uiso   1.00
C632   C     0.18648   0.78495   0.94819   0.00000  Uiso   1.00
C633   C     0.16876   0.74848   0.52766   0.00000  Uiso   1.00
C634   C     0.16793   0.74796   0.97278   0.00000  Uiso   1.00
C635   C     0.06800   0.74963   0.73770   0.00000  Uiso   1.00
C636   C     0.26534   0.74993   0.76233   0.00000  Uiso   1.00
C637   C     0.01282   0.74880   0.73092   0.00000  Uiso   1.00
C638   C     0.32056   0.75002   0.76919   0.00000  Uiso   1.00
C639   C     0.19022   0.54576   0.78740   0.00000  Uiso   1.00
C640   C     0.13549   0.95245   0.77765   0.00000  Uiso   1.00
C641   C     0.19157   0.59175   0.78953   0.00000  Uiso   1.00
C642   C     0.16573   0.83496   0.74964   0.00000  Uiso   1.00
C643   C     0.13499   0.90642   0.77904   0.00000  Uiso   1.00
C644   C     0.16621   0.61654   0.75060   0.00000  Uiso   1.00
C645   C     0.16431   0.88330   0.74890   0.00000  Uiso   1.00
C646   C     0.13941   0.59471   0.71056   0.00000  Uiso   1.00
C647   C     0.19332   0.90670   0.71768   0.00000  Uiso   1.00
C648   C     0.13735   0.54850   0.70853   0.00000  Uiso   1.00
C649   C     0.19461   0.95300   0.71665   0.00000  Uiso   1.00
C650   C     0.16385   0.52413   0.74721   0.00000  Uiso   1.00
C651   C     0.16486   0.97575   0.74680   0.00000  Uiso   1.00
C652   C     0.22085   0.61246   0.83110   0.00000  Uiso   1.00
C653   C     0.21168   0.76505   0.55913   0.00000  Uiso   1.00
C654   C     0.10265   0.88386   0.81031   0.00000  Uiso   1.00
C655   C     0.10717   0.52619   0.66646   0.00000  Uiso   1.00
C656   C     0.22765   0.97703   0.68489   0.00000  Uiso   1.00
C657   C     0.26195   0.77370   0.54013   0.00000  Uiso   1.00
C658   C     0.13481   0.66908   0.96838   0.00000  Uiso   1.00
C659   C     0.24224   0.79913   0.63822   0.00000  Uiso   1.00
C660   C     0.10933   0.68522   0.86337   0.00000  Uiso   1.00
C661   C     0.14735   0.71170   0.94421   0.00000  Uiso   1.00
C662   C     0.20691   0.76984   0.60925   0.00000  Uiso   1.00
C663   C     0.14269   0.71573   0.89271   0.00000  Uiso   1.00
C664   C     0.12621   0.73222   0.59963   0.00000  Uiso   1.00
C665   C     0.18804   0.78433   0.89794   0.00000  Uiso   1.00
C666   C     0.12529   0.73356   0.54904   0.00000  Uiso   1.00
Cu667  Cu    0.16667   0.75000   0.79822   0.00000  Uiso   1.00
Cu668  Cu    0.16667   0.75001   0.70179   0.00000  Uiso   1.00
H669   H     0.32651   0.74714   0.69412   0.00000  Uiso   1.00
H670   H     0.20097   0.81415   0.96798   0.00000  Uiso   1.00
H671   H     0.10332   0.99041   0.66542   0.00000  Uiso   1.00
H672   H     0.23085   0.51285   0.68527   0.00000  Uiso   1.00
H673   H     0.26909   0.75886   0.50648   0.00000  Uiso   1.00
H674   H     0.15345   0.66152   0.50456   0.00000  Uiso   1.00
H675   H     0.00693   0.75134   0.80601   0.00000  Uiso   1.00
H676   H     0.21033   0.52654   0.81689   0.00000  Uiso   1.00
H677   H     0.11267   0.97040   0.80047   0.00000  Uiso   1.00
H678   H     0.11935   0.61396   0.68111   0.00000  Uiso   1.00
H679   H     0.21595   0.88867   0.69490   0.00000  Uiso   1.00
H680   H     0.09349   0.71814   0.61490   0.00000  Uiso   1.00
H681   H     0.20516   0.81218   0.88067   0.00000  Uiso   1.00
H682   H     0.09080   0.72194   0.52670   0.00000  Uiso   1.00
N683   N     0.16667   0.75001   0.62935   0.00000  Uiso   1.00
N684   N     0.16667   0.74999   0.87066   0.00000  Uiso   1.00
N685   N     0.24428   0.62904   0.86440   0.00000  Uiso   1.00
N686   N     0.07674   0.86576   0.83533   0.00000  Uiso   1.00
N687   N     0.27064   0.82304   0.66087   0.00000  Uiso   1.00
N688   N     0.08208   0.66076   0.84023   0.00000  Uiso   1.00
O689   O     0.16667   0.68573   0.79072   0.00000  Uiso   1.00
O690   O     0.25201   0.95705   0.65787   0.00000  Uiso   1.00
O691   O     0.29626   0.79663   0.56160   0.00000  Uiso   1.00
O692   O     0.10398   0.64197   0.94880   0.00000  Uiso   1.00
O693   O     0.16666   0.81428   0.70929   0.00000  Uiso   1.00
O694   O     0.16667   0.68573   0.70928   0.00000  Uiso   1.00
O695   O     0.16666   0.81427   0.79072   0.00000  Uiso   1.00
O696   O     0.09161   0.75000   0.78132   0.00000  Uiso   1.00
O697   O     0.24172   0.75001   0.71868   0.00000  Uiso   1.00
O698   O     0.09161   0.75000   0.69989   0.00000  Uiso   1.00
O699   O     0.24172   0.75000   0.80012   0.00000  Uiso   1.00
O700   O     0.08597   0.54756   0.63231   0.00000  Uiso   1.00
C701   C     0.50031   0.66498   0.75034   0.00000  Uiso   1.00
C702   C     0.51981   0.78495   0.94819   0.00000  Uiso   1.00
C703   C     0.50209   0.74848   0.52766   0.00000  Uiso   1.00
C704   C     0.50127   0.74796   0.97278   0.00000  Uiso   1.00
C705   C     0.40134   0.74963   0.73770   0.00000  Uiso   1.00
C706   C     0.59868   0.74993   0.76233   0.00000  Uiso   1.00
C707   C     0.34615   0.74880   0.73092   0.00000  Uiso   1.00
C708   C     0.65390   0.75002   0.76919   0.00000  Uiso   1.00
C709   C     0.52355   0.54576   0.78740   0.00000  Uiso   1.00
C710   C     0.46883   0.95245   0.77765   0.00000  Uiso   1.00
C711   C     0.52490   0.59175   0.78953   0.00000  Uiso   1.00
C712   C     0.49907   0.83496   0.74964   0.00000  Uiso   1.00
C713   C     0.46832   0.90642   0.77904   0.00000  Uiso   1.00
C714   C     0.49954   0.61654   0.75060   0.00000  Uiso   1.00
C715   C     0.49764   0.88330   0.74890   0.00000  Uiso   1.00
C716   C     0.47274   0.59471   0.71056   0.00000  Uiso   1.00
C717   C     0.52665   0.90670   0.71768   0.00000  Uiso   1.00
C718   C     0.47069   0.54850   0.70853   0.00000  Uiso   1.00
C719   C     0.52794   0.95300   0.71665   0.00000  Uiso   1.00
C720   C     0.49718   0.52413   0.74721   0.00000  Uiso   1.00
C721   C     0.49820   0.97575   0.74680   0.00000  Uiso   1.00
C722   C     0.55418   0.61246   0.83110   0.00000  Uiso   1.00
C723   C     0.54501   0.76505   0.55913   0.00000  Uiso   1.00
C724   C     0.43598   0.88386   0.81031   0.00000  Uiso   1.00
C725   C     0.44051   0.52619   0.66646   0.00000  Uiso   1.00
C726   C     0.56099   0.97703   0.68489   0.00000  Uiso   1.00
C727   C     0.59528   0.77370   0.54013   0.00000  Uiso   1.00
C728   C     0.46815   0.66908   0.96838   0.00000  Uiso   1.00
C729   C     0.57557   0.79913   0.63822   0.00000  Uiso   1.00
C730   C     0.44266   0.68522   0.86337   0.00000  Uiso   1.00
C731   C     0.48069   0.71170   0.94421   0.00000  Uiso   1.00
C732   C     0.54024   0.76984   0.60925   0.00000  Uiso   1.00
C733   C     0.47602   0.71573   0.89271   0.00000  Uiso   1.00
C734   C     0.45954   0.73222   0.59963   0.00000  Uiso   1.00
C735   C     0.52138   0.78433   0.89794   0.00000  Uiso   1.00
C736   C     0.45862   0.73356   0.54904   0.00000  Uiso   1.00
Cu737  Cu    0.50000   0.75000   0.79822   0.00000  Uiso   1.00
Cu738  Cu    0.50000   0.75001   0.70179   0.00000  Uiso   1.00
H739   H     0.65985   0.74714   0.69412   0.00000  Uiso   1.00
H740   H     0.53431   0.81415   0.96798   0.00000  Uiso   1.00
H741   H     0.43665   0.99041   0.66542   0.00000  Uiso   1.00
H742   H     0.56419   0.51285   0.68527   0.00000  Uiso   1.00
H743   H     0.60242   0.75886   0.50648   0.00000  Uiso   1.00
H744   H     0.48678   0.66152   0.50456   0.00000  Uiso   1.00
H745   H     0.34026   0.75134   0.80601   0.00000  Uiso   1.00
H746   H     0.54366   0.52654   0.81689   0.00000  Uiso   1.00
H747   H     0.44600   0.97040   0.80047   0.00000  Uiso   1.00
H748   H     0.45268   0.61396   0.68111   0.00000  Uiso   1.00
H749   H     0.54928   0.88867   0.69490   0.00000  Uiso   1.00
H750   H     0.42682   0.71814   0.61490   0.00000  Uiso   1.00
H751   H     0.53849   0.81218   0.88067   0.00000  Uiso   1.00
H752   H     0.42414   0.72194   0.52670   0.00000  Uiso   1.00
N753   N     0.50000   0.75001   0.62935   0.00000  Uiso   1.00
N754   N     0.50000   0.74999   0.87066   0.00000  Uiso   1.00
N755   N     0.57762   0.62904   0.86440   0.00000  Uiso   1.00
N756   N     0.41008   0.86576   0.83533   0.00000  Uiso   1.00
N757   N     0.60398   0.82304   0.66087   0.00000  Uiso   1.00
N758   N     0.41541   0.66076   0.84023   0.00000  Uiso   1.00
O759   O     0.50000   0.68573   0.79072   0.00000  Uiso   1.00
O760   O     0.58534   0.95705   0.65787   0.00000  Uiso   1.00
O761   O     0.62959   0.79663   0.56160   0.00000  Uiso   1.00
O762   O     0.43731   0.64197   0.94880   0.00000  Uiso   1.00
O763   O     0.50000   0.81428   0.70929   0.00000  Uiso   1.00
O764   O     0.50000   0.68573   0.70928   0.00000  Uiso   1.00
O765   O     0.50000   0.81427   0.79072   0.00000  Uiso   1.00
O766   O     0.42495   0.75000   0.78132   0.00000  Uiso   1.00
O767   O     0.57505   0.75001   0.71868   0.00000  Uiso   1.00
O768   O     0.42495   0.75000   0.69989   0.00000  Uiso   1.00
O769   O     0.57505   0.75000   0.80012   0.00000  Uiso   1.00
O770   O     0.41931   0.54756   0.63231   0.00000  Uiso   1.00
C771   C     0.83364   0.66498   0.75034   0.00000  Uiso   1.00
C772   C     0.85315   0.78495   0.94819   0.00000  Uiso   1.00
C773   C     0.83542   0.74848   0.52766   0.00000  Uiso   1.00
C774   C     0.83460   0.74796   0.97278   0.00000  Uiso   1.00
C775   C     0.73467   0.74963   0.73770   0.00000  Uiso   1.00
C776   C     0.93201   0.74993   0.76233   0.00000  Uiso   1.00
C777   C     0.67948   0.74880   0.73092   0.00000  Uiso   1.00
C778   C     0.98723   0.75002   0.76919   0.00000  Uiso   1.00
C779   C     0.85689   0.54576   0.78740   0.00000  Uiso   1.00
C780   C     0.80216   0.95245   0.77765   0.00000  Uiso   1.00
C781   C     0.85823   0.59175   0.78953   0.00000  Uiso   1.00
C782   C     0.83240   0.83496   0.74964   0.00000  Uiso   1.00
C783   C     0.80166   0.90642   0.77904   0.00000  Uiso   1.00
C784   C     0.83287   0.61654   0.75060   0.00000  Uiso   1.00
C785   C     0.83097   0.88330   0.74890   0.00000  Uiso   1.00
C786   C     0.80607   0.59471   0.71056   0.00000  Uiso   1.00
C787   C     0.85998   0.90670   0.71768   0.00000  Uiso   1.00
C788   C     0.80402   0.54850   0.70853   0.00000  Uiso   1.00
C789   C     0.86128   0.95300   0.71665   0.00000  Uiso   1.00
C790   C     0.83051   0.52413   0.74721   0.00000  Uiso   1.00
C791   C     0.83153   0.97575   0.74680   0.00000  Uiso   1.00
C792   C     0.88751   0.61246   0.83110   0.00000  Uiso   1.00
C793   C     0.87834   0.76505   0.55913   0.00000  Uiso   1.00
C794   C     0.76932   0.88386   0.81031   0.00000  Uiso   1.00
C795   C     0.77384   0.52619   0.66646   0.00000  Uiso   1.00
C796   C     0.89432   0.97703   0.68489   0.00000  Uiso   1.00
C797   C     0.92861   0.77370   0.54013   0.00000  Uiso   1.00
C798   C     0.80148   0.66908   0.96838   0.00000  Uiso   1.00
C799   C     0.90890   0.79913   0.63822   0.00000  Uiso   1.00
C800   C     0.77600   0.68522   0.86337   0.00000  Uiso   1.00
C801   C     0.81402   0.71170   0.94421   0.00000  Uiso   1.00
C802   C     0.87357   0.76984   0.60925   0.00000  Uiso   1.00
C803   C     0.80936   0.71573   0.89271   0.00000  Uiso   1.00
C804   C     0.79288   0.73222   0.59963   0.00000  Uiso   1.00
C805   C     0.85471   0.78433   0.89794   0.00000  Uiso   1.00
C806   C     0.79196   0.73356   0.54904   0.00000  Uiso   1.00
Cu807  Cu    0.83333   0.75000   0.79822   0.00000  Uiso   1.00
Cu808  Cu    0.83333   0.75001   0.70179   0.00000  Uiso   1.00
H809   H     0.99318   0.74714   0.69412   0.00000  Uiso   1.00
H810   H     0.86764   0.81415   0.96798   0.00000  Uiso   1.00
H811   H     0.76998   0.99041   0.66542   0.00000  Uiso   1.00
H812   H     0.89752   0.51285   0.68527   0.00000  Uiso   1.00
H813   H     0.93575   0.75886   0.50648   0.00000  Uiso   1.00
H814   H     0.82011   0.66152   0.50456   0.00000  Uiso   1.00
H815   H     0.67360   0.75134   0.80601   0.00000  Uiso   1.00
H816   H     0.87700   0.52654   0.81689   0.00000  Uiso   1.00
H817   H     0.77933   0.97040   0.80047   0.00000  Uiso   1.00
H818   H     0.78601   0.61396   0.68111   0.00000  Uiso   1.00
H819   H     0.88262   0.88867   0.69490   0.00000  Uiso   1.00
H820   H     0.76016   0.71814   0.61490   0.00000  Uiso   1.00
H821   H     0.87182   0.81218   0.88067   0.00000  Uiso   1.00
H822   H     0.75747   0.72194   0.52670   0.00000  Uiso   1.00
N823   N     0.83333   0.75001   0.62935   0.00000  Uiso   1.00
N824   N     0.83333   0.74999   0.87066   0.00000  Uiso   1.00
N825   N     0.91095   0.62904   0.86440   0.00000  Uiso   1.00
N826   N     0.74341   0.86576   0.83533   0.00000  Uiso   1.00
N827   N     0.93731   0.82304   0.66087   0.00000  Uiso   1.00
N828   N     0.74875   0.66076   0.84023   0.00000  Uiso   1.00
O829   O     0.83334   0.68573   0.79072   0.00000  Uiso   1.00
O830   O     0.91868   0.95705   0.65787   0.00000  Uiso   1.00
O831   O     0.96293   0.79663   0.56160   0.00000  Uiso   1.00
O832   O     0.77065   0.64197   0.94880   0.00000  Uiso   1.00
O833   O     0.83333   0.81428   0.70929   0.00000  Uiso   1.00
O834   O     0.83334   0.68573   0.70928   0.00000  Uiso   1.00
O835   O     0.83333   0.81427   0.79072   0.00000  Uiso   1.00
O836   O     0.75828   0.75000   0.78132   0.00000  Uiso   1.00
O837   O     0.90839   0.75001   0.71868   0.00000  Uiso   1.00
O838   O     0.75828   0.75000   0.69989   0.00000  Uiso   1.00
O839   O     0.90839   0.75000   0.80012   0.00000  Uiso   1.00
O840   O     0.75264   0.54756   0.63231   0.00000  Uiso   1.00
loop_
_geom_bond_atom_site_label_1
_geom_bond_atom_site_label_2
_geom_bond_distance
_geom_bond_site_symmetry_2
_ccdc_geom_bond_type
C1     C14     1.464   .     S
C1     O59     1.297   .     A
C1     O64     1.296   .     A
C2     C35     1.406   .     A
C2     C4      1.413   .     A
C2     H40     1.082   .     S
C3     C36     1.413   .     A
C3     C23     1.419   .     A
C3     C424    1.526   1_554 S
C4     C31     1.419   .     A
C4     C423    1.526   .     S
C5     C7      1.431   .     S
C5     O68     1.288   .     A
C5     O66     1.290   .     A
C6     O69     1.288   .     A
C6     O67     1.291   .     A
C6     C8      1.433   .     S
C7     C148    1.332   1_455 S
C7     H179    1.087   1_455 S
C8     C77     1.332   .     S
C8     H115    1.087   .     S
C9     C20     1.399   .     A
C9     H46     1.085   .     S
C9     C11     1.392   .     A
C10    C21     1.399   .     A
C10    H47     1.085   .     S
C10    C13     1.391   .     A
C11    C22     1.445   .     S
C11    C14     1.411   .     A
C12    O65     1.294   .     A
C12    C15     1.462   .     S
C12    O63     1.297   .     A
C13    C15     1.410   .     A
C13    C24     1.445   .     S
C14    C16     1.403   .     A
C15    C17     1.401   .     A
C16    H48     1.084   .     S
C16    C18     1.399   .     A
C17    C19     1.399   .     A
C17    H49     1.082   .     S
C18    C25     1.487   .     S
C18    C20     1.411   .     A
C19    C26     1.487   .     S
C19    C21     1.412   .     A
C20    C231    1.463   1_545 S
C21    C230    1.463   .     S
C22    N55     1.157   .     T
C23    C32     1.428   .     A
C23    C27     1.497   .     S
C24    N56     1.157   .     T
C25    O70     1.221   .     D
C25    H251    1.084   1_545 S
C26    O60     1.221   .     D
C26    H252    1.084   .     S
C27    O61     1.220   .     D
C27    H43     1.084   .     S
C28    O62     1.220   .     D
C28    C31     1.495   .     S
C28    H464    1.085   .     S
C29    N57     1.158   .     T
C29    C32     1.442   .     S
C30    N58     1.158   .     T
C30    C33     1.443   .     S
C31    C33     1.428   .     A
C32    N53     1.377   .     A
C33    N54     1.377   .     A
C34    C36     1.407   .     A
C34    H50     1.081   .     S
C34    N53     1.362   .     A
C35    N54     1.362   .     A
C35    H51     1.081   .     S
C36    H52     1.082   .     S
Cu37   O69     1.958   .     S
Cu37   O66     1.959   .     S
Cu37   O59     1.957   .     S
Cu37   N54     2.018   .     S
Cu37   Cu38    2.686   .     S
Cu37   O65     1.951   .     S
Cu38   O64     1.951   .     S
Cu38   N53     2.018   .     S
Cu38   O67     1.959   .     S
Cu38   O63     1.957   .     S
Cu38   O68     1.958   .     S
H39    C77     1.087   .     S
H41    C235    1.084   .     S
H42    C236    1.084   1_545 S
H44    C448    1.085   1_554 S
H45    C148    1.087   1_455 S
C71    C84     1.464   .     S
C71    O129    1.297   .     A
C71    O134    1.296   .     A
C72    C105    1.406   .     A
C72    C74     1.413   .     A
C72    H110    1.082   .     S
C73    C106    1.413   .     A
C73    C93     1.419   .     A
C73    C494    1.526   1_554 S
C74    C101    1.419   .     A
C74    C493    1.526   .     S
C75    C77     1.431   .     S
C75    O138    1.288   .     A
C75    O136    1.290   .     A
C76    O139    1.288   .     A
C76    O137    1.291   .     A
C76    C78     1.433   .     S
C78    C147    1.332   .     S
C78    H185    1.087   .     S
C79    C90     1.399   .     A
C79    H116    1.085   .     S
C79    C81     1.392   .     A
C80    C91     1.399   .     A
C80    H117    1.085   .     S
C80    C83     1.391   .     A
C81    C92     1.445   .     S
C81    C84     1.411   .     A
C82    O135    1.294   .     A
C82    C85     1.462   .     S
C82    O133    1.297   .     A
C83    C85     1.410   .     A
C83    C94     1.445   .     S
C84    C86     1.403   .     A
C85    C87     1.401   .     A
C86    H118    1.084   .     S
C86    C88     1.399   .     A
C87    C89     1.399   .     A
C87    H119    1.082   .     S
C88    C95     1.487   .     S
C88    C90     1.411   .     A
C89    C96     1.487   .     S
C89    C91     1.412   .     A
C90    C301    1.463   1_545 S
C91    C300    1.463   .     S
C92    N125    1.157   .     T
C93    C102    1.428   .     A
C93    C97     1.497   .     S
C94    N126    1.157   .     T
C95    O140    1.221   .     D
C95    H321    1.084   1_545 S
C96    O130    1.221   .     D
C96    H322    1.084   .     S
C97    O131    1.220   .     D
C97    H113    1.084   .     S
C98    O132    1.220   .     D
C98    C101    1.495   .     S
C98    H534    1.085   .     S
C99    N127    1.158   .     T
C99    C102    1.442   .     S
C100   N128    1.158   .     T
C100   C103    1.443   .     S
C101   C103    1.428   .     A
C102   N123    1.377   .     A
C103   N124    1.377   .     A
C104   C106    1.407   .     A
C104   H120    1.081   .     S
C104   N123    1.362   .     A
C105   N124    1.362   .     A
C105   H121    1.081   .     S
C106   H122    1.082   .     S
Cu107  O139    1.958   .     S
Cu107  O136    1.959   .     S
Cu107  O129    1.957   .     S
Cu107  N124    2.018   .     S
Cu107  Cu108   2.686   .     S
Cu107  O135    1.951   .     S
Cu108  O134    1.951   .     S
Cu108  N123    2.018   .     S
Cu108  O137    1.959   .     S
Cu108  O133    1.957   .     S
Cu108  O138    1.958   .     S
H109   C147    1.087   .     S
H111   C305    1.084   .     S
H112   C306    1.084   1_545 S
H114   C518    1.085   1_554 S
C141   C154    1.464   .     S
C141   O199    1.297   .     A
C141   O204    1.296   .     A
C142   C175    1.406   .     A
C142   C144    1.413   .     A
C142   H180    1.082   .     S
C143   C176    1.413   .     A
C143   C163    1.419   .     A
C143   C564    1.526   1_554 S
C144   C171    1.419   .     A
C144   C563    1.526   .     S
C145   C147    1.431   .     S
C145   O208    1.288   .     A
C145   O206    1.290   .     A
C146   O209    1.288   .     A
C146   O207    1.291   .     A
C146   C148    1.433   .     S
C148   C7      1.332   1_655 S
C148   H45     1.087   1_655 S
C149   C160    1.399   .     A
C149   H186    1.085   .     S
C149   C151    1.392   .     A
C150   C161    1.399   .     A
C150   H187    1.085   .     S
C150   C153    1.391   .     A
C151   C162    1.445   .     S
C151   C154    1.411   .     A
C152   O205    1.294   .     A
C152   C155    1.462   .     S
C152   O203    1.297   .     A
C153   C155    1.410   .     A
C153   C164    1.445   .     S
C154   C156    1.403   .     A
C155   C157    1.401   .     A
C156   H188    1.084   .     S
C156   C158    1.399   .     A
C157   C159    1.399   .     A
C157   H189    1.082   .     S
C158   C165    1.487   .     S
C158   C160    1.411   .     A
C159   C166    1.487   .     S
C159   C161    1.412   .     A
C160   C371    1.463   1_545 S
C161   C370    1.463   .     S
C162   N195    1.157   .     T
C163   C172    1.428   .     A
C163   C167    1.497   .     S
C164   N196    1.157   .     T
C165   O210    1.221   .     D
C165   H391    1.084   1_545 S
C166   O200    1.221   .     D
C166   H392    1.084   .     S
C167   O201    1.220   .     D
C167   H183    1.084   .     S
C168   O202    1.220   .     D
C168   C171    1.495   .     S
C168   H604    1.085   .     S
C169   N197    1.158   .     T
C169   C172    1.442   .     S
C170   N198    1.158   .     T
C170   C173    1.443   .     S
C171   C173    1.428   .     A
C172   N193    1.377   .     A
C173   N194    1.377   .     A
C174   C176    1.407   .     A
C174   H190    1.081   .     S
C174   N193    1.362   .     A
C175   N194    1.362   .     A
C175   H191    1.081   .     S
C176   H192    1.082   .     S
Cu177  O209    1.958   .     S
Cu177  O206    1.959   .     S
Cu177  O199    1.957   .     S
Cu177  N194    2.018   .     S
Cu177  Cu178   2.686   .     S
Cu177  O205    1.951   .     S
Cu178  O204    1.951   .     S
Cu178  N193    2.018   .     S
Cu178  O207    1.959   .     S
Cu178  O203    1.957   .     S
Cu178  O208    1.958   .     S
H179   C7      1.087   1_655 S
H181   C375    1.084   .     S
H182   C376    1.084   1_545 S
H184   C588    1.085   1_554 S
C211   C224    1.464   .     S
C211   O269    1.297   .     A
C211   O274    1.296   .     A
C212   C245    1.406   .     A
C212   C214    1.413   .     A
C212   H250    1.082   .     S
C213   C246    1.413   .     A
C213   C233    1.419   .     A
C213   C634    1.526   1_554 S
C214   C241    1.419   .     A
C214   C633    1.526   .     S
C215   C217    1.431   .     S
C215   O278    1.288   .     A
C215   O276    1.290   .     A
C216   O279    1.288   .     A
C216   O277    1.291   .     A
C216   C218    1.433   .     S
C217   C358    1.332   1_455 S
C217   H389    1.087   1_455 S
C218   C287    1.332   .     S
C218   H325    1.087   .     S
C219   C230    1.399   .     A
C219   H256    1.085   .     S
C219   C221    1.392   .     A
C220   C231    1.399   .     A
C220   H257    1.085   .     S
C220   C223    1.391   .     A
C221   C232    1.445   .     S
C221   C224    1.411   .     A
C222   O275    1.294   .     A
C222   C225    1.462   .     S
C222   O273    1.297   .     A
C223   C225    1.410   .     A
C223   C234    1.445   .     S
C224   C226    1.403   .     A
C225   C227    1.401   .     A
C226   H258    1.084   .     S
C226   C228    1.399   .     A
C227   C229    1.399   .     A
C227   H259    1.082   .     S
C228   C235    1.487   .     S
C228   C230    1.411   .     A
C229   C236    1.487   .     S
C229   C231    1.412   .     A
C231   C20     1.463   1_565 S
C232   N265    1.157   .     T
C233   C242    1.428   .     A
C233   C237    1.497   .     S
C234   N266    1.157   .     T
C235   O280    1.221   .     D
C236   O270    1.221   .     D
C236   H42     1.084   1_565 S
C237   O271    1.220   .     D
C237   H253    1.084   .     S
C238   O272    1.220   .     D
C238   C241    1.495   .     S
C238   H674    1.085   .     S
C239   N267    1.158   .     T
C239   C242    1.442   .     S
C240   N268    1.158   .     T
C240   C243    1.443   .     S
C241   C243    1.428   .     A
C242   N263    1.377   .     A
C243   N264    1.377   .     A
C244   C246    1.407   .     A
C244   H260    1.081   .     S
C244   N263    1.362   .     A
C245   N264    1.362   .     A
C245   H261    1.081   .     S
C246   H262    1.082   .     S
Cu247  O279    1.958   .     S
Cu247  O276    1.959   .     S
Cu247  O269    1.957   .     S
Cu247  N264    2.018   .     S
Cu247  Cu248   2.686   .     S
Cu247  O275    1.951   .     S
Cu248  O274    1.951   .     S
Cu248  N263    2.018   .     S
Cu248  O277    1.959   .     S
Cu248  O273    1.957   .     S
Cu248  O278    1.958   .     S
H249   C287    1.087   .     S
H251   C25     1.084   1_565 S
H254   C658    1.085   1_554 S
H255   C358    1.087   1_455 S
C281   C294    1.464   .     S
C281   O339    1.297   .     A
C281   O344    1.296   .     A
C282   C315    1.406   .     A
C282   C284    1.413   .     A
C282   H320    1.082   .     S
C283   C316    1.413   .     A
C283   C303    1.419   .     A
C283   C704    1.526   1_554 S
C284   C311    1.419   .     A
C284   C703    1.526   .     S
C285   C287    1.431   .     S
C285   O348    1.288   .     A
C285   O346    1.290   .     A
C286   O349    1.288   .     A
C286   O347    1.291   .     A
C286   C288    1.433   .     S
C288   C357    1.332   .     S
C288   H395    1.087   .     S
C289   C300    1.399   .     A
C289   H326    1.085   .     S
C289   C291    1.392   .     A
C290   C301    1.399   .     A
C290   H327    1.085   .     S
C290   C293    1.391   .     A
C291   C302    1.445   .     S
C291   C294    1.411   .     A
C292   O345    1.294   .     A
C292   C295    1.462   .     S
C292   O343    1.297   .     A
C293   C295    1.410   .     A
C293   C304    1.445   .     S
C294   C296    1.403   .     A
C295   C297    1.401   .     A
C296   H328    1.084   .     S
C296   C298    1.399   .     A
C297   C299    1.399   .     A
C297   H329    1.082   .     S
C298   C305    1.487   .     S
C298   C300    1.411   .     A
C299   C306    1.487   .     S
C299   C301    1.412   .     A
C301   C90     1.463   1_565 S
C302   N335    1.157   .     T
C303   C312    1.428   .     A
C303   C307    1.497   .     S
C304   N336    1.157   .     T
C305   O350    1.221   .     D
C306   O340    1.221   .     D
C306   H112    1.084   1_565 S
C307   O341    1.220   .     D
C307   H323    1.084   .     S
C308   O342    1.220   .     D
C308   C311    1.495   .     S
C308   H744    1.085   .     S
C309   N337    1.158   .     T
C309   C312    1.442   .     S
C310   N338    1.158   .     T
C310   C313    1.443   .     S
C311   C313    1.428   .     A
C312   N333    1.377   .     A
C313   N334    1.377   .     A
C314   C316    1.407   .     A
C314   H330    1.081   .     S
C314   N333    1.362   .     A
C315   N334    1.362   .     A
C315   H331    1.081   .     S
C316   H332    1.082   .     S
Cu317  O349    1.958   .     S
Cu317  O346    1.959   .     S
Cu317  O339    1.957   .     S
Cu317  N334    2.018   .     S
Cu317  Cu318   2.686   .     S
Cu317  O345    1.951   .     S
Cu318  O344    1.951   .     S
Cu318  N333    2.018   .     S
Cu318  O347    1.959   .     S
Cu318  O343    1.957   .     S
Cu318  O348    1.958   .     S
H319   C357    1.087   .     S
H321   C95     1.084   1_565 S
H324   C728    1.085   1_554 S
C351   C364    1.464   .     S
C351   O409    1.297   .     A
C351   O414    1.296   .     A
C352   C385    1.406   .     A
C352   C354    1.413   .     A
C352   H390    1.082   .     S
C353   C386    1.413   .     A
C353   C373    1.419   .     A
C353   C774    1.526   1_554 S
C354   C381    1.419   .     A
C354   C773    1.526   .     S
C355   C357    1.431   .     S
C355   O418    1.288   .     A
C355   O416    1.290   .     A
C356   O419    1.288   .     A
C356   O417    1.291   .     A
C356   C358    1.433   .     S
C358   C217    1.332   1_655 S
C358   H255    1.087   1_655 S
C359   C370    1.399   .     A
C359   H396    1.085   .     S
C359   C361    1.392   .     A
C360   C371    1.399   .     A
C360   H397    1.085   .     S
C360   C363    1.391   .     A
C361   C372    1.445   .     S
C361   C364    1.411   .     A
C362   O415    1.294   .     A
C362   C365    1.462   .     S
C362   O413    1.297   .     A
C363   C365    1.410   .     A
C363   C374    1.445   .     S
C364   C366    1.403   .     A
C365   C367    1.401   .     A
C366   H398    1.084   .     S
C366   C368    1.399   .     A
C367   C369    1.399   .     A
C367   H399    1.082   .     S
C368   C375    1.487   .     S
C368   C370    1.411   .     A
C369   C376    1.487   .     S
C369   C371    1.412   .     A
C371   C160    1.463   1_565 S
C372   N405    1.157   .     T
C373   C382    1.428   .     A
C373   C377    1.497   .     S
C374   N406    1.157   .     T
C375   O420    1.221   .     D
C376   O410    1.221   .     D
C376   H182    1.084   1_565 S
C377   O411    1.220   .     D
C377   H393    1.084   .     S
C378   O412    1.220   .     D
C378   C381    1.495   .     S
C378   H814    1.085   .     S
C379   N407    1.158   .     T
C379   C382    1.442   .     S
C380   N408    1.158   .     T
C380   C383    1.443   .     S
C381   C383    1.428   .     A
C382   N403    1.377   .     A
C383   N404    1.377   .     A
C384   C386    1.407   .     A
C384   H400    1.081   .     S
C384   N403    1.362   .     A
C385   N404    1.362   .     A
C385   H401    1.081   .     S
C386   H402    1.082   .     S
Cu387  O419    1.958   .     S
Cu387  O416    1.959   .     S
Cu387  O409    1.957   .     S
Cu387  N404    2.018   .     S
Cu387  Cu388   2.686   .     S
Cu387  O415    1.951   .     S
Cu388  O414    1.951   .     S
Cu388  N403    2.018   .     S
Cu388  O417    1.959   .     S
Cu388  O413    1.957   .     S
Cu388  O418    1.958   .     S
H389   C217    1.087   1_655 S
H391   C165    1.084   1_565 S
H394   C798    1.085   1_554 S
C421   C434    1.464   .     S
C421   O479    1.297   .     A
C421   O484    1.296   .     A
C422   C455    1.406   .     A
C422   C424    1.413   .     A
C422   H460    1.082   .     S
C423   C456    1.413   .     A
C423   C443    1.419   .     A
C424   C451    1.419   .     A
C424   C3      1.526   1_556 S
C425   C427    1.431   .     S
C425   O488    1.288   .     A
C425   O486    1.290   .     A
C426   O489    1.288   .     A
C426   O487    1.291   .     A
C426   C428    1.433   .     S
C427   C568    1.332   1_455 S
C427   H599    1.087   1_455 S
C428   C497    1.332   .     S
C428   H535    1.087   .     S
C429   C440    1.399   .     A
C429   H466    1.085   .     S
C429   C431    1.392   .     A
C430   C441    1.399   .     A
C430   H467    1.085   .     S
C430   C433    1.391   .     A
C431   C442    1.445   .     S
C431   C434    1.411   .     A
C432   O485    1.294   .     A
C432   C435    1.462   .     S
C432   O483    1.297   .     A
C433   C435    1.410   .     A
C433   C444    1.445   .     S
C434   C436    1.403   .     A
C435   C437    1.401   .     A
C436   H468    1.084   .     S
C436   C438    1.399   .     A
C437   C439    1.399   .     A
C437   H469    1.082   .     S
C438   C445    1.487   .     S
C438   C440    1.411   .     A
C439   C446    1.487   .     S
C439   C441    1.412   .     A
C440   C651    1.463   1_545 S
C441   C650    1.463   .     S
C442   N475    1.157   .     T
C443   C452    1.428   .     A
C443   C447    1.497   .     S
C444   N476    1.157   .     T
C445   O490    1.221   .     D
C445   H671    1.084   1_545 S
C446   O480    1.221   .     D
C446   H672    1.084   .     S
C447   O481    1.220   .     D
C447   H463    1.084   .     S
C448   O482    1.220   .     D
C448   C451    1.495   .     S
C448   H44     1.085   1_556 S
C449   N477    1.158   .     T
C449   C452    1.442   .     S
C450   N478    1.158   .     T
C450   C453    1.443   .     S
C451   C453    1.428   .     A
C452   N473    1.377   .     A
C453   N474    1.377   .     A
C454   C456    1.407   .     A
C454   H470    1.081   .     S
C454   N473    1.362   .     A
C455   N474    1.362   .     A
C455   H471    1.081   .     S
C456   H472    1.082   .     S
Cu457  O489    1.958   .     S
Cu457  O486    1.959   .     S
Cu457  O479    1.957   .     S
Cu457  N474    2.018   .     S
Cu457  Cu458   2.686   .     S
Cu457  O485    1.951   .     S
Cu458  O484    1.951   .     S
Cu458  N473    2.018   .     S
Cu458  O487    1.959   .     S
Cu458  O483    1.957   .     S
Cu458  O488    1.958   .     S
H459   C497    1.087   .     S
H461   C655    1.084   .     S
H462   C656    1.084   1_545 S
H465   C568    1.087   1_455 S
C491   C504    1.464   .     S
C491   O549    1.297   .     A
C491   O554    1.296   .     A
C492   C525    1.406   .     A
C492   C494    1.413   .     A
C492   H530    1.082   .     S
C493   C526    1.413   .     A
C493   C513    1.419   .     A
C494   C521    1.419   .     A
C494   C73     1.526   1_556 S
C495   C497    1.431   .     S
C495   O558    1.288   .     A
C495   O556    1.290   .     A
C496   O559    1.288   .     A
C496   O557    1.291   .     A
C496   C498    1.433   .     S
C498   C567    1.332   .     S
C498   H605    1.087   .     S
C499   C510    1.399   .     A
C499   H536    1.085   .     S
C499   C501    1.392   .     A
C500   C511    1.399   .     A
C500   H537    1.085   .     S
C500   C503    1.391   .     A
C501   C512    1.445   .     S
C501   C504    1.411   .     A
C502   O555    1.294   .     A
C502   C505    1.462   .     S
C502   O553    1.297   .     A
C503   C505    1.410   .     A
C503   C514    1.445   .     S
C504   C506    1.403   .     A
C505   C507    1.401   .     A
C506   H538    1.084   .     S
C506   C508    1.399   .     A
C507   C509    1.399   .     A
C507   H539    1.082   .     S
C508   C515    1.487   .     S
C508   C510    1.411   .     A
C509   C516    1.487   .     S
C509   C511    1.412   .     A
C510   C721    1.463   1_545 S
C511   C720    1.463   .     S
C512   N545    1.157   .     T
C513   C522    1.428   .     A
C513   C517    1.497   .     S
C514   N546    1.157   .     T
C515   O560    1.221   .     D
C515   H741    1.084   1_545 S
C516   O550    1.221   .     D
C516   H742    1.084   .     S
C517   O551    1.220   .     D
C517   H533    1.084   .     S
C518   O552    1.220   .     D
C518   C521    1.495   .     S
C518   H114    1.085   1_556 S
C519   N547    1.158   .     T
C519   C522    1.442   .     S
C520   N548    1.158   .     T
C520   C523    1.443   .     S
C521   C523    1.428   .     A
C522   N543    1.377   .     A
C523   N544    1.377   .     A
C524   C526    1.407   .     A
C524   H540    1.081   .     S
C524   N543    1.362   .     A
C525   N544    1.362   .     A
C525   H541    1.081   .     S
C526   H542    1.082   .     S
Cu527  O559    1.958   .     S
Cu527  O556    1.959   .     S
Cu527  O549    1.957   .     S
Cu527  N544    2.018   .     S
Cu527  Cu528   2.686   .     S
Cu527  O555    1.951   .     S
Cu528  O554    1.951   .     S
Cu528  N543    2.018   .     S
Cu528  O557    1.959   .     S
Cu528  O553    1.957   .     S
Cu528  O558    1.958   .     S
H529   C567    1.087   .     S
H531   C725    1.084   .     S
H532   C726    1.084   1_545 S
C561   C574    1.464   .     S
C561   O619    1.297   .     A
C561   O624    1.296   .     A
C562   C595    1.406   .     A
C562   C564    1.413   .     A
C562   H600    1.082   .     S
C563   C596    1.413   .     A
C563   C583    1.419   .     A
C564   C591    1.419   .     A
C564   C143    1.526   1_556 S
C565   C567    1.431   .     S
C565   O628    1.288   .     A
C565   O626    1.290   .     A
C566   O629    1.288   .     A
C566   O627    1.291   .     A
C566   C568    1.433   .     S
C568   C427    1.332   1_655 S
C568   H465    1.087   1_655 S
C569   C580    1.399   .     A
C569   H606    1.085   .     S
C569   C571    1.392   .     A
C570   C581    1.399   .     A
C570   H607    1.085   .     S
C570   C573    1.391   .     A
C571   C582    1.445   .     S
C571   C574    1.411   .     A
C572   O625    1.294   .     A
C572   C575    1.462   .     S
C572   O623    1.297   .     A
C573   C575    1.410   .     A
C573   C584    1.445   .     S
C574   C576    1.403   .     A
C575   C577    1.401   .     A
C576   H608    1.084   .     S
C576   C578    1.399   .     A
C577   C579    1.399   .     A
C577   H609    1.082   .     S
C578   C585    1.487   .     S
C578   C580    1.411   .     A
C579   C586    1.487   .     S
C579   C581    1.412   .     A
C580   C791    1.463   1_545 S
C581   C790    1.463   .     S
C582   N615    1.157   .     T
C583   C592    1.428   .     A
C583   C587    1.497   .     S
C584   N616    1.157   .     T
C585   O630    1.221   .     D
C585   H811    1.084   1_545 S
C586   O620    1.221   .     D
C586   H812    1.084   .     S
C587   O621    1.220   .     D
C587   H603    1.084   .     S
C588   O622    1.220   .     D
C588   C591    1.495   .     S
C588   H184    1.085   1_556 S
C589   N617    1.158   .     T
C589   C592    1.442   .     S
C590   N618    1.158   .     T
C590   C593    1.443   .     S
C591   C593    1.428   .     A
C592   N613    1.377   .     A
C593   N614    1.377   .     A
C594   C596    1.407   .     A
C594   H610    1.081   .     S
C594   N613    1.362   .     A
C595   N614    1.362   .     A
C595   H611    1.081   .     S
C596   H612    1.082   .     S
Cu597  O629    1.958   .     S
Cu597  O626    1.959   .     S
Cu597  O619    1.957   .     S
Cu597  N614    2.018   .     S
Cu597  Cu598   2.686   .     S
Cu597  O625    1.951   .     S
Cu598  O624    1.951   .     S
Cu598  N613    2.018   .     S
Cu598  O627    1.959   .     S
Cu598  O623    1.957   .     S
Cu598  O628    1.958   .     S
H599   C427    1.087   1_655 S
H601   C795    1.084   .     S
H602   C796    1.084   1_545 S
C631   C644    1.464   .     S
C631   O689    1.297   .     A
C631   O694    1.296   .     A
C632   C665    1.406   .     A
C632   C634    1.413   .     A
C632   H670    1.082   .     S
C633   C666    1.413   .     A
C633   C653    1.419   .     A
C634   C661    1.419   .     A
C634   C213    1.526   1_556 S
C635   C637    1.431   .     S
C635   O698    1.288   .     A
C635   O696    1.290   .     A
C636   O699    1.288   .     A
C636   O697    1.291   .     A
C636   C638    1.433   .     S
C637   C778    1.332   1_455 S
C637   H809    1.087   1_455 S
C638   C707    1.332   .     S
C638   H745    1.087   .     S
C639   C650    1.399   .     A
C639   H676    1.085   .     S
C639   C641    1.392   .     A
C640   C651    1.399   .     A
C640   H677    1.085   .     S
C640   C643    1.391   .     A
C641   C652    1.445   .     S
C641   C644    1.411   .     A
C642   O695    1.294   .     A
C642   C645    1.462   .     S
C642   O693    1.297   .     A
C643   C645    1.410   .     A
C643   C654    1.445   .     S
C644   C646    1.403   .     A
C645   C647    1.401   .     A
C646   H678    1.084   .     S
C646   C648    1.399   .     A
C647   C649    1.399   .     A
C647   H679    1.082   .     S
C648   C655    1.487   .     S
C648   C650    1.411   .     A
C649   C656    1.487   .     S
C649   C651    1.412   .     A
C651   C440    1.463   1_565 S
C652   N685    1.157   .     T
C653   C662    1.428   .     A
C653   C657    1.497   .     S
C654   N686    1.157   .     T
C655   O700    1.221   .     D
C656   O690    1.221   .     D
C656   H462    1.084   1_565 S
C657   O691    1.220   .     D
C657   H673    1.084   .     S
C658   O692    1.220   .     D
C658   C661    1.495   .     S
C658   H254    1.085   1_556 S
C659   N687    1.158   .     T
C659   C662    1.442   .     S
C660   N688    1.158   .     T
C660   C663    1.443   .     S
C661   C663    1.428   .     A
C662   N683    1.377   .     A
C663   N684    1.377   .     A
C664   C666    1.407   .     A
C664   H680    1.081   .     S
C664   N683    1.362   .     A
C665   N684    1.362   .     A
C665   H681    1.081   .     S
C666   H682    1.082   .     S
Cu667  O699    1.958   .     S
Cu667  O696    1.959   .     S
Cu667  O689    1.957   .     S
Cu667  N684    2.018   .     S
Cu667  Cu668   2.686   .     S
Cu667  O695    1.951   .     S
Cu668  O694    1.951   .     S
Cu668  N683    2.018   .     S
Cu668  O697    1.959   .     S
Cu668  O693    1.957   .     S
Cu668  O698    1.958   .     S
H669   C707    1.087   .     S
H671   C445    1.084   1_565 S
H675   C778    1.087   1_455 S
C701   C714    1.464   .     S
C701   O759    1.297   .     A
C701   O764    1.296   .     A
C702   C735    1.406   .     A
C702   C704    1.413   .     A
C702   H740    1.082   .     S
C703   C736    1.413   .     A
C703   C723    1.419   .     A
C704   C731    1.419   .     A
C704   C283    1.526   1_556 S
C705   C707    1.431   .     S
C705   O768    1.288   .     A
C705   O766    1.290   .     A
C706   O769    1.288   .     A
C706   O767    1.291   .     A
C706   C708    1.433   .     S
C708   C777    1.332   .     S
C708   H815    1.087   .     S
C709   C720    1.399   .     A
C709   H746    1.085   .     S
C709   C711    1.392   .     A
C710   C721    1.399   .     A
C710   H747    1.085   .     S
C710   C713    1.391   .     A
C711   C722    1.445   .     S
C711   C714    1.411   .     A
C712   O765    1.294   .     A
C712   C715    1.462   .     S
C712   O763    1.297   .     A
C713   C715    1.410   .     A
C713   C724    1.445   .     S
C714   C716    1.403   .     A
C715   C717    1.401   .     A
C716   H748    1.084   .     S
C716   C718    1.399   .     A
C717   C719    1.399   .     A
C717   H749    1.082   .     S
C718   C725    1.487   .     S
C718   C720    1.411   .     A
C719   C726    1.487   .     S
C719   C721    1.412   .     A
C721   C510    1.463   1_565 S
C722   N755    1.157   .     T
C723   C732    1.428   .     A
C723   C727    1.497   .     S
C724   N756    1.157   .     T
C725   O770    1.221   .     D
C726   O760    1.221   .     D
C726   H532    1.084   1_565 S
C727   O761    1.220   .     D
C727   H743    1.084   .     S
C728   O762    1.220   .     D
C728   C731    1.495   .     S
C728   H324    1.085   1_556 S
C729   N757    1.158   .     T
C729   C732    1.442   .     S
C730   N758    1.158   .     T
C730   C733    1.443   .     S
C731   C733    1.428   .     A
C732   N753    1.377   .     A
C733   N754    1.377   .     A
C734   C736    1.407   .     A
C734   H750    1.081   .     S
C734   N753    1.362   .     A
C735   N754    1.362   .     A
C735   H751    1.081   .     S
C736   H752    1.082   .     S
Cu737  O769    1.958   .     S
Cu737  O766    1.959   .     S
Cu737  O759    1.957   .     S
Cu737  N754    2.018   .     S
Cu737  Cu738   2.686   .     S
Cu737  O765    1.951   .     S
Cu738  O764    1.951   .     S
Cu738  N753    2.018   .     S
Cu738  O767    1.959   .     S
Cu738  O763    1.957   .     S
Cu738  O768    1.958   .     S
H739   C777    1.087   .     S
H741   C515    1.084   1_565 S
C771   C784    1.464   .     S
C771   O829    1.297   .     A
C771   O834    1.296   .     A
C772   C805    1.406   .     A
C772   C774    1.413   .     A
C772   H810    1.082   .     S
C773   C806    1.413   .     A
C773   C793    1.419   .     A
C774   C801    1.419   .     A
C774   C353    1.526   1_556 S
C775   C777    1.431   .     S
C775   O838    1.288   .     A
C775   O836    1.290   .     A
C776   O839    1.288   .     A
C776   O837    1.291   .     A
C776   C778    1.433   .     S
C778   C637    1.332   1_655 S
C778   H675    1.087   1_655 S
C779   C790    1.399   .     A
C779   H816    1.085   .     S
C779   C781    1.392   .     A
C780   C791    1.399   .     A
C780   H817    1.085   .     S
C780   C783    1.391   .     A
C781   C792    1.445   .     S
C781   C784    1.411   .     A
C782   O835    1.294   .     A
C782   C785    1.462   .     S
C782   O833    1.297   .     A
C783   C785    1.410   .     A
C783   C794    1.445   .     S
C784   C786    1.403   .     A
C785   C787    1.401   .     A
C786   H818    1.084   .     S
C786   C788    1.399   .     A
C787   C789    1.399   .     A
C787   H819    1.082   .     S
C788   C795    1.487   .     S
C788   C790    1.411   .     A
C789   C796    1.487   .     S
C789   C791    1.412   .     A
C791   C580    1.463   1_565 S
C792   N825    1.157   .     T
C793   C802    1.428   .     A
C793   C797    1.497   .     S
C794   N826    1.157   .     T
C795   O840    1.221   .     D
C796   O830    1.221   .     D
C796   H602    1.084   1_565 S
C797   O831    1.220   .     D
C797   H813    1.084   .     S
C798   O832    1.220   .     D
C798   C801    1.495   .     S
C798   H394    1.085   1_556 S
C799   N827    1.158   .     T
C799   C802    1.442   .     S
C800   N828    1.158   .     T
C800   C803    1.443   .     S
C801   C803    1.428   .     A
C802   N823    1.377   .     A
C803   N824    1.377   .     A
C804   C806    1.407   .     A
C804   H820    1.081   .     S
C804   N823    1.362   .     A
C805   N824    1.362   .     A
C805   H821    1.081   .     S
C806   H822    1.082   .     S
Cu807  O839    1.958   .     S
Cu807  O836    1.959   .     S
Cu807  O829    1.957   .     S
Cu807  N824    2.018   .     S
Cu807  Cu808   2.686   .     S
Cu807  O835    1.951   .     S
Cu808  O834    1.951   .     S
Cu808  N823    2.018   .     S
Cu808  O837    1.959   .     S
Cu808  O833    1.957   .     S
Cu808  O838    1.958   .     S
H809   C637    1.087   1_655 S
H811   C585    1.084   1_565 S
