data_str_m2_o1_o18_pcu_sym.169
_audit_creation_date              2020-01-03
_audit_creation_method            'Materials Studio'
_symmetry_space_group_name_H-M    'P1'
_symmetry_Int_Tables_number       1
_symmetry_cell_setting            triclinic
loop_
_symmetry_equiv_pos_as_xyz
  x,y,z
_cell_length_a                    28.5437
_cell_length_b                    32.5515
_cell_length_c                    30.9023
_cell_angle_alpha                 89.9649
_cell_angle_beta                  74.8038
_cell_angle_gamma                 90.3078
loop_
_atom_site_label
_atom_site_type_symbol
_atom_site_fract_x
_atom_site_fract_y
_atom_site_fract_z
_atom_site_U_iso_or_equiv
_atom_site_adp_type
_atom_site_occupancy
C1     C     0.33319   0.08736   0.24987   0.00000  Uiso   1.00
C2     C     0.00014   0.24598   0.25013   0.00000  Uiso   1.00
C3     C     0.19461   0.15690   0.04710   0.00000  Uiso   1.00
C4     C     0.13872   0.17643   0.45289   0.00000  Uiso   1.00
C5     C     0.24239   0.14893   0.02451   0.00000  Uiso   1.00
C6     C     0.09094   0.18440   0.47549   0.00000  Uiso   1.00
C7     C     0.29282   0.02067   0.24341   0.00000  Uiso   1.00
C8     C     0.04051   0.31266   0.25659   0.00000  Uiso   1.00
C9     C     0.29339   0.31153   0.24364   0.00000  Uiso   1.00
C10    C     0.03994   0.02180   0.25636   0.00000  Uiso   1.00
C11    C     0.00042   0.29059   0.25017   0.00000  Uiso   1.00
C12    C     0.33292   0.04274   0.24983   0.00000  Uiso   1.00
C13    C     0.18308   0.14211   0.27892   0.00000  Uiso   1.00
C14    C     0.15025   0.19123   0.22108   0.00000  Uiso   1.00
C15    C     0.13346   0.14214   0.27893   0.00000  Uiso   1.00
C16    C     0.19987   0.19119   0.22107   0.00000  Uiso   1.00
C17    C     0.30622   0.16656   0.33615   0.00000  Uiso   1.00
C18    C     0.02711   0.16678   0.16385   0.00000  Uiso   1.00
C19    C     0.29139   0.16403   0.38536   0.00000  Uiso   1.00
C20    C     0.04195   0.16930   0.11464   0.00000  Uiso   1.00
C21    C     0.30601   0.14365   0.45591   0.00000  Uiso   1.00
C22    C     0.02732   0.18968   0.04409   0.00000  Uiso   1.00
C23    C     0.32249   0.14822   0.40963   0.00000  Uiso   1.00
C24    C     0.01084   0.18512   0.09037   0.00000  Uiso   1.00
C25    C     0.24394   0.17534   0.40797   0.00000  Uiso   1.00
C26    C     0.08939   0.15800   0.09203   0.00000  Uiso   1.00
C27    C     0.22471   0.16556   0.45372   0.00000  Uiso   1.00
C28    C     0.10863   0.16777   0.04628   0.00000  Uiso   1.00
C29    C     0.25761   0.15221   0.47807   0.00000  Uiso   1.00
C30    C     0.07572   0.18112   0.02193   0.00000  Uiso   1.00
C31    C     0.17438   0.16926   0.47627   0.00000  Uiso   1.00
C32    C     0.15896   0.16408   0.02373   0.00000  Uiso   1.00
Cu33   Cu    0.04689   0.16667   0.25000   0.00000  Uiso   1.00
Cu34   Cu    0.28645   0.16666   0.25000   0.00000  Uiso   1.00
H35    H     0.19506   0.12237   0.30204   0.00000  Uiso   1.00
H36    H     0.13827   0.21097   0.19796   0.00000  Uiso   1.00
N37    N     0.11736   0.16668   0.24999   0.00000  Uiso   1.00
N38    N     0.21597   0.16666   0.25001   0.00000  Uiso   1.00
O39    O     0.03958   0.10655   0.25000   0.00000  Uiso   1.00
O40    O     0.29375   0.22678   0.25000   0.00000  Uiso   1.00
O41    O     0.29372   0.10654   0.25000   0.00000  Uiso   1.00
O42    O     0.03961   0.22679   0.25000   0.00000  Uiso   1.00
O43    O     0.01852   0.16668   0.31492   0.00000  Uiso   1.00
O44    O     0.31481   0.16666   0.18508   0.00000  Uiso   1.00
O45    O     0.27267   0.16667   0.31492   0.00000  Uiso   1.00
O46    O     0.06067   0.16667   0.18508   0.00000  Uiso   1.00
H47    H     0.26797   0.14133   0.04372   0.00000  Uiso   1.00
H48    H     0.06536   0.19200   0.45628   0.00000  Uiso   1.00
F49    F     0.11419   0.13393   0.11421   0.00000  Uiso   1.00
F50    F     0.21915   0.19941   0.38579   0.00000  Uiso   1.00
F51    F     0.29794   0.19609   0.11116   0.00000  Uiso   1.00
F52    F     0.03540   0.13725   0.38884   0.00000  Uiso   1.00
H53    H     0.33089   0.13257   0.47438   0.00000  Uiso   1.00
H54    H     0.00245   0.20076   0.02562   0.00000  Uiso   1.00
H55    H     0.18710   0.15805   0.08306   0.00000  Uiso   1.00
H56    H     0.14623   0.17528   0.41693   0.00000  Uiso   1.00
F57    F     0.25325   0.03983   0.23646   0.00000  Uiso   1.00
F58    F     0.08008   0.29350   0.26354   0.00000  Uiso   1.00
H59    H     0.26223   0.29509   0.23839   0.00000  Uiso   1.00
H60    H     0.07110   0.03824   0.26161   0.00000  Uiso   1.00
H61    H     0.10804   0.12246   0.30205   0.00000  Uiso   1.00
H62    H     0.22529   0.21087   0.19795   0.00000  Uiso   1.00
C63    C     0.66652   0.08736   0.24987   0.00000  Uiso   1.00
C64    C     0.33348   0.24598   0.25013   0.00000  Uiso   1.00
C65    C     0.52795   0.15690   0.04710   0.00000  Uiso   1.00
C66    C     0.47205   0.17643   0.45289   0.00000  Uiso   1.00
C67    C     0.57573   0.14893   0.02451   0.00000  Uiso   1.00
C68    C     0.42427   0.18440   0.47549   0.00000  Uiso   1.00
C69    C     0.62615   0.02067   0.24341   0.00000  Uiso   1.00
C70    C     0.37385   0.31266   0.25659   0.00000  Uiso   1.00
C71    C     0.62673   0.31153   0.24364   0.00000  Uiso   1.00
C72    C     0.37327   0.02180   0.25636   0.00000  Uiso   1.00
C73    C     0.33375   0.29059   0.25017   0.00000  Uiso   1.00
C74    C     0.66625   0.04274   0.24983   0.00000  Uiso   1.00
C75    C     0.51641   0.14211   0.27892   0.00000  Uiso   1.00
C76    C     0.48359   0.19123   0.22108   0.00000  Uiso   1.00
C77    C     0.46680   0.14214   0.27893   0.00000  Uiso   1.00
C78    C     0.53320   0.19119   0.22107   0.00000  Uiso   1.00
C79    C     0.63955   0.16656   0.33615   0.00000  Uiso   1.00
C80    C     0.36045   0.16678   0.16385   0.00000  Uiso   1.00
C81    C     0.62472   0.16403   0.38536   0.00000  Uiso   1.00
C82    C     0.37528   0.16930   0.11464   0.00000  Uiso   1.00
C83    C     0.63935   0.14365   0.45591   0.00000  Uiso   1.00
C84    C     0.36065   0.18968   0.04409   0.00000  Uiso   1.00
C85    C     0.65583   0.14822   0.40963   0.00000  Uiso   1.00
C86    C     0.34417   0.18512   0.09037   0.00000  Uiso   1.00
C87    C     0.57728   0.17534   0.40797   0.00000  Uiso   1.00
C88    C     0.42272   0.15800   0.09203   0.00000  Uiso   1.00
C89    C     0.55804   0.16556   0.45372   0.00000  Uiso   1.00
C90    C     0.44196   0.16777   0.04628   0.00000  Uiso   1.00
C91    C     0.59094   0.15221   0.47807   0.00000  Uiso   1.00
C92    C     0.40906   0.18112   0.02193   0.00000  Uiso   1.00
C93    C     0.50771   0.16926   0.47627   0.00000  Uiso   1.00
C94    C     0.49229   0.16408   0.02373   0.00000  Uiso   1.00
Cu95   Cu    0.38022   0.16667   0.25000   0.00000  Uiso   1.00
Cu96   Cu    0.61978   0.16666   0.25000   0.00000  Uiso   1.00
H97    H     0.52840   0.12237   0.30204   0.00000  Uiso   1.00
H98    H     0.47160   0.21097   0.19796   0.00000  Uiso   1.00
N99    N     0.45069   0.16668   0.24999   0.00000  Uiso   1.00
N100   N     0.54931   0.16666   0.25001   0.00000  Uiso   1.00
O101   O     0.37291   0.10655   0.25000   0.00000  Uiso   1.00
O102   O     0.62709   0.22678   0.25000   0.00000  Uiso   1.00
O103   O     0.62706   0.10654   0.25000   0.00000  Uiso   1.00
O104   O     0.37294   0.22679   0.25000   0.00000  Uiso   1.00
O105   O     0.35186   0.16668   0.31492   0.00000  Uiso   1.00
O106   O     0.64814   0.16666   0.18508   0.00000  Uiso   1.00
O107   O     0.60600   0.16667   0.31492   0.00000  Uiso   1.00
O108   O     0.39400   0.16667   0.18508   0.00000  Uiso   1.00
H109   H     0.60130   0.14133   0.04372   0.00000  Uiso   1.00
H110   H     0.39870   0.19200   0.45628   0.00000  Uiso   1.00
F111   F     0.44752   0.13393   0.11421   0.00000  Uiso   1.00
F112   F     0.55248   0.19941   0.38579   0.00000  Uiso   1.00
F113   F     0.63127   0.19609   0.11116   0.00000  Uiso   1.00
F114   F     0.36873   0.13725   0.38884   0.00000  Uiso   1.00
H115   H     0.66422   0.13257   0.47438   0.00000  Uiso   1.00
H116   H     0.33578   0.20076   0.02562   0.00000  Uiso   1.00
H117   H     0.52044   0.15805   0.08306   0.00000  Uiso   1.00
H118   H     0.47956   0.17528   0.41693   0.00000  Uiso   1.00
F119   F     0.58659   0.03983   0.23646   0.00000  Uiso   1.00
F120   F     0.41341   0.29350   0.26354   0.00000  Uiso   1.00
H121   H     0.59557   0.29509   0.23839   0.00000  Uiso   1.00
H122   H     0.40443   0.03824   0.26161   0.00000  Uiso   1.00
H123   H     0.44137   0.12246   0.30205   0.00000  Uiso   1.00
H124   H     0.55863   0.21087   0.19795   0.00000  Uiso   1.00
C125   C     0.99986   0.08736   0.24987   0.00000  Uiso   1.00
C126   C     0.66681   0.24598   0.25013   0.00000  Uiso   1.00
C127   C     0.86128   0.15690   0.04710   0.00000  Uiso   1.00
C128   C     0.80539   0.17643   0.45289   0.00000  Uiso   1.00
C129   C     0.90906   0.14893   0.02451   0.00000  Uiso   1.00
C130   C     0.75761   0.18440   0.47549   0.00000  Uiso   1.00
C131   C     0.95949   0.02067   0.24341   0.00000  Uiso   1.00
C132   C     0.70718   0.31266   0.25659   0.00000  Uiso   1.00
C133   C     0.96006   0.31153   0.24364   0.00000  Uiso   1.00
C134   C     0.70661   0.02180   0.25636   0.00000  Uiso   1.00
C135   C     0.66708   0.29059   0.25017   0.00000  Uiso   1.00
C136   C     0.99958   0.04274   0.24983   0.00000  Uiso   1.00
C137   C     0.84975   0.14211   0.27892   0.00000  Uiso   1.00
C138   C     0.81692   0.19123   0.22108   0.00000  Uiso   1.00
C139   C     0.80013   0.14214   0.27893   0.00000  Uiso   1.00
C140   C     0.86654   0.19119   0.22107   0.00000  Uiso   1.00
C141   C     0.97289   0.16656   0.33615   0.00000  Uiso   1.00
C142   C     0.69378   0.16678   0.16385   0.00000  Uiso   1.00
C143   C     0.95805   0.16403   0.38536   0.00000  Uiso   1.00
C144   C     0.70861   0.16930   0.11464   0.00000  Uiso   1.00
C145   C     0.97268   0.14365   0.45591   0.00000  Uiso   1.00
C146   C     0.69399   0.18968   0.04409   0.00000  Uiso   1.00
C147   C     0.98916   0.14822   0.40963   0.00000  Uiso   1.00
C148   C     0.67751   0.18512   0.09037   0.00000  Uiso   1.00
C149   C     0.91061   0.17534   0.40797   0.00000  Uiso   1.00
C150   C     0.75606   0.15800   0.09203   0.00000  Uiso   1.00
C151   C     0.89138   0.16556   0.45372   0.00000  Uiso   1.00
C152   C     0.77529   0.16777   0.04628   0.00000  Uiso   1.00
C153   C     0.92428   0.15221   0.47807   0.00000  Uiso   1.00
C154   C     0.74239   0.18112   0.02193   0.00000  Uiso   1.00
C155   C     0.84104   0.16926   0.47627   0.00000  Uiso   1.00
C156   C     0.82562   0.16408   0.02373   0.00000  Uiso   1.00
Cu157  Cu    0.71355   0.16667   0.25000   0.00000  Uiso   1.00
Cu158  Cu    0.95311   0.16666   0.25000   0.00000  Uiso   1.00
H159   H     0.86173   0.12237   0.30204   0.00000  Uiso   1.00
H160   H     0.80494   0.21097   0.19796   0.00000  Uiso   1.00
N161   N     0.78403   0.16668   0.24999   0.00000  Uiso   1.00
N162   N     0.88264   0.16666   0.25001   0.00000  Uiso   1.00
O163   O     0.70625   0.10655   0.25000   0.00000  Uiso   1.00
O164   O     0.96042   0.22678   0.25000   0.00000  Uiso   1.00
O165   O     0.96039   0.10654   0.25000   0.00000  Uiso   1.00
O166   O     0.70628   0.22679   0.25000   0.00000  Uiso   1.00
O167   O     0.68519   0.16668   0.31492   0.00000  Uiso   1.00
O168   O     0.98148   0.16666   0.18508   0.00000  Uiso   1.00
O169   O     0.93933   0.16667   0.31492   0.00000  Uiso   1.00
O170   O     0.72733   0.16667   0.18508   0.00000  Uiso   1.00
H171   H     0.93464   0.14133   0.04372   0.00000  Uiso   1.00
H172   H     0.73203   0.19200   0.45628   0.00000  Uiso   1.00
F173   F     0.78085   0.13393   0.11421   0.00000  Uiso   1.00
F174   F     0.88581   0.19941   0.38579   0.00000  Uiso   1.00
F175   F     0.96460   0.19609   0.11116   0.00000  Uiso   1.00
F176   F     0.70206   0.13725   0.38884   0.00000  Uiso   1.00
H177   H     0.99755   0.13257   0.47438   0.00000  Uiso   1.00
H178   H     0.66911   0.20076   0.02562   0.00000  Uiso   1.00
H179   H     0.85377   0.15805   0.08306   0.00000  Uiso   1.00
H180   H     0.81290   0.17528   0.41693   0.00000  Uiso   1.00
F181   F     0.91992   0.03983   0.23646   0.00000  Uiso   1.00
F182   F     0.74675   0.29350   0.26354   0.00000  Uiso   1.00
H183   H     0.92890   0.29509   0.23839   0.00000  Uiso   1.00
H184   H     0.73777   0.03824   0.26161   0.00000  Uiso   1.00
H185   H     0.77471   0.12246   0.30205   0.00000  Uiso   1.00
H186   H     0.89196   0.21087   0.19795   0.00000  Uiso   1.00
C187   C     0.33319   0.42069   0.24987   0.00000  Uiso   1.00
C188   C     0.00014   0.57931   0.25013   0.00000  Uiso   1.00
C189   C     0.19461   0.49023   0.04710   0.00000  Uiso   1.00
C190   C     0.13872   0.50977   0.45289   0.00000  Uiso   1.00
C191   C     0.24239   0.48227   0.02451   0.00000  Uiso   1.00
C192   C     0.09094   0.51773   0.47549   0.00000  Uiso   1.00
C193   C     0.29282   0.35401   0.24341   0.00000  Uiso   1.00
C194   C     0.04051   0.64599   0.25659   0.00000  Uiso   1.00
C195   C     0.29339   0.64486   0.24364   0.00000  Uiso   1.00
C196   C     0.03994   0.35514   0.25636   0.00000  Uiso   1.00
C197   C     0.00042   0.62392   0.25017   0.00000  Uiso   1.00
C198   C     0.33292   0.37608   0.24983   0.00000  Uiso   1.00
C199   C     0.18308   0.47544   0.27892   0.00000  Uiso   1.00
C200   C     0.15025   0.52456   0.22108   0.00000  Uiso   1.00
C201   C     0.13346   0.47548   0.27893   0.00000  Uiso   1.00
C202   C     0.19987   0.52453   0.22107   0.00000  Uiso   1.00
C203   C     0.30622   0.49989   0.33615   0.00000  Uiso   1.00
C204   C     0.02711   0.50011   0.16385   0.00000  Uiso   1.00
C205   C     0.29139   0.49736   0.38536   0.00000  Uiso   1.00
C206   C     0.04195   0.50264   0.11464   0.00000  Uiso   1.00
C207   C     0.30601   0.47699   0.45591   0.00000  Uiso   1.00
C208   C     0.02732   0.52301   0.04409   0.00000  Uiso   1.00
C209   C     0.32249   0.48155   0.40963   0.00000  Uiso   1.00
C210   C     0.01084   0.51845   0.09037   0.00000  Uiso   1.00
C211   C     0.24394   0.50867   0.40797   0.00000  Uiso   1.00
C212   C     0.08939   0.49133   0.09203   0.00000  Uiso   1.00
C213   C     0.22471   0.49889   0.45372   0.00000  Uiso   1.00
C214   C     0.10863   0.50111   0.04628   0.00000  Uiso   1.00
C215   C     0.25761   0.48555   0.47807   0.00000  Uiso   1.00
C216   C     0.07572   0.51445   0.02193   0.00000  Uiso   1.00
C217   C     0.17438   0.50259   0.47627   0.00000  Uiso   1.00
C218   C     0.15896   0.49741   0.02373   0.00000  Uiso   1.00
Cu219  Cu    0.04689   0.50001   0.25000   0.00000  Uiso   1.00
Cu220  Cu    0.28645   0.49999   0.25000   0.00000  Uiso   1.00
H221   H     0.19506   0.45570   0.30204   0.00000  Uiso   1.00
H222   H     0.13827   0.54430   0.19796   0.00000  Uiso   1.00
N223   N     0.11736   0.50001   0.24999   0.00000  Uiso   1.00
N224   N     0.21597   0.49999   0.25001   0.00000  Uiso   1.00
O225   O     0.03958   0.43989   0.25000   0.00000  Uiso   1.00
O226   O     0.29375   0.56011   0.25000   0.00000  Uiso   1.00
O227   O     0.29372   0.43988   0.25000   0.00000  Uiso   1.00
O228   O     0.03961   0.56012   0.25000   0.00000  Uiso   1.00
O229   O     0.01852   0.50001   0.31492   0.00000  Uiso   1.00
O230   O     0.31481   0.49999   0.18508   0.00000  Uiso   1.00
O231   O     0.27267   0.50000   0.31492   0.00000  Uiso   1.00
O232   O     0.06067   0.50000   0.18508   0.00000  Uiso   1.00
H233   H     0.26797   0.47466   0.04372   0.00000  Uiso   1.00
H234   H     0.06536   0.52534   0.45628   0.00000  Uiso   1.00
F235   F     0.11419   0.46726   0.11421   0.00000  Uiso   1.00
F236   F     0.21915   0.53274   0.38579   0.00000  Uiso   1.00
F237   F     0.29794   0.52942   0.11116   0.00000  Uiso   1.00
F238   F     0.03540   0.47058   0.38884   0.00000  Uiso   1.00
H239   H     0.33089   0.46591   0.47438   0.00000  Uiso   1.00
H240   H     0.00245   0.53409   0.02562   0.00000  Uiso   1.00
H241   H     0.18710   0.49139   0.08306   0.00000  Uiso   1.00
H242   H     0.14623   0.50861   0.41693   0.00000  Uiso   1.00
F243   F     0.25325   0.37316   0.23646   0.00000  Uiso   1.00
F244   F     0.08008   0.62684   0.26354   0.00000  Uiso   1.00
H245   H     0.26223   0.62843   0.23839   0.00000  Uiso   1.00
H246   H     0.07110   0.37157   0.26161   0.00000  Uiso   1.00
H247   H     0.10804   0.45580   0.30205   0.00000  Uiso   1.00
H248   H     0.22529   0.54420   0.19795   0.00000  Uiso   1.00
C249   C     0.66652   0.42069   0.24987   0.00000  Uiso   1.00
C250   C     0.33348   0.57931   0.25013   0.00000  Uiso   1.00
C251   C     0.52795   0.49023   0.04710   0.00000  Uiso   1.00
C252   C     0.47205   0.50977   0.45289   0.00000  Uiso   1.00
C253   C     0.57573   0.48227   0.02451   0.00000  Uiso   1.00
C254   C     0.42427   0.51773   0.47549   0.00000  Uiso   1.00
C255   C     0.62615   0.35401   0.24341   0.00000  Uiso   1.00
C256   C     0.37385   0.64599   0.25659   0.00000  Uiso   1.00
C257   C     0.62673   0.64486   0.24364   0.00000  Uiso   1.00
C258   C     0.37327   0.35514   0.25636   0.00000  Uiso   1.00
C259   C     0.33375   0.62392   0.25017   0.00000  Uiso   1.00
C260   C     0.66625   0.37608   0.24983   0.00000  Uiso   1.00
C261   C     0.51641   0.47544   0.27892   0.00000  Uiso   1.00
C262   C     0.48359   0.52456   0.22108   0.00000  Uiso   1.00
C263   C     0.46680   0.47548   0.27893   0.00000  Uiso   1.00
C264   C     0.53320   0.52453   0.22107   0.00000  Uiso   1.00
C265   C     0.63955   0.49989   0.33615   0.00000  Uiso   1.00
C266   C     0.36045   0.50011   0.16385   0.00000  Uiso   1.00
C267   C     0.62472   0.49736   0.38536   0.00000  Uiso   1.00
C268   C     0.37528   0.50264   0.11464   0.00000  Uiso   1.00
C269   C     0.63935   0.47699   0.45591   0.00000  Uiso   1.00
C270   C     0.36065   0.52301   0.04409   0.00000  Uiso   1.00
C271   C     0.65583   0.48155   0.40963   0.00000  Uiso   1.00
C272   C     0.34417   0.51845   0.09037   0.00000  Uiso   1.00
C273   C     0.57728   0.50867   0.40797   0.00000  Uiso   1.00
C274   C     0.42272   0.49133   0.09203   0.00000  Uiso   1.00
C275   C     0.55804   0.49889   0.45372   0.00000  Uiso   1.00
C276   C     0.44196   0.50111   0.04628   0.00000  Uiso   1.00
C277   C     0.59094   0.48555   0.47807   0.00000  Uiso   1.00
C278   C     0.40906   0.51445   0.02193   0.00000  Uiso   1.00
C279   C     0.50771   0.50259   0.47627   0.00000  Uiso   1.00
C280   C     0.49229   0.49741   0.02373   0.00000  Uiso   1.00
Cu281  Cu    0.38022   0.50001   0.25000   0.00000  Uiso   1.00
Cu282  Cu    0.61978   0.49999   0.25000   0.00000  Uiso   1.00
H283   H     0.52840   0.45570   0.30204   0.00000  Uiso   1.00
H284   H     0.47160   0.54430   0.19796   0.00000  Uiso   1.00
N285   N     0.45069   0.50001   0.24999   0.00000  Uiso   1.00
N286   N     0.54931   0.49999   0.25001   0.00000  Uiso   1.00
O287   O     0.37291   0.43989   0.25000   0.00000  Uiso   1.00
O288   O     0.62709   0.56011   0.25000   0.00000  Uiso   1.00
O289   O     0.62706   0.43988   0.25000   0.00000  Uiso   1.00
O290   O     0.37294   0.56012   0.25000   0.00000  Uiso   1.00
O291   O     0.35186   0.50001   0.31492   0.00000  Uiso   1.00
O292   O     0.64814   0.49999   0.18508   0.00000  Uiso   1.00
O293   O     0.60600   0.50000   0.31492   0.00000  Uiso   1.00
O294   O     0.39400   0.50000   0.18508   0.00000  Uiso   1.00
H295   H     0.60130   0.47466   0.04372   0.00000  Uiso   1.00
H296   H     0.39870   0.52534   0.45628   0.00000  Uiso   1.00
F297   F     0.44752   0.46726   0.11421   0.00000  Uiso   1.00
F298   F     0.55248   0.53274   0.38579   0.00000  Uiso   1.00
F299   F     0.63127   0.52942   0.11116   0.00000  Uiso   1.00
F300   F     0.36873   0.47058   0.38884   0.00000  Uiso   1.00
H301   H     0.66422   0.46591   0.47438   0.00000  Uiso   1.00
H302   H     0.33578   0.53409   0.02562   0.00000  Uiso   1.00
H303   H     0.52044   0.49139   0.08306   0.00000  Uiso   1.00
H304   H     0.47956   0.50861   0.41693   0.00000  Uiso   1.00
F305   F     0.58659   0.37316   0.23646   0.00000  Uiso   1.00
F306   F     0.41341   0.62684   0.26354   0.00000  Uiso   1.00
H307   H     0.59557   0.62843   0.23839   0.00000  Uiso   1.00
H308   H     0.40443   0.37157   0.26161   0.00000  Uiso   1.00
H309   H     0.44137   0.45580   0.30205   0.00000  Uiso   1.00
H310   H     0.55863   0.54420   0.19795   0.00000  Uiso   1.00
C311   C     0.99986   0.42069   0.24987   0.00000  Uiso   1.00
C312   C     0.66681   0.57931   0.25013   0.00000  Uiso   1.00
C313   C     0.86128   0.49023   0.04710   0.00000  Uiso   1.00
C314   C     0.80539   0.50977   0.45289   0.00000  Uiso   1.00
C315   C     0.90906   0.48227   0.02451   0.00000  Uiso   1.00
C316   C     0.75761   0.51773   0.47549   0.00000  Uiso   1.00
C317   C     0.95949   0.35401   0.24341   0.00000  Uiso   1.00
C318   C     0.70718   0.64599   0.25659   0.00000  Uiso   1.00
C319   C     0.96006   0.64486   0.24364   0.00000  Uiso   1.00
C320   C     0.70661   0.35514   0.25636   0.00000  Uiso   1.00
C321   C     0.66708   0.62392   0.25017   0.00000  Uiso   1.00
C322   C     0.99958   0.37608   0.24983   0.00000  Uiso   1.00
C323   C     0.84975   0.47544   0.27892   0.00000  Uiso   1.00
C324   C     0.81692   0.52456   0.22108   0.00000  Uiso   1.00
C325   C     0.80013   0.47548   0.27893   0.00000  Uiso   1.00
C326   C     0.86654   0.52453   0.22107   0.00000  Uiso   1.00
C327   C     0.97289   0.49989   0.33615   0.00000  Uiso   1.00
C328   C     0.69378   0.50011   0.16385   0.00000  Uiso   1.00
C329   C     0.95805   0.49736   0.38536   0.00000  Uiso   1.00
C330   C     0.70861   0.50264   0.11464   0.00000  Uiso   1.00
C331   C     0.97268   0.47699   0.45591   0.00000  Uiso   1.00
C332   C     0.69399   0.52301   0.04409   0.00000  Uiso   1.00
C333   C     0.98916   0.48155   0.40963   0.00000  Uiso   1.00
C334   C     0.67751   0.51845   0.09037   0.00000  Uiso   1.00
C335   C     0.91061   0.50867   0.40797   0.00000  Uiso   1.00
C336   C     0.75606   0.49133   0.09203   0.00000  Uiso   1.00
C337   C     0.89138   0.49889   0.45372   0.00000  Uiso   1.00
C338   C     0.77529   0.50111   0.04628   0.00000  Uiso   1.00
C339   C     0.92428   0.48555   0.47807   0.00000  Uiso   1.00
C340   C     0.74239   0.51445   0.02193   0.00000  Uiso   1.00
C341   C     0.84104   0.50259   0.47627   0.00000  Uiso   1.00
C342   C     0.82562   0.49741   0.02373   0.00000  Uiso   1.00
Cu343  Cu    0.71355   0.50001   0.25000   0.00000  Uiso   1.00
Cu344  Cu    0.95311   0.49999   0.25000   0.00000  Uiso   1.00
H345   H     0.86173   0.45570   0.30204   0.00000  Uiso   1.00
H346   H     0.80494   0.54430   0.19796   0.00000  Uiso   1.00
N347   N     0.78403   0.50001   0.24999   0.00000  Uiso   1.00
N348   N     0.88264   0.49999   0.25001   0.00000  Uiso   1.00
O349   O     0.70625   0.43989   0.25000   0.00000  Uiso   1.00
O350   O     0.96042   0.56011   0.25000   0.00000  Uiso   1.00
O351   O     0.96039   0.43988   0.25000   0.00000  Uiso   1.00
O352   O     0.70628   0.56012   0.25000   0.00000  Uiso   1.00
O353   O     0.68519   0.50001   0.31492   0.00000  Uiso   1.00
O354   O     0.98148   0.49999   0.18508   0.00000  Uiso   1.00
O355   O     0.93933   0.50000   0.31492   0.00000  Uiso   1.00
O356   O     0.72733   0.50000   0.18508   0.00000  Uiso   1.00
H357   H     0.93464   0.47466   0.04372   0.00000  Uiso   1.00
H358   H     0.73203   0.52534   0.45628   0.00000  Uiso   1.00
F359   F     0.78085   0.46726   0.11421   0.00000  Uiso   1.00
F360   F     0.88581   0.53274   0.38579   0.00000  Uiso   1.00
F361   F     0.96460   0.52942   0.11116   0.00000  Uiso   1.00
F362   F     0.70206   0.47058   0.38884   0.00000  Uiso   1.00
H363   H     0.99755   0.46591   0.47438   0.00000  Uiso   1.00
H364   H     0.66911   0.53409   0.02562   0.00000  Uiso   1.00
H365   H     0.85377   0.49139   0.08306   0.00000  Uiso   1.00
H366   H     0.81290   0.50861   0.41693   0.00000  Uiso   1.00
F367   F     0.91992   0.37316   0.23646   0.00000  Uiso   1.00
F368   F     0.74675   0.62684   0.26354   0.00000  Uiso   1.00
H369   H     0.92890   0.62843   0.23839   0.00000  Uiso   1.00
H370   H     0.73777   0.37157   0.26161   0.00000  Uiso   1.00
H371   H     0.77471   0.45580   0.30205   0.00000  Uiso   1.00
H372   H     0.89196   0.54420   0.19795   0.00000  Uiso   1.00
C373   C     0.33319   0.75402   0.24987   0.00000  Uiso   1.00
C374   C     0.00014   0.91264   0.25013   0.00000  Uiso   1.00
C375   C     0.19461   0.82357   0.04710   0.00000  Uiso   1.00
C376   C     0.13872   0.84310   0.45289   0.00000  Uiso   1.00
C377   C     0.24239   0.81560   0.02451   0.00000  Uiso   1.00
C378   C     0.09094   0.85107   0.47549   0.00000  Uiso   1.00
C379   C     0.29282   0.68734   0.24341   0.00000  Uiso   1.00
C380   C     0.04051   0.97933   0.25659   0.00000  Uiso   1.00
C381   C     0.29339   0.97820   0.24364   0.00000  Uiso   1.00
C382   C     0.03994   0.68847   0.25636   0.00000  Uiso   1.00
C383   C     0.00042   0.95726   0.25017   0.00000  Uiso   1.00
C384   C     0.33292   0.70941   0.24983   0.00000  Uiso   1.00
C385   C     0.18308   0.80877   0.27892   0.00000  Uiso   1.00
C386   C     0.15025   0.85789   0.22108   0.00000  Uiso   1.00
C387   C     0.13346   0.80881   0.27893   0.00000  Uiso   1.00
C388   C     0.19987   0.85786   0.22107   0.00000  Uiso   1.00
C389   C     0.30622   0.83322   0.33615   0.00000  Uiso   1.00
C390   C     0.02711   0.83344   0.16385   0.00000  Uiso   1.00
C391   C     0.29139   0.83070   0.38536   0.00000  Uiso   1.00
C392   C     0.04195   0.83597   0.11464   0.00000  Uiso   1.00
C393   C     0.30601   0.81032   0.45591   0.00000  Uiso   1.00
C394   C     0.02732   0.85635   0.04409   0.00000  Uiso   1.00
C395   C     0.32249   0.81488   0.40963   0.00000  Uiso   1.00
C396   C     0.01084   0.85178   0.09037   0.00000  Uiso   1.00
C397   C     0.24394   0.84200   0.40797   0.00000  Uiso   1.00
C398   C     0.08939   0.82466   0.09203   0.00000  Uiso   1.00
C399   C     0.22471   0.83223   0.45372   0.00000  Uiso   1.00
C400   C     0.10863   0.83444   0.04628   0.00000  Uiso   1.00
C401   C     0.25761   0.81888   0.47807   0.00000  Uiso   1.00
C402   C     0.07572   0.84778   0.02193   0.00000  Uiso   1.00
C403   C     0.17438   0.83592   0.47627   0.00000  Uiso   1.00
C404   C     0.15896   0.83074   0.02373   0.00000  Uiso   1.00
Cu405  Cu    0.04689   0.83334   0.25000   0.00000  Uiso   1.00
Cu406  Cu    0.28645   0.83333   0.25000   0.00000  Uiso   1.00
H407   H     0.19506   0.78904   0.30204   0.00000  Uiso   1.00
H408   H     0.13827   0.87763   0.19796   0.00000  Uiso   1.00
N409   N     0.11736   0.83334   0.24999   0.00000  Uiso   1.00
N410   N     0.21597   0.83332   0.25001   0.00000  Uiso   1.00
O411   O     0.03958   0.77322   0.25000   0.00000  Uiso   1.00
O412   O     0.29375   0.89345   0.25000   0.00000  Uiso   1.00
O413   O     0.29372   0.77321   0.25000   0.00000  Uiso   1.00
O414   O     0.03961   0.89346   0.25000   0.00000  Uiso   1.00
O415   O     0.01852   0.83334   0.31492   0.00000  Uiso   1.00
O416   O     0.31481   0.83332   0.18508   0.00000  Uiso   1.00
O417   O     0.27267   0.83333   0.31492   0.00000  Uiso   1.00
O418   O     0.06067   0.83333   0.18508   0.00000  Uiso   1.00
H419   H     0.26797   0.80799   0.04372   0.00000  Uiso   1.00
H420   H     0.06536   0.85867   0.45628   0.00000  Uiso   1.00
F421   F     0.11419   0.80059   0.11421   0.00000  Uiso   1.00
F422   F     0.21915   0.86607   0.38579   0.00000  Uiso   1.00
F423   F     0.29794   0.86275   0.11116   0.00000  Uiso   1.00
F424   F     0.03540   0.80391   0.38884   0.00000  Uiso   1.00
H425   H     0.33089   0.79924   0.47438   0.00000  Uiso   1.00
H426   H     0.00245   0.86743   0.02562   0.00000  Uiso   1.00
H427   H     0.18710   0.82472   0.08306   0.00000  Uiso   1.00
H428   H     0.14623   0.84194   0.41693   0.00000  Uiso   1.00
F429   F     0.25325   0.70650   0.23646   0.00000  Uiso   1.00
F430   F     0.08008   0.96017   0.26354   0.00000  Uiso   1.00
H431   H     0.26223   0.96176   0.23839   0.00000  Uiso   1.00
H432   H     0.07110   0.70491   0.26161   0.00000  Uiso   1.00
H433   H     0.10804   0.78913   0.30205   0.00000  Uiso   1.00
H434   H     0.22529   0.87754   0.19795   0.00000  Uiso   1.00
C435   C     0.66652   0.75402   0.24987   0.00000  Uiso   1.00
C436   C     0.33348   0.91264   0.25013   0.00000  Uiso   1.00
C437   C     0.52795   0.82357   0.04710   0.00000  Uiso   1.00
C438   C     0.47205   0.84310   0.45289   0.00000  Uiso   1.00
C439   C     0.57573   0.81560   0.02451   0.00000  Uiso   1.00
C440   C     0.42427   0.85107   0.47549   0.00000  Uiso   1.00
C441   C     0.62615   0.68734   0.24341   0.00000  Uiso   1.00
C442   C     0.37385   0.97933   0.25659   0.00000  Uiso   1.00
C443   C     0.62673   0.97820   0.24364   0.00000  Uiso   1.00
C444   C     0.37327   0.68847   0.25636   0.00000  Uiso   1.00
C445   C     0.33375   0.95726   0.25017   0.00000  Uiso   1.00
C446   C     0.66625   0.70941   0.24983   0.00000  Uiso   1.00
C447   C     0.51641   0.80877   0.27892   0.00000  Uiso   1.00
C448   C     0.48359   0.85789   0.22108   0.00000  Uiso   1.00
C449   C     0.46680   0.80881   0.27893   0.00000  Uiso   1.00
C450   C     0.53320   0.85786   0.22107   0.00000  Uiso   1.00
C451   C     0.63955   0.83322   0.33615   0.00000  Uiso   1.00
C452   C     0.36045   0.83344   0.16385   0.00000  Uiso   1.00
C453   C     0.62472   0.83070   0.38536   0.00000  Uiso   1.00
C454   C     0.37528   0.83597   0.11464   0.00000  Uiso   1.00
C455   C     0.63935   0.81032   0.45591   0.00000  Uiso   1.00
C456   C     0.36065   0.85635   0.04409   0.00000  Uiso   1.00
C457   C     0.65583   0.81488   0.40963   0.00000  Uiso   1.00
C458   C     0.34417   0.85178   0.09037   0.00000  Uiso   1.00
C459   C     0.57728   0.84200   0.40797   0.00000  Uiso   1.00
C460   C     0.42272   0.82466   0.09203   0.00000  Uiso   1.00
C461   C     0.55804   0.83223   0.45372   0.00000  Uiso   1.00
C462   C     0.44196   0.83444   0.04628   0.00000  Uiso   1.00
C463   C     0.59094   0.81888   0.47807   0.00000  Uiso   1.00
C464   C     0.40906   0.84778   0.02193   0.00000  Uiso   1.00
C465   C     0.50771   0.83592   0.47627   0.00000  Uiso   1.00
C466   C     0.49229   0.83074   0.02373   0.00000  Uiso   1.00
Cu467  Cu    0.38022   0.83334   0.25000   0.00000  Uiso   1.00
Cu468  Cu    0.61978   0.83333   0.25000   0.00000  Uiso   1.00
H469   H     0.52840   0.78904   0.30204   0.00000  Uiso   1.00
H470   H     0.47160   0.87763   0.19796   0.00000  Uiso   1.00
N471   N     0.45069   0.83334   0.24999   0.00000  Uiso   1.00
N472   N     0.54931   0.83332   0.25001   0.00000  Uiso   1.00
O473   O     0.37291   0.77322   0.25000   0.00000  Uiso   1.00
O474   O     0.62709   0.89345   0.25000   0.00000  Uiso   1.00
O475   O     0.62706   0.77321   0.25000   0.00000  Uiso   1.00
O476   O     0.37294   0.89346   0.25000   0.00000  Uiso   1.00
O477   O     0.35186   0.83334   0.31492   0.00000  Uiso   1.00
O478   O     0.64814   0.83332   0.18508   0.00000  Uiso   1.00
O479   O     0.60600   0.83333   0.31492   0.00000  Uiso   1.00
O480   O     0.39400   0.83333   0.18508   0.00000  Uiso   1.00
H481   H     0.60130   0.80799   0.04372   0.00000  Uiso   1.00
H482   H     0.39870   0.85867   0.45628   0.00000  Uiso   1.00
F483   F     0.44752   0.80059   0.11421   0.00000  Uiso   1.00
F484   F     0.55248   0.86607   0.38579   0.00000  Uiso   1.00
F485   F     0.63127   0.86275   0.11116   0.00000  Uiso   1.00
F486   F     0.36873   0.80391   0.38884   0.00000  Uiso   1.00
H487   H     0.66422   0.79924   0.47438   0.00000  Uiso   1.00
H488   H     0.33578   0.86743   0.02562   0.00000  Uiso   1.00
H489   H     0.52044   0.82472   0.08306   0.00000  Uiso   1.00
H490   H     0.47956   0.84194   0.41693   0.00000  Uiso   1.00
F491   F     0.58659   0.70650   0.23646   0.00000  Uiso   1.00
F492   F     0.41341   0.96017   0.26354   0.00000  Uiso   1.00
H493   H     0.59557   0.96176   0.23839   0.00000  Uiso   1.00
H494   H     0.40443   0.70491   0.26161   0.00000  Uiso   1.00
H495   H     0.44137   0.78913   0.30205   0.00000  Uiso   1.00
H496   H     0.55863   0.87754   0.19795   0.00000  Uiso   1.00
C497   C     0.99986   0.75402   0.24987   0.00000  Uiso   1.00
C498   C     0.66681   0.91264   0.25013   0.00000  Uiso   1.00
C499   C     0.86128   0.82357   0.04710   0.00000  Uiso   1.00
C500   C     0.80539   0.84310   0.45289   0.00000  Uiso   1.00
C501   C     0.90906   0.81560   0.02451   0.00000  Uiso   1.00
C502   C     0.75761   0.85107   0.47549   0.00000  Uiso   1.00
C503   C     0.95949   0.68734   0.24341   0.00000  Uiso   1.00
C504   C     0.70718   0.97933   0.25659   0.00000  Uiso   1.00
C505   C     0.96006   0.97820   0.24364   0.00000  Uiso   1.00
C506   C     0.70661   0.68847   0.25636   0.00000  Uiso   1.00
C507   C     0.66708   0.95726   0.25017   0.00000  Uiso   1.00
C508   C     0.99958   0.70941   0.24983   0.00000  Uiso   1.00
C509   C     0.84975   0.80877   0.27892   0.00000  Uiso   1.00
C510   C     0.81692   0.85789   0.22108   0.00000  Uiso   1.00
C511   C     0.80013   0.80881   0.27893   0.00000  Uiso   1.00
C512   C     0.86654   0.85786   0.22107   0.00000  Uiso   1.00
C513   C     0.97289   0.83322   0.33615   0.00000  Uiso   1.00
C514   C     0.69378   0.83344   0.16385   0.00000  Uiso   1.00
C515   C     0.95805   0.83070   0.38536   0.00000  Uiso   1.00
C516   C     0.70861   0.83597   0.11464   0.00000  Uiso   1.00
C517   C     0.97268   0.81032   0.45591   0.00000  Uiso   1.00
C518   C     0.69399   0.85635   0.04409   0.00000  Uiso   1.00
C519   C     0.98916   0.81488   0.40963   0.00000  Uiso   1.00
C520   C     0.67751   0.85178   0.09037   0.00000  Uiso   1.00
C521   C     0.91061   0.84200   0.40797   0.00000  Uiso   1.00
C522   C     0.75606   0.82466   0.09203   0.00000  Uiso   1.00
C523   C     0.89138   0.83223   0.45372   0.00000  Uiso   1.00
C524   C     0.77529   0.83444   0.04628   0.00000  Uiso   1.00
C525   C     0.92428   0.81888   0.47807   0.00000  Uiso   1.00
C526   C     0.74239   0.84778   0.02193   0.00000  Uiso   1.00
C527   C     0.84104   0.83592   0.47627   0.00000  Uiso   1.00
C528   C     0.82562   0.83074   0.02373   0.00000  Uiso   1.00
Cu529  Cu    0.71355   0.83334   0.25000   0.00000  Uiso   1.00
Cu530  Cu    0.95311   0.83333   0.25000   0.00000  Uiso   1.00
H531   H     0.86173   0.78904   0.30204   0.00000  Uiso   1.00
H532   H     0.80494   0.87763   0.19796   0.00000  Uiso   1.00
N533   N     0.78403   0.83334   0.24999   0.00000  Uiso   1.00
N534   N     0.88264   0.83332   0.25001   0.00000  Uiso   1.00
O535   O     0.70625   0.77322   0.25000   0.00000  Uiso   1.00
O536   O     0.96042   0.89345   0.25000   0.00000  Uiso   1.00
O537   O     0.96039   0.77321   0.25000   0.00000  Uiso   1.00
O538   O     0.70628   0.89346   0.25000   0.00000  Uiso   1.00
O539   O     0.68519   0.83334   0.31492   0.00000  Uiso   1.00
O540   O     0.98148   0.83332   0.18508   0.00000  Uiso   1.00
O541   O     0.93933   0.83333   0.31492   0.00000  Uiso   1.00
O542   O     0.72733   0.83333   0.18508   0.00000  Uiso   1.00
H543   H     0.93464   0.80799   0.04372   0.00000  Uiso   1.00
H544   H     0.73203   0.85867   0.45628   0.00000  Uiso   1.00
F545   F     0.78085   0.80059   0.11421   0.00000  Uiso   1.00
F546   F     0.88581   0.86607   0.38579   0.00000  Uiso   1.00
F547   F     0.96460   0.86275   0.11116   0.00000  Uiso   1.00
F548   F     0.70206   0.80391   0.38884   0.00000  Uiso   1.00
H549   H     0.99755   0.79924   0.47438   0.00000  Uiso   1.00
H550   H     0.66911   0.86743   0.02562   0.00000  Uiso   1.00
H551   H     0.85377   0.82472   0.08306   0.00000  Uiso   1.00
H552   H     0.81290   0.84194   0.41693   0.00000  Uiso   1.00
F553   F     0.91992   0.70650   0.23646   0.00000  Uiso   1.00
F554   F     0.74675   0.96017   0.26354   0.00000  Uiso   1.00
H555   H     0.92890   0.96176   0.23839   0.00000  Uiso   1.00
H556   H     0.73777   0.70491   0.26161   0.00000  Uiso   1.00
H557   H     0.77471   0.78913   0.30205   0.00000  Uiso   1.00
H558   H     0.89196   0.87754   0.19795   0.00000  Uiso   1.00
C559   C     0.33319   0.08736   0.74987   0.00000  Uiso   1.00
C560   C     0.00014   0.24598   0.75013   0.00000  Uiso   1.00
C561   C     0.19461   0.15690   0.54710   0.00000  Uiso   1.00
C562   C     0.13872   0.17643   0.95289   0.00000  Uiso   1.00
C563   C     0.24239   0.14893   0.52451   0.00000  Uiso   1.00
C564   C     0.09094   0.18440   0.97549   0.00000  Uiso   1.00
C565   C     0.29282   0.02067   0.74341   0.00000  Uiso   1.00
C566   C     0.04051   0.31266   0.75659   0.00000  Uiso   1.00
C567   C     0.29339   0.31153   0.74364   0.00000  Uiso   1.00
C568   C     0.03994   0.02180   0.75636   0.00000  Uiso   1.00
C569   C     0.00042   0.29059   0.75017   0.00000  Uiso   1.00
C570   C     0.33292   0.04274   0.74983   0.00000  Uiso   1.00
C571   C     0.18308   0.14211   0.77892   0.00000  Uiso   1.00
C572   C     0.15025   0.19123   0.72108   0.00000  Uiso   1.00
C573   C     0.13346   0.14214   0.77893   0.00000  Uiso   1.00
C574   C     0.19987   0.19119   0.72107   0.00000  Uiso   1.00
C575   C     0.30622   0.16656   0.83615   0.00000  Uiso   1.00
C576   C     0.02711   0.16678   0.66385   0.00000  Uiso   1.00
C577   C     0.29139   0.16403   0.88536   0.00000  Uiso   1.00
C578   C     0.04195   0.16930   0.61464   0.00000  Uiso   1.00
C579   C     0.30601   0.14365   0.95591   0.00000  Uiso   1.00
C580   C     0.02732   0.18968   0.54409   0.00000  Uiso   1.00
C581   C     0.32249   0.14822   0.90963   0.00000  Uiso   1.00
C582   C     0.01084   0.18512   0.59037   0.00000  Uiso   1.00
C583   C     0.24394   0.17534   0.90797   0.00000  Uiso   1.00
C584   C     0.08939   0.15800   0.59203   0.00000  Uiso   1.00
C585   C     0.22471   0.16556   0.95372   0.00000  Uiso   1.00
C586   C     0.10863   0.16777   0.54628   0.00000  Uiso   1.00
C587   C     0.25761   0.15221   0.97807   0.00000  Uiso   1.00
C588   C     0.07572   0.18112   0.52193   0.00000  Uiso   1.00
C589   C     0.17438   0.16926   0.97627   0.00000  Uiso   1.00
C590   C     0.15896   0.16408   0.52373   0.00000  Uiso   1.00
Cu591  Cu    0.04689   0.16667   0.75000   0.00000  Uiso   1.00
Cu592  Cu    0.28645   0.16666   0.75000   0.00000  Uiso   1.00
H593   H     0.19506   0.12237   0.80204   0.00000  Uiso   1.00
H594   H     0.13827   0.21097   0.69796   0.00000  Uiso   1.00
N595   N     0.11736   0.16668   0.74999   0.00000  Uiso   1.00
N596   N     0.21597   0.16666   0.75001   0.00000  Uiso   1.00
O597   O     0.03958   0.10655   0.75000   0.00000  Uiso   1.00
O598   O     0.29375   0.22678   0.75000   0.00000  Uiso   1.00
O599   O     0.29372   0.10654   0.75000   0.00000  Uiso   1.00
O600   O     0.03961   0.22679   0.75000   0.00000  Uiso   1.00
O601   O     0.01852   0.16668   0.81492   0.00000  Uiso   1.00
O602   O     0.31481   0.16666   0.68508   0.00000  Uiso   1.00
O603   O     0.27267   0.16667   0.81492   0.00000  Uiso   1.00
O604   O     0.06067   0.16667   0.68508   0.00000  Uiso   1.00
H605   H     0.26797   0.14133   0.54372   0.00000  Uiso   1.00
H606   H     0.06536   0.19200   0.95628   0.00000  Uiso   1.00
F607   F     0.11419   0.13393   0.61421   0.00000  Uiso   1.00
F608   F     0.21915   0.19941   0.88579   0.00000  Uiso   1.00
F609   F     0.29794   0.19609   0.61116   0.00000  Uiso   1.00
F610   F     0.03540   0.13725   0.88884   0.00000  Uiso   1.00
H611   H     0.33089   0.13257   0.97438   0.00000  Uiso   1.00
H612   H     0.00245   0.20076   0.52562   0.00000  Uiso   1.00
H613   H     0.18710   0.15805   0.58306   0.00000  Uiso   1.00
H614   H     0.14623   0.17528   0.91693   0.00000  Uiso   1.00
F615   F     0.25325   0.03983   0.73646   0.00000  Uiso   1.00
F616   F     0.08008   0.29350   0.76354   0.00000  Uiso   1.00
H617   H     0.26223   0.29509   0.73839   0.00000  Uiso   1.00
H618   H     0.07110   0.03824   0.76161   0.00000  Uiso   1.00
H619   H     0.10804   0.12246   0.80205   0.00000  Uiso   1.00
H620   H     0.22529   0.21087   0.69795   0.00000  Uiso   1.00
C621   C     0.66652   0.08736   0.74987   0.00000  Uiso   1.00
C622   C     0.33348   0.24598   0.75013   0.00000  Uiso   1.00
C623   C     0.52795   0.15690   0.54710   0.00000  Uiso   1.00
C624   C     0.47205   0.17643   0.95289   0.00000  Uiso   1.00
C625   C     0.57573   0.14893   0.52451   0.00000  Uiso   1.00
C626   C     0.42427   0.18440   0.97549   0.00000  Uiso   1.00
C627   C     0.62615   0.02067   0.74341   0.00000  Uiso   1.00
C628   C     0.37385   0.31266   0.75659   0.00000  Uiso   1.00
C629   C     0.62673   0.31153   0.74364   0.00000  Uiso   1.00
C630   C     0.37327   0.02180   0.75636   0.00000  Uiso   1.00
C631   C     0.33375   0.29059   0.75017   0.00000  Uiso   1.00
C632   C     0.66625   0.04274   0.74983   0.00000  Uiso   1.00
C633   C     0.51641   0.14211   0.77892   0.00000  Uiso   1.00
C634   C     0.48359   0.19123   0.72108   0.00000  Uiso   1.00
C635   C     0.46680   0.14214   0.77893   0.00000  Uiso   1.00
C636   C     0.53320   0.19119   0.72107   0.00000  Uiso   1.00
C637   C     0.63955   0.16656   0.83615   0.00000  Uiso   1.00
C638   C     0.36045   0.16678   0.66385   0.00000  Uiso   1.00
C639   C     0.62472   0.16403   0.88536   0.00000  Uiso   1.00
C640   C     0.37528   0.16930   0.61464   0.00000  Uiso   1.00
C641   C     0.63935   0.14365   0.95591   0.00000  Uiso   1.00
C642   C     0.36065   0.18968   0.54409   0.00000  Uiso   1.00
C643   C     0.65583   0.14822   0.90963   0.00000  Uiso   1.00
C644   C     0.34417   0.18512   0.59037   0.00000  Uiso   1.00
C645   C     0.57728   0.17534   0.90797   0.00000  Uiso   1.00
C646   C     0.42272   0.15800   0.59203   0.00000  Uiso   1.00
C647   C     0.55804   0.16556   0.95372   0.00000  Uiso   1.00
C648   C     0.44196   0.16777   0.54628   0.00000  Uiso   1.00
C649   C     0.59094   0.15221   0.97807   0.00000  Uiso   1.00
C650   C     0.40906   0.18112   0.52193   0.00000  Uiso   1.00
C651   C     0.50771   0.16926   0.97627   0.00000  Uiso   1.00
C652   C     0.49229   0.16408   0.52373   0.00000  Uiso   1.00
Cu653  Cu    0.38022   0.16667   0.75000   0.00000  Uiso   1.00
Cu654  Cu    0.61978   0.16666   0.75000   0.00000  Uiso   1.00
H655   H     0.52840   0.12237   0.80204   0.00000  Uiso   1.00
H656   H     0.47160   0.21097   0.69796   0.00000  Uiso   1.00
N657   N     0.45069   0.16668   0.74999   0.00000  Uiso   1.00
N658   N     0.54931   0.16666   0.75001   0.00000  Uiso   1.00
O659   O     0.37291   0.10655   0.75000   0.00000  Uiso   1.00
O660   O     0.62709   0.22678   0.75000   0.00000  Uiso   1.00
O661   O     0.62706   0.10654   0.75000   0.00000  Uiso   1.00
O662   O     0.37294   0.22679   0.75000   0.00000  Uiso   1.00
O663   O     0.35186   0.16668   0.81492   0.00000  Uiso   1.00
O664   O     0.64814   0.16666   0.68508   0.00000  Uiso   1.00
O665   O     0.60600   0.16667   0.81492   0.00000  Uiso   1.00
O666   O     0.39400   0.16667   0.68508   0.00000  Uiso   1.00
H667   H     0.60130   0.14133   0.54372   0.00000  Uiso   1.00
H668   H     0.39870   0.19200   0.95628   0.00000  Uiso   1.00
F669   F     0.44752   0.13393   0.61421   0.00000  Uiso   1.00
F670   F     0.55248   0.19941   0.88579   0.00000  Uiso   1.00
F671   F     0.63127   0.19609   0.61116   0.00000  Uiso   1.00
F672   F     0.36873   0.13725   0.88884   0.00000  Uiso   1.00
H673   H     0.66422   0.13257   0.97438   0.00000  Uiso   1.00
H674   H     0.33578   0.20076   0.52562   0.00000  Uiso   1.00
H675   H     0.52044   0.15805   0.58306   0.00000  Uiso   1.00
H676   H     0.47956   0.17528   0.91693   0.00000  Uiso   1.00
F677   F     0.58659   0.03983   0.73646   0.00000  Uiso   1.00
F678   F     0.41341   0.29350   0.76354   0.00000  Uiso   1.00
H679   H     0.59557   0.29509   0.73839   0.00000  Uiso   1.00
H680   H     0.40443   0.03824   0.76161   0.00000  Uiso   1.00
H681   H     0.44137   0.12246   0.80205   0.00000  Uiso   1.00
H682   H     0.55863   0.21087   0.69795   0.00000  Uiso   1.00
C683   C     0.99986   0.08736   0.74987   0.00000  Uiso   1.00
C684   C     0.66681   0.24598   0.75013   0.00000  Uiso   1.00
C685   C     0.86128   0.15690   0.54710   0.00000  Uiso   1.00
C686   C     0.80539   0.17643   0.95289   0.00000  Uiso   1.00
C687   C     0.90906   0.14893   0.52451   0.00000  Uiso   1.00
C688   C     0.75761   0.18440   0.97549   0.00000  Uiso   1.00
C689   C     0.95949   0.02067   0.74341   0.00000  Uiso   1.00
C690   C     0.70718   0.31266   0.75659   0.00000  Uiso   1.00
C691   C     0.96006   0.31153   0.74364   0.00000  Uiso   1.00
C692   C     0.70661   0.02180   0.75636   0.00000  Uiso   1.00
C693   C     0.66708   0.29059   0.75017   0.00000  Uiso   1.00
C694   C     0.99958   0.04274   0.74983   0.00000  Uiso   1.00
C695   C     0.84975   0.14211   0.77892   0.00000  Uiso   1.00
C696   C     0.81692   0.19123   0.72108   0.00000  Uiso   1.00
C697   C     0.80013   0.14214   0.77893   0.00000  Uiso   1.00
C698   C     0.86654   0.19119   0.72107   0.00000  Uiso   1.00
C699   C     0.97289   0.16656   0.83615   0.00000  Uiso   1.00
C700   C     0.69378   0.16678   0.66385   0.00000  Uiso   1.00
C701   C     0.95805   0.16403   0.88536   0.00000  Uiso   1.00
C702   C     0.70861   0.16930   0.61464   0.00000  Uiso   1.00
C703   C     0.97268   0.14365   0.95591   0.00000  Uiso   1.00
C704   C     0.69399   0.18968   0.54409   0.00000  Uiso   1.00
C705   C     0.98916   0.14822   0.90963   0.00000  Uiso   1.00
C706   C     0.67751   0.18512   0.59037   0.00000  Uiso   1.00
C707   C     0.91061   0.17534   0.90797   0.00000  Uiso   1.00
C708   C     0.75606   0.15800   0.59203   0.00000  Uiso   1.00
C709   C     0.89138   0.16556   0.95372   0.00000  Uiso   1.00
C710   C     0.77529   0.16777   0.54628   0.00000  Uiso   1.00
C711   C     0.92428   0.15221   0.97807   0.00000  Uiso   1.00
C712   C     0.74239   0.18112   0.52193   0.00000  Uiso   1.00
C713   C     0.84104   0.16926   0.97627   0.00000  Uiso   1.00
C714   C     0.82562   0.16408   0.52373   0.00000  Uiso   1.00
Cu715  Cu    0.71355   0.16667   0.75000   0.00000  Uiso   1.00
Cu716  Cu    0.95311   0.16666   0.75000   0.00000  Uiso   1.00
H717   H     0.86173   0.12237   0.80204   0.00000  Uiso   1.00
H718   H     0.80494   0.21097   0.69796   0.00000  Uiso   1.00
N719   N     0.78403   0.16668   0.74999   0.00000  Uiso   1.00
N720   N     0.88264   0.16666   0.75001   0.00000  Uiso   1.00
O721   O     0.70625   0.10655   0.75000   0.00000  Uiso   1.00
O722   O     0.96042   0.22678   0.75000   0.00000  Uiso   1.00
O723   O     0.96039   0.10654   0.75000   0.00000  Uiso   1.00
O724   O     0.70628   0.22679   0.75000   0.00000  Uiso   1.00
O725   O     0.68519   0.16668   0.81492   0.00000  Uiso   1.00
O726   O     0.98148   0.16666   0.68508   0.00000  Uiso   1.00
O727   O     0.93933   0.16667   0.81492   0.00000  Uiso   1.00
O728   O     0.72733   0.16667   0.68508   0.00000  Uiso   1.00
H729   H     0.93464   0.14133   0.54372   0.00000  Uiso   1.00
H730   H     0.73203   0.19200   0.95628   0.00000  Uiso   1.00
F731   F     0.78085   0.13393   0.61421   0.00000  Uiso   1.00
F732   F     0.88581   0.19941   0.88579   0.00000  Uiso   1.00
F733   F     0.96460   0.19609   0.61116   0.00000  Uiso   1.00
F734   F     0.70206   0.13725   0.88884   0.00000  Uiso   1.00
H735   H     0.99755   0.13257   0.97438   0.00000  Uiso   1.00
H736   H     0.66911   0.20076   0.52562   0.00000  Uiso   1.00
H737   H     0.85377   0.15805   0.58306   0.00000  Uiso   1.00
H738   H     0.81290   0.17528   0.91693   0.00000  Uiso   1.00
F739   F     0.91992   0.03983   0.73646   0.00000  Uiso   1.00
F740   F     0.74675   0.29350   0.76354   0.00000  Uiso   1.00
H741   H     0.92890   0.29509   0.73839   0.00000  Uiso   1.00
H742   H     0.73777   0.03824   0.76161   0.00000  Uiso   1.00
H743   H     0.77471   0.12246   0.80205   0.00000  Uiso   1.00
H744   H     0.89196   0.21087   0.69795   0.00000  Uiso   1.00
C745   C     0.33319   0.42069   0.74987   0.00000  Uiso   1.00
C746   C     0.00014   0.57931   0.75013   0.00000  Uiso   1.00
C747   C     0.19461   0.49023   0.54710   0.00000  Uiso   1.00
C748   C     0.13872   0.50977   0.95289   0.00000  Uiso   1.00
C749   C     0.24239   0.48227   0.52451   0.00000  Uiso   1.00
C750   C     0.09094   0.51773   0.97549   0.00000  Uiso   1.00
C751   C     0.29282   0.35401   0.74341   0.00000  Uiso   1.00
C752   C     0.04051   0.64599   0.75659   0.00000  Uiso   1.00
C753   C     0.29339   0.64486   0.74364   0.00000  Uiso   1.00
C754   C     0.03994   0.35514   0.75636   0.00000  Uiso   1.00
C755   C     0.00042   0.62392   0.75017   0.00000  Uiso   1.00
C756   C     0.33292   0.37608   0.74983   0.00000  Uiso   1.00
C757   C     0.18308   0.47544   0.77892   0.00000  Uiso   1.00
C758   C     0.15025   0.52456   0.72108   0.00000  Uiso   1.00
C759   C     0.13346   0.47548   0.77893   0.00000  Uiso   1.00
C760   C     0.19987   0.52453   0.72107   0.00000  Uiso   1.00
C761   C     0.30622   0.49989   0.83615   0.00000  Uiso   1.00
C762   C     0.02711   0.50011   0.66385   0.00000  Uiso   1.00
C763   C     0.29139   0.49736   0.88536   0.00000  Uiso   1.00
C764   C     0.04195   0.50264   0.61464   0.00000  Uiso   1.00
C765   C     0.30601   0.47699   0.95591   0.00000  Uiso   1.00
C766   C     0.02732   0.52301   0.54409   0.00000  Uiso   1.00
C767   C     0.32249   0.48155   0.90963   0.00000  Uiso   1.00
C768   C     0.01084   0.51845   0.59037   0.00000  Uiso   1.00
C769   C     0.24394   0.50867   0.90797   0.00000  Uiso   1.00
C770   C     0.08939   0.49133   0.59203   0.00000  Uiso   1.00
C771   C     0.22471   0.49889   0.95372   0.00000  Uiso   1.00
C772   C     0.10863   0.50111   0.54628   0.00000  Uiso   1.00
C773   C     0.25761   0.48555   0.97807   0.00000  Uiso   1.00
C774   C     0.07572   0.51445   0.52193   0.00000  Uiso   1.00
C775   C     0.17438   0.50259   0.97627   0.00000  Uiso   1.00
C776   C     0.15896   0.49741   0.52373   0.00000  Uiso   1.00
Cu777  Cu    0.04689   0.50001   0.75000   0.00000  Uiso   1.00
Cu778  Cu    0.28645   0.49999   0.75000   0.00000  Uiso   1.00
H779   H     0.19506   0.45570   0.80204   0.00000  Uiso   1.00
H780   H     0.13827   0.54430   0.69796   0.00000  Uiso   1.00
N781   N     0.11736   0.50001   0.74999   0.00000  Uiso   1.00
N782   N     0.21597   0.49999   0.75001   0.00000  Uiso   1.00
O783   O     0.03958   0.43989   0.75000   0.00000  Uiso   1.00
O784   O     0.29375   0.56011   0.75000   0.00000  Uiso   1.00
O785   O     0.29372   0.43988   0.75000   0.00000  Uiso   1.00
O786   O     0.03961   0.56012   0.75000   0.00000  Uiso   1.00
O787   O     0.01852   0.50001   0.81492   0.00000  Uiso   1.00
O788   O     0.31481   0.49999   0.68508   0.00000  Uiso   1.00
O789   O     0.27267   0.50000   0.81492   0.00000  Uiso   1.00
O790   O     0.06067   0.50000   0.68508   0.00000  Uiso   1.00
H791   H     0.26797   0.47466   0.54372   0.00000  Uiso   1.00
H792   H     0.06536   0.52534   0.95628   0.00000  Uiso   1.00
F793   F     0.11419   0.46726   0.61421   0.00000  Uiso   1.00
F794   F     0.21915   0.53274   0.88579   0.00000  Uiso   1.00
F795   F     0.29794   0.52942   0.61116   0.00000  Uiso   1.00
F796   F     0.03540   0.47058   0.88884   0.00000  Uiso   1.00
H797   H     0.33089   0.46591   0.97438   0.00000  Uiso   1.00
H798   H     0.00245   0.53409   0.52562   0.00000  Uiso   1.00
H799   H     0.18710   0.49139   0.58306   0.00000  Uiso   1.00
H800   H     0.14623   0.50861   0.91693   0.00000  Uiso   1.00
F801   F     0.25325   0.37316   0.73646   0.00000  Uiso   1.00
F802   F     0.08008   0.62684   0.76354   0.00000  Uiso   1.00
H803   H     0.26223   0.62843   0.73839   0.00000  Uiso   1.00
H804   H     0.07110   0.37157   0.76161   0.00000  Uiso   1.00
H805   H     0.10804   0.45580   0.80205   0.00000  Uiso   1.00
H806   H     0.22529   0.54420   0.69795   0.00000  Uiso   1.00
C807   C     0.66652   0.42069   0.74987   0.00000  Uiso   1.00
C808   C     0.33348   0.57931   0.75013   0.00000  Uiso   1.00
C809   C     0.52795   0.49023   0.54710   0.00000  Uiso   1.00
C810   C     0.47205   0.50977   0.95289   0.00000  Uiso   1.00
C811   C     0.57573   0.48227   0.52451   0.00000  Uiso   1.00
C812   C     0.42427   0.51773   0.97549   0.00000  Uiso   1.00
C813   C     0.62615   0.35401   0.74341   0.00000  Uiso   1.00
C814   C     0.37385   0.64599   0.75659   0.00000  Uiso   1.00
C815   C     0.62673   0.64486   0.74364   0.00000  Uiso   1.00
C816   C     0.37327   0.35514   0.75636   0.00000  Uiso   1.00
C817   C     0.33375   0.62392   0.75017   0.00000  Uiso   1.00
C818   C     0.66625   0.37608   0.74983   0.00000  Uiso   1.00
C819   C     0.51641   0.47544   0.77892   0.00000  Uiso   1.00
C820   C     0.48359   0.52456   0.72108   0.00000  Uiso   1.00
C821   C     0.46680   0.47548   0.77893   0.00000  Uiso   1.00
C822   C     0.53320   0.52453   0.72107   0.00000  Uiso   1.00
C823   C     0.63955   0.49989   0.83615   0.00000  Uiso   1.00
C824   C     0.36045   0.50011   0.66385   0.00000  Uiso   1.00
C825   C     0.62472   0.49736   0.88536   0.00000  Uiso   1.00
C826   C     0.37528   0.50264   0.61464   0.00000  Uiso   1.00
C827   C     0.63935   0.47699   0.95591   0.00000  Uiso   1.00
C828   C     0.36065   0.52301   0.54409   0.00000  Uiso   1.00
C829   C     0.65583   0.48155   0.90963   0.00000  Uiso   1.00
C830   C     0.34417   0.51845   0.59037   0.00000  Uiso   1.00
C831   C     0.57728   0.50867   0.90797   0.00000  Uiso   1.00
C832   C     0.42272   0.49133   0.59203   0.00000  Uiso   1.00
C833   C     0.55804   0.49889   0.95372   0.00000  Uiso   1.00
C834   C     0.44196   0.50111   0.54628   0.00000  Uiso   1.00
C835   C     0.59094   0.48555   0.97807   0.00000  Uiso   1.00
C836   C     0.40906   0.51445   0.52193   0.00000  Uiso   1.00
C837   C     0.50771   0.50259   0.97627   0.00000  Uiso   1.00
C838   C     0.49229   0.49741   0.52373   0.00000  Uiso   1.00
Cu839  Cu    0.38022   0.50001   0.75000   0.00000  Uiso   1.00
Cu840  Cu    0.61978   0.49999   0.75000   0.00000  Uiso   1.00
H841   H     0.52840   0.45570   0.80204   0.00000  Uiso   1.00
H842   H     0.47160   0.54430   0.69796   0.00000  Uiso   1.00
N843   N     0.45069   0.50001   0.74999   0.00000  Uiso   1.00
N844   N     0.54931   0.49999   0.75001   0.00000  Uiso   1.00
O845   O     0.37291   0.43989   0.75000   0.00000  Uiso   1.00
O846   O     0.62709   0.56011   0.75000   0.00000  Uiso   1.00
O847   O     0.62706   0.43988   0.75000   0.00000  Uiso   1.00
O848   O     0.37294   0.56012   0.75000   0.00000  Uiso   1.00
O849   O     0.35186   0.50001   0.81492   0.00000  Uiso   1.00
O850   O     0.64814   0.49999   0.68508   0.00000  Uiso   1.00
O851   O     0.60600   0.50000   0.81492   0.00000  Uiso   1.00
O852   O     0.39400   0.50000   0.68508   0.00000  Uiso   1.00
H853   H     0.60130   0.47466   0.54372   0.00000  Uiso   1.00
H854   H     0.39870   0.52534   0.95628   0.00000  Uiso   1.00
F855   F     0.44752   0.46726   0.61421   0.00000  Uiso   1.00
F856   F     0.55248   0.53274   0.88579   0.00000  Uiso   1.00
F857   F     0.63127   0.52942   0.61116   0.00000  Uiso   1.00
F858   F     0.36873   0.47058   0.88884   0.00000  Uiso   1.00
H859   H     0.66422   0.46591   0.97438   0.00000  Uiso   1.00
H860   H     0.33578   0.53409   0.52562   0.00000  Uiso   1.00
H861   H     0.52044   0.49139   0.58306   0.00000  Uiso   1.00
H862   H     0.47956   0.50861   0.91693   0.00000  Uiso   1.00
F863   F     0.58659   0.37316   0.73646   0.00000  Uiso   1.00
F864   F     0.41341   0.62684   0.76354   0.00000  Uiso   1.00
H865   H     0.59557   0.62843   0.73839   0.00000  Uiso   1.00
H866   H     0.40443   0.37157   0.76161   0.00000  Uiso   1.00
H867   H     0.44137   0.45580   0.80205   0.00000  Uiso   1.00
H868   H     0.55863   0.54420   0.69795   0.00000  Uiso   1.00
C869   C     0.99986   0.42069   0.74987   0.00000  Uiso   1.00
C870   C     0.66681   0.57931   0.75013   0.00000  Uiso   1.00
C871   C     0.86128   0.49023   0.54710   0.00000  Uiso   1.00
C872   C     0.80539   0.50977   0.95289   0.00000  Uiso   1.00
C873   C     0.90906   0.48227   0.52451   0.00000  Uiso   1.00
C874   C     0.75761   0.51773   0.97549   0.00000  Uiso   1.00
C875   C     0.95949   0.35401   0.74341   0.00000  Uiso   1.00
C876   C     0.70718   0.64599   0.75659   0.00000  Uiso   1.00
C877   C     0.96006   0.64486   0.74364   0.00000  Uiso   1.00
C878   C     0.70661   0.35514   0.75636   0.00000  Uiso   1.00
C879   C     0.66708   0.62392   0.75017   0.00000  Uiso   1.00
C880   C     0.99958   0.37608   0.74983   0.00000  Uiso   1.00
C881   C     0.84975   0.47544   0.77892   0.00000  Uiso   1.00
C882   C     0.81692   0.52456   0.72108   0.00000  Uiso   1.00
C883   C     0.80013   0.47548   0.77893   0.00000  Uiso   1.00
C884   C     0.86654   0.52453   0.72107   0.00000  Uiso   1.00
C885   C     0.97289   0.49989   0.83615   0.00000  Uiso   1.00
C886   C     0.69378   0.50011   0.66385   0.00000  Uiso   1.00
C887   C     0.95805   0.49736   0.88536   0.00000  Uiso   1.00
C888   C     0.70861   0.50264   0.61464   0.00000  Uiso   1.00
C889   C     0.97268   0.47699   0.95591   0.00000  Uiso   1.00
C890   C     0.69399   0.52301   0.54409   0.00000  Uiso   1.00
C891   C     0.98916   0.48155   0.90963   0.00000  Uiso   1.00
C892   C     0.67751   0.51845   0.59037   0.00000  Uiso   1.00
C893   C     0.91061   0.50867   0.90797   0.00000  Uiso   1.00
C894   C     0.75606   0.49133   0.59203   0.00000  Uiso   1.00
C895   C     0.89138   0.49889   0.95372   0.00000  Uiso   1.00
C896   C     0.77529   0.50111   0.54628   0.00000  Uiso   1.00
C897   C     0.92428   0.48555   0.97807   0.00000  Uiso   1.00
C898   C     0.74239   0.51445   0.52193   0.00000  Uiso   1.00
C899   C     0.84104   0.50259   0.97627   0.00000  Uiso   1.00
C900   C     0.82562   0.49741   0.52373   0.00000  Uiso   1.00
Cu901  Cu    0.71355   0.50001   0.75000   0.00000  Uiso   1.00
Cu902  Cu    0.95311   0.49999   0.75000   0.00000  Uiso   1.00
H903   H     0.86173   0.45570   0.80204   0.00000  Uiso   1.00
H904   H     0.80494   0.54430   0.69796   0.00000  Uiso   1.00
N905   N     0.78403   0.50001   0.74999   0.00000  Uiso   1.00
N906   N     0.88264   0.49999   0.75001   0.00000  Uiso   1.00
O907   O     0.70625   0.43989   0.75000   0.00000  Uiso   1.00
O908   O     0.96042   0.56011   0.75000   0.00000  Uiso   1.00
O909   O     0.96039   0.43988   0.75000   0.00000  Uiso   1.00
O910   O     0.70628   0.56012   0.75000   0.00000  Uiso   1.00
O911   O     0.68519   0.50001   0.81492   0.00000  Uiso   1.00
O912   O     0.98148   0.49999   0.68508   0.00000  Uiso   1.00
O913   O     0.93933   0.50000   0.81492   0.00000  Uiso   1.00
O914   O     0.72733   0.50000   0.68508   0.00000  Uiso   1.00
H915   H     0.93464   0.47466   0.54372   0.00000  Uiso   1.00
H916   H     0.73203   0.52534   0.95628   0.00000  Uiso   1.00
F917   F     0.78085   0.46726   0.61421   0.00000  Uiso   1.00
F918   F     0.88581   0.53274   0.88579   0.00000  Uiso   1.00
F919   F     0.96460   0.52942   0.61116   0.00000  Uiso   1.00
F920   F     0.70206   0.47058   0.88884   0.00000  Uiso   1.00
H921   H     0.99755   0.46591   0.97438   0.00000  Uiso   1.00
H922   H     0.66911   0.53409   0.52562   0.00000  Uiso   1.00
H923   H     0.85377   0.49139   0.58306   0.00000  Uiso   1.00
H924   H     0.81290   0.50861   0.91693   0.00000  Uiso   1.00
F925   F     0.91992   0.37316   0.73646   0.00000  Uiso   1.00
F926   F     0.74675   0.62684   0.76354   0.00000  Uiso   1.00
H927   H     0.92890   0.62843   0.73839   0.00000  Uiso   1.00
H928   H     0.73777   0.37157   0.76161   0.00000  Uiso   1.00
H929   H     0.77471   0.45580   0.80205   0.00000  Uiso   1.00
H930   H     0.89196   0.54420   0.69795   0.00000  Uiso   1.00
C931   C     0.33319   0.75402   0.74987   0.00000  Uiso   1.00
C932   C     0.00014   0.91264   0.75013   0.00000  Uiso   1.00
C933   C     0.19461   0.82357   0.54710   0.00000  Uiso   1.00
C934   C     0.13872   0.84310   0.95289   0.00000  Uiso   1.00
C935   C     0.24239   0.81560   0.52451   0.00000  Uiso   1.00
C936   C     0.09094   0.85107   0.97549   0.00000  Uiso   1.00
C937   C     0.29282   0.68734   0.74341   0.00000  Uiso   1.00
C938   C     0.04051   0.97933   0.75659   0.00000  Uiso   1.00
C939   C     0.29339   0.97820   0.74364   0.00000  Uiso   1.00
C940   C     0.03994   0.68847   0.75636   0.00000  Uiso   1.00
C941   C     0.00042   0.95726   0.75017   0.00000  Uiso   1.00
C942   C     0.33292   0.70941   0.74983   0.00000  Uiso   1.00
C943   C     0.18308   0.80877   0.77892   0.00000  Uiso   1.00
C944   C     0.15025   0.85789   0.72108   0.00000  Uiso   1.00
C945   C     0.13346   0.80881   0.77893   0.00000  Uiso   1.00
C946   C     0.19987   0.85786   0.72107   0.00000  Uiso   1.00
C947   C     0.30622   0.83322   0.83615   0.00000  Uiso   1.00
C948   C     0.02711   0.83344   0.66385   0.00000  Uiso   1.00
C949   C     0.29139   0.83070   0.88536   0.00000  Uiso   1.00
C950   C     0.04195   0.83597   0.61464   0.00000  Uiso   1.00
C951   C     0.30601   0.81032   0.95591   0.00000  Uiso   1.00
C952   C     0.02732   0.85635   0.54409   0.00000  Uiso   1.00
C953   C     0.32249   0.81488   0.90963   0.00000  Uiso   1.00
C954   C     0.01084   0.85178   0.59037   0.00000  Uiso   1.00
C955   C     0.24394   0.84200   0.90797   0.00000  Uiso   1.00
C956   C     0.08939   0.82466   0.59203   0.00000  Uiso   1.00
C957   C     0.22471   0.83223   0.95372   0.00000  Uiso   1.00
C958   C     0.10863   0.83444   0.54628   0.00000  Uiso   1.00
C959   C     0.25761   0.81888   0.97807   0.00000  Uiso   1.00
C960   C     0.07572   0.84778   0.52193   0.00000  Uiso   1.00
C961   C     0.17438   0.83592   0.97627   0.00000  Uiso   1.00
C962   C     0.15896   0.83074   0.52373   0.00000  Uiso   1.00
Cu963  Cu    0.04689   0.83334   0.75000   0.00000  Uiso   1.00
Cu964  Cu    0.28645   0.83333   0.75000   0.00000  Uiso   1.00
H965   H     0.19506   0.78904   0.80204   0.00000  Uiso   1.00
H966   H     0.13827   0.87763   0.69796   0.00000  Uiso   1.00
N967   N     0.11736   0.83334   0.74999   0.00000  Uiso   1.00
N968   N     0.21597   0.83332   0.75001   0.00000  Uiso   1.00
O969   O     0.03958   0.77322   0.75000   0.00000  Uiso   1.00
O970   O     0.29375   0.89345   0.75000   0.00000  Uiso   1.00
O971   O     0.29372   0.77321   0.75000   0.00000  Uiso   1.00
O972   O     0.03961   0.89346   0.75000   0.00000  Uiso   1.00
O973   O     0.01852   0.83334   0.81492   0.00000  Uiso   1.00
O974   O     0.31481   0.83332   0.68508   0.00000  Uiso   1.00
O975   O     0.27267   0.83333   0.81492   0.00000  Uiso   1.00
O976   O     0.06067   0.83333   0.68508   0.00000  Uiso   1.00
H977   H     0.26797   0.80799   0.54372   0.00000  Uiso   1.00
H978   H     0.06536   0.85867   0.95628   0.00000  Uiso   1.00
F979   F     0.11419   0.80059   0.61421   0.00000  Uiso   1.00
F980   F     0.21915   0.86607   0.88579   0.00000  Uiso   1.00
F981   F     0.29794   0.86275   0.61116   0.00000  Uiso   1.00
F982   F     0.03540   0.80391   0.88884   0.00000  Uiso   1.00
H983   H     0.33089   0.79924   0.97438   0.00000  Uiso   1.00
H984   H     0.00245   0.86743   0.52562   0.00000  Uiso   1.00
H985   H     0.18710   0.82472   0.58306   0.00000  Uiso   1.00
H986   H     0.14623   0.84194   0.91693   0.00000  Uiso   1.00
F987   F     0.25325   0.70650   0.73646   0.00000  Uiso   1.00
F988   F     0.08008   0.96017   0.76354   0.00000  Uiso   1.00
H989   H     0.26223   0.96176   0.73839   0.00000  Uiso   1.00
H990   H     0.07110   0.70491   0.76161   0.00000  Uiso   1.00
H991   H     0.10804   0.78913   0.80205   0.00000  Uiso   1.00
H992   H     0.22529   0.87754   0.69795   0.00000  Uiso   1.00
C993   C     0.66652   0.75402   0.74987   0.00000  Uiso   1.00
C994   C     0.33348   0.91264   0.75013   0.00000  Uiso   1.00
C995   C     0.52795   0.82357   0.54710   0.00000  Uiso   1.00
C996   C     0.47205   0.84310   0.95289   0.00000  Uiso   1.00
C997   C     0.57573   0.81560   0.52451   0.00000  Uiso   1.00
C998   C     0.42427   0.85107   0.97549   0.00000  Uiso   1.00
C999   C     0.62615   0.68734   0.74341   0.00000  Uiso   1.00
C1000  C     0.37385   0.97933   0.75659   0.00000  Uiso   1.00
C1001  C     0.62673   0.97820   0.74364   0.00000  Uiso   1.00
C1002  C     0.37327   0.68847   0.75636   0.00000  Uiso   1.00
C1003  C     0.33375   0.95726   0.75017   0.00000  Uiso   1.00
C1004  C     0.66625   0.70941   0.74983   0.00000  Uiso   1.00
C1005  C     0.51641   0.80877   0.77892   0.00000  Uiso   1.00
C1006  C     0.48359   0.85789   0.72108   0.00000  Uiso   1.00
C1007  C     0.46680   0.80881   0.77893   0.00000  Uiso   1.00
C1008  C     0.53320   0.85786   0.72107   0.00000  Uiso   1.00
C1009  C     0.63955   0.83322   0.83615   0.00000  Uiso   1.00
C1010  C     0.36045   0.83344   0.66385   0.00000  Uiso   1.00
C1011  C     0.62472   0.83070   0.88536   0.00000  Uiso   1.00
C1012  C     0.37528   0.83597   0.61464   0.00000  Uiso   1.00
C1013  C     0.63935   0.81032   0.95591   0.00000  Uiso   1.00
C1014  C     0.36065   0.85635   0.54409   0.00000  Uiso   1.00
C1015  C     0.65583   0.81488   0.90963   0.00000  Uiso   1.00
C1016  C     0.34417   0.85178   0.59037   0.00000  Uiso   1.00
C1017  C     0.57728   0.84200   0.90797   0.00000  Uiso   1.00
C1018  C     0.42272   0.82466   0.59203   0.00000  Uiso   1.00
C1019  C     0.55804   0.83223   0.95372   0.00000  Uiso   1.00
C1020  C     0.44196   0.83444   0.54628   0.00000  Uiso   1.00
C1021  C     0.59094   0.81888   0.97807   0.00000  Uiso   1.00
C1022  C     0.40906   0.84778   0.52193   0.00000  Uiso   1.00
C1023  C     0.50771   0.83592   0.97627   0.00000  Uiso   1.00
C1024  C     0.49229   0.83074   0.52373   0.00000  Uiso   1.00
Cu1025 Cu    0.38022   0.83334   0.75000   0.00000  Uiso   1.00
Cu1026 Cu    0.61978   0.83333   0.75000   0.00000  Uiso   1.00
H1027  H     0.52840   0.78904   0.80204   0.00000  Uiso   1.00
H1028  H     0.47160   0.87763   0.69796   0.00000  Uiso   1.00
N1029  N     0.45069   0.83334   0.74999   0.00000  Uiso   1.00
N1030  N     0.54931   0.83332   0.75001   0.00000  Uiso   1.00
O1031  O     0.37291   0.77322   0.75000   0.00000  Uiso   1.00
O1032  O     0.62709   0.89345   0.75000   0.00000  Uiso   1.00
O1033  O     0.62706   0.77321   0.75000   0.00000  Uiso   1.00
O1034  O     0.37294   0.89346   0.75000   0.00000  Uiso   1.00
O1035  O     0.35186   0.83334   0.81492   0.00000  Uiso   1.00
O1036  O     0.64814   0.83332   0.68508   0.00000  Uiso   1.00
O1037  O     0.60600   0.83333   0.81492   0.00000  Uiso   1.00
O1038  O     0.39400   0.83333   0.68508   0.00000  Uiso   1.00
H1039  H     0.60130   0.80799   0.54372   0.00000  Uiso   1.00
H1040  H     0.39870   0.85867   0.95628   0.00000  Uiso   1.00
F1041  F     0.44752   0.80059   0.61421   0.00000  Uiso   1.00
F1042  F     0.55248   0.86607   0.88579   0.00000  Uiso   1.00
F1043  F     0.63127   0.86275   0.61116   0.00000  Uiso   1.00
F1044  F     0.36873   0.80391   0.88884   0.00000  Uiso   1.00
H1045  H     0.66422   0.79924   0.97438   0.00000  Uiso   1.00
H1046  H     0.33578   0.86743   0.52562   0.00000  Uiso   1.00
H1047  H     0.52044   0.82472   0.58306   0.00000  Uiso   1.00
H1048  H     0.47956   0.84194   0.91693   0.00000  Uiso   1.00
F1049  F     0.58659   0.70650   0.73646   0.00000  Uiso   1.00
F1050  F     0.41341   0.96017   0.76354   0.00000  Uiso   1.00
H1051  H     0.59557   0.96176   0.73839   0.00000  Uiso   1.00
H1052  H     0.40443   0.70491   0.76161   0.00000  Uiso   1.00
H1053  H     0.44137   0.78913   0.80205   0.00000  Uiso   1.00
H1054  H     0.55863   0.87754   0.69795   0.00000  Uiso   1.00
C1055  C     0.99986   0.75402   0.74987   0.00000  Uiso   1.00
C1056  C     0.66681   0.91264   0.75013   0.00000  Uiso   1.00
C1057  C     0.86128   0.82357   0.54710   0.00000  Uiso   1.00
C1058  C     0.80539   0.84310   0.95289   0.00000  Uiso   1.00
C1059  C     0.90906   0.81560   0.52451   0.00000  Uiso   1.00
C1060  C     0.75761   0.85107   0.97549   0.00000  Uiso   1.00
C1061  C     0.95949   0.68734   0.74341   0.00000  Uiso   1.00
C1062  C     0.70718   0.97933   0.75659   0.00000  Uiso   1.00
C1063  C     0.96006   0.97820   0.74364   0.00000  Uiso   1.00
C1064  C     0.70661   0.68847   0.75636   0.00000  Uiso   1.00
C1065  C     0.66708   0.95726   0.75017   0.00000  Uiso   1.00
C1066  C     0.99958   0.70941   0.74983   0.00000  Uiso   1.00
C1067  C     0.84975   0.80877   0.77892   0.00000  Uiso   1.00
C1068  C     0.81692   0.85789   0.72108   0.00000  Uiso   1.00
C1069  C     0.80013   0.80881   0.77893   0.00000  Uiso   1.00
C1070  C     0.86654   0.85786   0.72107   0.00000  Uiso   1.00
C1071  C     0.97289   0.83322   0.83615   0.00000  Uiso   1.00
C1072  C     0.69378   0.83344   0.66385   0.00000  Uiso   1.00
C1073  C     0.95805   0.83070   0.88536   0.00000  Uiso   1.00
C1074  C     0.70861   0.83597   0.61464   0.00000  Uiso   1.00
C1075  C     0.97268   0.81032   0.95591   0.00000  Uiso   1.00
C1076  C     0.69399   0.85635   0.54409   0.00000  Uiso   1.00
C1077  C     0.98916   0.81488   0.90963   0.00000  Uiso   1.00
C1078  C     0.67751   0.85178   0.59037   0.00000  Uiso   1.00
C1079  C     0.91061   0.84200   0.90797   0.00000  Uiso   1.00
C1080  C     0.75606   0.82466   0.59203   0.00000  Uiso   1.00
C1081  C     0.89138   0.83223   0.95372   0.00000  Uiso   1.00
C1082  C     0.77529   0.83444   0.54628   0.00000  Uiso   1.00
C1083  C     0.92428   0.81888   0.97807   0.00000  Uiso   1.00
C1084  C     0.74239   0.84778   0.52193   0.00000  Uiso   1.00
C1085  C     0.84104   0.83592   0.97627   0.00000  Uiso   1.00
C1086  C     0.82562   0.83074   0.52373   0.00000  Uiso   1.00
Cu1087 Cu    0.71355   0.83334   0.75000   0.00000  Uiso   1.00
Cu1088 Cu    0.95311   0.83333   0.75000   0.00000  Uiso   1.00
H1089  H     0.86173   0.78904   0.80204   0.00000  Uiso   1.00
H1090  H     0.80494   0.87763   0.69796   0.00000  Uiso   1.00
N1091  N     0.78403   0.83334   0.74999   0.00000  Uiso   1.00
N1092  N     0.88264   0.83332   0.75001   0.00000  Uiso   1.00
O1093  O     0.70625   0.77322   0.75000   0.00000  Uiso   1.00
O1094  O     0.96042   0.89345   0.75000   0.00000  Uiso   1.00
O1095  O     0.96039   0.77321   0.75000   0.00000  Uiso   1.00
O1096  O     0.70628   0.89346   0.75000   0.00000  Uiso   1.00
O1097  O     0.68519   0.83334   0.81492   0.00000  Uiso   1.00
O1098  O     0.98148   0.83332   0.68508   0.00000  Uiso   1.00
O1099  O     0.93933   0.83333   0.81492   0.00000  Uiso   1.00
O1100  O     0.72733   0.83333   0.68508   0.00000  Uiso   1.00
H1101  H     0.93464   0.80799   0.54372   0.00000  Uiso   1.00
H1102  H     0.73203   0.85867   0.95628   0.00000  Uiso   1.00
F1103  F     0.78085   0.80059   0.61421   0.00000  Uiso   1.00
F1104  F     0.88581   0.86607   0.88579   0.00000  Uiso   1.00
F1105  F     0.96460   0.86275   0.61116   0.00000  Uiso   1.00
F1106  F     0.70206   0.80391   0.88884   0.00000  Uiso   1.00
H1107  H     0.99755   0.79924   0.97438   0.00000  Uiso   1.00
H1108  H     0.66911   0.86743   0.52562   0.00000  Uiso   1.00
H1109  H     0.85377   0.82472   0.58306   0.00000  Uiso   1.00
H1110  H     0.81290   0.84194   0.91693   0.00000  Uiso   1.00
F1111  F     0.91992   0.70650   0.73646   0.00000  Uiso   1.00
F1112  F     0.74675   0.96017   0.76354   0.00000  Uiso   1.00
H1113  H     0.92890   0.96176   0.73839   0.00000  Uiso   1.00
H1114  H     0.73777   0.70491   0.76161   0.00000  Uiso   1.00
H1115  H     0.77471   0.78913   0.80205   0.00000  Uiso   1.00
H1116  H     0.89196   0.87754   0.69795   0.00000  Uiso   1.00
loop_
_geom_bond_atom_site_label_1
_geom_bond_atom_site_label_2
_geom_bond_distance
_geom_bond_site_symmetry_2
_ccdc_geom_bond_type
C1     C12     1.452   .     S
C1     O41     1.290   .     A
C1     O101    1.293   .     S
C2     O42     1.290   .     A
C2     C11     1.452   .     S
C2     O164    1.293   1_455 S
C3     C5      1.385   .     A
C3     C32     1.414   .     A
C3     H55     1.076   .     S
C4     H56     1.076   .     S
C4     C31     1.414   .     A
C4     C6      1.385   .     A
C5     H47     1.084   .     S
C5     C587    1.390   1_554 S
C6     H48     1.084   .     S
C6     C588    1.390   .     S
C7     C12     1.406   .     A
C7     F57     1.358   .     S
C7     C381    1.383   1_545 S
C8     F58     1.358   .     S
C8     C11     1.406   .     A
C8     C196    1.383   .     S
C9     H59     1.084   .     S
C9     C193    1.383   .     S
C9     C73     1.401   .     S
C10    H60     1.084   .     S
C10    C380    1.383   1_545 S
C10    C136    1.401   1_455 S
C11    C133    1.401   1_455 S
C12    C72     1.401   .     S
C13    N38     1.367   .     A
C13    H35     1.082   .     S
C13    C15     1.416   .     A
C14    N37     1.367   .     A
C14    H36     1.082   .     S
C14    C16     1.416   .     A
C15    H61     1.082   .     S
C15    N37     1.367   .     A
C16    H62     1.082   .     S
C16    N38     1.367   .     A
C17    O45     1.295   .     A
C17    C19     1.470   .     S
C17    O105    1.296   .     S
C18    O46     1.295   .     A
C18    C20     1.470   .     S
C18    O168    1.296   1_455 S
C19    C23     1.403   .     A
C19    C25     1.403   .     A
C20    C26     1.403   .     A
C20    C24     1.403   .     A
C21    C29     1.401   .     A
C21    H53     1.084   .     S
C21    C23     1.391   .     A
C22    H54     1.084   .     S
C22    C24     1.391   .     A
C22    C30     1.401   .     A
C23    F114    1.358   .     S
C24    F175    1.358   1_455 S
C25    C27     1.412   .     A
C25    F50     1.358   .     S
C26    C28     1.412   .     A
C26    F49     1.358   .     S
C27    C29     1.418   .     A
C27    C31     1.429   .     A
C28    C30     1.418   .     A
C28    C32     1.429   .     A
C29    C563    1.390   .     S
C30    C564    1.390   1_554 S
C31    C590    1.426   .     S
C32    C589    1.426   1_554 S
Cu33   O46     1.941   .     S
Cu33   O39     1.967   .     S
Cu33   O42     1.969   .     S
Cu33   O43     1.957   .     S
Cu33   N37     2.011   .     S
Cu33   Cu158   2.677   1_455 S
Cu34   O41     1.969   .     S
Cu34   O45     1.941   .     S
Cu34   O40     1.967   .     S
Cu34   O44     1.957   .     S
Cu34   N38     2.011   .     S
Cu34   Cu95    2.677   .     S
O39    C125    1.293   1_455 S
O40    C64     1.293   .     S
O43    C141    1.296   1_455 S
O44    C80     1.296   .     S
F51    C86     1.358   .     S
F52    C147    1.358   1_455 S
C63    C74     1.452   .     S
C63    O103    1.290   .     A
C63    O163    1.293   .     S
C64    O104    1.290   .     A
C64    C73     1.452   .     S
C65    C67     1.385   .     A
C65    C94     1.414   .     A
C65    H117    1.076   .     S
C66    H118    1.076   .     S
C66    C93     1.414   .     A
C66    C68     1.385   .     A
C67    H109    1.084   .     S
C67    C649    1.390   1_554 S
C68    H110    1.084   .     S
C68    C650    1.390   .     S
C69    C74     1.406   .     A
C69    F119    1.358   .     S
C69    C443    1.383   1_545 S
C70    F120    1.358   .     S
C70    C73     1.406   .     A
C70    C258    1.383   .     S
C71    H121    1.084   .     S
C71    C255    1.383   .     S
C71    C135    1.401   .     S
C72    H122    1.084   .     S
C72    C442    1.383   1_545 S
C74    C134    1.401   .     S
C75    N100    1.367   .     A
C75    H97     1.082   .     S
C75    C77     1.416   .     A
C76    N99     1.367   .     A
C76    H98     1.082   .     S
C76    C78     1.416   .     A
C77    H123    1.082   .     S
C77    N99     1.367   .     A
C78    H124    1.082   .     S
C78    N100    1.367   .     A
C79    O107    1.295   .     A
C79    C81     1.470   .     S
C79    O167    1.296   .     S
C80    O108    1.295   .     A
C80    C82     1.470   .     S
C81    C85     1.403   .     A
C81    C87     1.403   .     A
C82    C88     1.403   .     A
C82    C86     1.403   .     A
C83    C91     1.401   .     A
C83    H115    1.084   .     S
C83    C85     1.391   .     A
C84    H116    1.084   .     S
C84    C86     1.391   .     A
C84    C92     1.401   .     A
C85    F176    1.358   .     S
C87    C89     1.412   .     A
C87    F112    1.358   .     S
C88    C90     1.412   .     A
C88    F111    1.358   .     S
C89    C91     1.418   .     A
C89    C93     1.429   .     A
C90    C92     1.418   .     A
C90    C94     1.429   .     A
C91    C625    1.390   .     S
C92    C626    1.390   1_554 S
C93    C652    1.426   .     S
C94    C651    1.426   1_554 S
Cu95   O108    1.941   .     S
Cu95   O101    1.967   .     S
Cu95   O104    1.969   .     S
Cu95   O105    1.957   .     S
Cu95   N99     2.011   .     S
Cu96   O103    1.969   .     S
Cu96   O107    1.941   .     S
Cu96   O102    1.967   .     S
Cu96   O106    1.957   .     S
Cu96   N100    2.011   .     S
Cu96   Cu157   2.677   .     S
O102   C126    1.293   .     S
O106   C142    1.296   .     S
F113   C148    1.358   .     S
C125   C136    1.452   .     S
C125   O165    1.290   .     A
C125   O39     1.293   1_655 S
C126   O166    1.290   .     A
C126   C135    1.452   .     S
C127   C129    1.385   .     A
C127   C156    1.414   .     A
C127   H179    1.076   .     S
C128   H180    1.076   .     S
C128   C155    1.414   .     A
C128   C130    1.385   .     A
C129   H171    1.084   .     S
C129   C711    1.390   1_554 S
C130   H172    1.084   .     S
C130   C712    1.390   .     S
C131   C136    1.406   .     A
C131   F181    1.358   .     S
C131   C505    1.383   1_545 S
C132   F182    1.358   .     S
C132   C135    1.406   .     A
C132   C320    1.383   .     S
C133   H183    1.084   .     S
C133   C317    1.383   .     S
C133   C11     1.401   1_655 S
C134   H184    1.084   .     S
C134   C504    1.383   1_545 S
C136   C10     1.401   1_655 S
C137   N162    1.367   .     A
C137   H159    1.082   .     S
C137   C139    1.416   .     A
C138   N161    1.367   .     A
C138   H160    1.082   .     S
C138   C140    1.416   .     A
C139   H185    1.082   .     S
C139   N161    1.367   .     A
C140   H186    1.082   .     S
C140   N162    1.367   .     A
C141   O169    1.295   .     A
C141   C143    1.470   .     S
C141   O43     1.296   1_655 S
C142   O170    1.295   .     A
C142   C144    1.470   .     S
C143   C147    1.403   .     A
C143   C149    1.403   .     A
C144   C150    1.403   .     A
C144   C148    1.403   .     A
C145   C153    1.401   .     A
C145   H177    1.084   .     S
C145   C147    1.391   .     A
C146   H178    1.084   .     S
C146   C148    1.391   .     A
C146   C154    1.401   .     A
C147   F52     1.358   1_655 S
C149   C151    1.412   .     A
C149   F174    1.358   .     S
C150   C152    1.412   .     A
C150   F173    1.358   .     S
C151   C153    1.418   .     A
C151   C155    1.429   .     A
C152   C154    1.418   .     A
C152   C156    1.429   .     A
C153   C687    1.390   .     S
C154   C688    1.390   1_554 S
C155   C714    1.426   .     S
C156   C713    1.426   1_554 S
Cu157  O170    1.941   .     S
Cu157  O163    1.967   .     S
Cu157  O166    1.969   .     S
Cu157  O167    1.957   .     S
Cu157  N161    2.011   .     S
Cu158  O165    1.969   .     S
Cu158  O169    1.941   .     S
Cu158  O164    1.967   .     S
Cu158  O168    1.957   .     S
Cu158  N162    2.011   .     S
Cu158  Cu33    2.677   1_655 S
O164   C2      1.293   1_655 S
O168   C18     1.296   1_655 S
F175   C24     1.358   1_655 S
C187   C198    1.452   .     S
C187   O227    1.290   .     A
C187   O287    1.293   .     S
C188   O228    1.290   .     A
C188   C197    1.452   .     S
C188   O350    1.293   1_455 S
C189   C191    1.385   .     A
C189   C218    1.414   .     A
C189   H241    1.076   .     S
C190   H242    1.076   .     S
C190   C217    1.414   .     A
C190   C192    1.385   .     A
C191   H233    1.084   .     S
C191   C773    1.390   1_554 S
C192   H234    1.084   .     S
C192   C774    1.390   .     S
C193   C198    1.406   .     A
C193   F243    1.358   .     S
C194   F244    1.358   .     S
C194   C197    1.406   .     A
C194   C382    1.383   .     S
C195   H245    1.084   .     S
C195   C379    1.383   .     S
C195   C259    1.401   .     S
C196   H246    1.084   .     S
C196   C322    1.401   1_455 S
C197   C319    1.401   1_455 S
C198   C258    1.401   .     S
C199   N224    1.367   .     A
C199   H221    1.082   .     S
C199   C201    1.416   .     A
C200   N223    1.367   .     A
C200   H222    1.082   .     S
C200   C202    1.416   .     A
C201   H247    1.082   .     S
C201   N223    1.367   .     A
C202   H248    1.082   .     S
C202   N224    1.367   .     A
C203   O231    1.295   .     A
C203   C205    1.470   .     S
C203   O291    1.296   .     S
C204   O232    1.295   .     A
C204   C206    1.470   .     S
C204   O354    1.296   1_455 S
C205   C209    1.403   .     A
C205   C211    1.403   .     A
C206   C212    1.403   .     A
C206   C210    1.403   .     A
C207   C215    1.401   .     A
C207   H239    1.084   .     S
C207   C209    1.391   .     A
C208   H240    1.084   .     S
C208   C210    1.391   .     A
C208   C216    1.401   .     A
C209   F300    1.358   .     S
C210   F361    1.358   1_455 S
C211   C213    1.412   .     A
C211   F236    1.358   .     S
C212   C214    1.412   .     A
C212   F235    1.358   .     S
C213   C215    1.418   .     A
C213   C217    1.429   .     A
C214   C216    1.418   .     A
C214   C218    1.429   .     A
C215   C749    1.390   .     S
C216   C750    1.390   1_554 S
C217   C776    1.426   .     S
C218   C775    1.426   1_554 S
Cu219  O232    1.941   .     S
Cu219  O225    1.967   .     S
Cu219  O228    1.969   .     S
Cu219  O229    1.957   .     S
Cu219  N223    2.011   .     S
Cu219  Cu344   2.677   1_455 S
Cu220  O227    1.969   .     S
Cu220  O231    1.941   .     S
Cu220  O226    1.967   .     S
Cu220  O230    1.957   .     S
Cu220  N224    2.011   .     S
Cu220  Cu281   2.677   .     S
O225   C311    1.293   1_455 S
O226   C250    1.293   .     S
O229   C327    1.296   1_455 S
O230   C266    1.296   .     S
F237   C272    1.358   .     S
F238   C333    1.358   1_455 S
C249   C260    1.452   .     S
C249   O289    1.290   .     A
C249   O349    1.293   .     S
C250   O290    1.290   .     A
C250   C259    1.452   .     S
C251   C253    1.385   .     A
C251   C280    1.414   .     A
C251   H303    1.076   .     S
C252   H304    1.076   .     S
C252   C279    1.414   .     A
C252   C254    1.385   .     A
C253   H295    1.084   .     S
C253   C835    1.390   1_554 S
C254   H296    1.084   .     S
C254   C836    1.390   .     S
C255   C260    1.406   .     A
C255   F305    1.358   .     S
C256   F306    1.358   .     S
C256   C259    1.406   .     A
C256   C444    1.383   .     S
C257   H307    1.084   .     S
C257   C441    1.383   .     S
C257   C321    1.401   .     S
C258   H308    1.084   .     S
C260   C320    1.401   .     S
C261   N286    1.367   .     A
C261   H283    1.082   .     S
C261   C263    1.416   .     A
C262   N285    1.367   .     A
C262   H284    1.082   .     S
C262   C264    1.416   .     A
C263   H309    1.082   .     S
C263   N285    1.367   .     A
C264   H310    1.082   .     S
C264   N286    1.367   .     A
C265   O293    1.295   .     A
C265   C267    1.470   .     S
C265   O353    1.296   .     S
C266   O294    1.295   .     A
C266   C268    1.470   .     S
C267   C271    1.403   .     A
C267   C273    1.403   .     A
C268   C274    1.403   .     A
C268   C272    1.403   .     A
C269   C277    1.401   .     A
C269   H301    1.084   .     S
C269   C271    1.391   .     A
C270   H302    1.084   .     S
C270   C272    1.391   .     A
C270   C278    1.401   .     A
C271   F362    1.358   .     S
C273   C275    1.412   .     A
C273   F298    1.358   .     S
C274   C276    1.412   .     A
C274   F297    1.358   .     S
C275   C277    1.418   .     A
C275   C279    1.429   .     A
C276   C278    1.418   .     A
C276   C280    1.429   .     A
C277   C811    1.390   .     S
C278   C812    1.390   1_554 S
C279   C838    1.426   .     S
C280   C837    1.426   1_554 S
Cu281  O294    1.941   .     S
Cu281  O287    1.967   .     S
Cu281  O290    1.969   .     S
Cu281  O291    1.957   .     S
Cu281  N285    2.011   .     S
Cu282  O289    1.969   .     S
Cu282  O293    1.941   .     S
Cu282  O288    1.967   .     S
Cu282  O292    1.957   .     S
Cu282  N286    2.011   .     S
Cu282  Cu343   2.677   .     S
O288   C312    1.293   .     S
O292   C328    1.296   .     S
F299   C334    1.358   .     S
C311   C322    1.452   .     S
C311   O351    1.290   .     A
C311   O225    1.293   1_655 S
C312   O352    1.290   .     A
C312   C321    1.452   .     S
C313   C315    1.385   .     A
C313   C342    1.414   .     A
C313   H365    1.076   .     S
C314   H366    1.076   .     S
C314   C341    1.414   .     A
C314   C316    1.385   .     A
C315   H357    1.084   .     S
C315   C897    1.390   1_554 S
C316   H358    1.084   .     S
C316   C898    1.390   .     S
C317   C322    1.406   .     A
C317   F367    1.358   .     S
C318   F368    1.358   .     S
C318   C321    1.406   .     A
C318   C506    1.383   .     S
C319   H369    1.084   .     S
C319   C503    1.383   .     S
C319   C197    1.401   1_655 S
C320   H370    1.084   .     S
C322   C196    1.401   1_655 S
C323   N348    1.367   .     A
C323   H345    1.082   .     S
C323   C325    1.416   .     A
C324   N347    1.367   .     A
C324   H346    1.082   .     S
C324   C326    1.416   .     A
C325   H371    1.082   .     S
C325   N347    1.367   .     A
C326   H372    1.082   .     S
C326   N348    1.367   .     A
C327   O355    1.295   .     A
C327   C329    1.470   .     S
C327   O229    1.296   1_655 S
C328   O356    1.295   .     A
C328   C330    1.470   .     S
C329   C333    1.403   .     A
C329   C335    1.403   .     A
C330   C336    1.403   .     A
C330   C334    1.403   .     A
C331   C339    1.401   .     A
C331   H363    1.084   .     S
C331   C333    1.391   .     A
C332   H364    1.084   .     S
C332   C334    1.391   .     A
C332   C340    1.401   .     A
C333   F238    1.358   1_655 S
C335   C337    1.412   .     A
C335   F360    1.358   .     S
C336   C338    1.412   .     A
C336   F359    1.358   .     S
C337   C339    1.418   .     A
C337   C341    1.429   .     A
C338   C340    1.418   .     A
C338   C342    1.429   .     A
C339   C873    1.390   .     S
C340   C874    1.390   1_554 S
C341   C900    1.426   .     S
C342   C899    1.426   1_554 S
Cu343  O356    1.941   .     S
Cu343  O349    1.967   .     S
Cu343  O352    1.969   .     S
Cu343  O353    1.957   .     S
Cu343  N347    2.011   .     S
Cu344  O351    1.969   .     S
Cu344  O355    1.941   .     S
Cu344  O350    1.967   .     S
Cu344  O354    1.957   .     S
Cu344  N348    2.011   .     S
Cu344  Cu219   2.677   1_655 S
O350   C188    1.293   1_655 S
O354   C204    1.296   1_655 S
F361   C210    1.358   1_655 S
C373   C384    1.452   .     S
C373   O413    1.290   .     A
C373   O473    1.293   .     S
C374   O414    1.290   .     A
C374   C383    1.452   .     S
C374   O536    1.293   1_455 S
C375   C377    1.385   .     A
C375   C404    1.414   .     A
C375   H427    1.076   .     S
C376   H428    1.076   .     S
C376   C403    1.414   .     A
C376   C378    1.385   .     A
C377   H419    1.084   .     S
C377   C959    1.390   1_554 S
C378   H420    1.084   .     S
C378   C960    1.390   .     S
C379   C384    1.406   .     A
C379   F429    1.358   .     S
C380   F430    1.358   .     S
C380   C383    1.406   .     A
C380   C10     1.383   1_565 S
C381   H431    1.084   .     S
C381   C7      1.383   1_565 S
C381   C445    1.401   .     S
C382   H432    1.084   .     S
C382   C508    1.401   1_455 S
C383   C505    1.401   1_455 S
C384   C444    1.401   .     S
C385   N410    1.367   .     A
C385   H407    1.082   .     S
C385   C387    1.416   .     A
C386   N409    1.367   .     A
C386   H408    1.082   .     S
C386   C388    1.416   .     A
C387   H433    1.082   .     S
C387   N409    1.367   .     A
C388   H434    1.082   .     S
C388   N410    1.367   .     A
C389   O417    1.295   .     A
C389   C391    1.470   .     S
C389   O477    1.296   .     S
C390   O418    1.295   .     A
C390   C392    1.470   .     S
C390   O540    1.296   1_455 S
C391   C395    1.403   .     A
C391   C397    1.403   .     A
C392   C398    1.403   .     A
C392   C396    1.403   .     A
C393   C401    1.401   .     A
C393   H425    1.084   .     S
C393   C395    1.391   .     A
C394   H426    1.084   .     S
C394   C396    1.391   .     A
C394   C402    1.401   .     A
C395   F486    1.358   .     S
C396   F547    1.358   1_455 S
C397   C399    1.412   .     A
C397   F422    1.358   .     S
C398   C400    1.412   .     A
C398   F421    1.358   .     S
C399   C401    1.418   .     A
C399   C403    1.429   .     A
C400   C402    1.418   .     A
C400   C404    1.429   .     A
C401   C935    1.390   .     S
C402   C936    1.390   1_554 S
C403   C962    1.426   .     S
C404   C961    1.426   1_554 S
Cu405  O418    1.941   .     S
Cu405  O411    1.967   .     S
Cu405  O414    1.969   .     S
Cu405  O415    1.957   .     S
Cu405  N409    2.011   .     S
Cu405  Cu530   2.677   1_455 S
Cu406  O413    1.969   .     S
Cu406  O417    1.941   .     S
Cu406  O412    1.967   .     S
Cu406  O416    1.957   .     S
Cu406  N410    2.011   .     S
Cu406  Cu467   2.677   .     S
O411   C497    1.293   1_455 S
O412   C436    1.293   .     S
O415   C513    1.296   1_455 S
O416   C452    1.296   .     S
F423   C458    1.358   .     S
F424   C519    1.358   1_455 S
C435   C446    1.452   .     S
C435   O475    1.290   .     A
C435   O535    1.293   .     S
C436   O476    1.290   .     A
C436   C445    1.452   .     S
C437   C439    1.385   .     A
C437   C466    1.414   .     A
C437   H489    1.076   .     S
C438   H490    1.076   .     S
C438   C465    1.414   .     A
C438   C440    1.385   .     A
C439   H481    1.084   .     S
C439   C1021   1.390   1_554 S
C440   H482    1.084   .     S
C440   C1022   1.390   .     S
C441   C446    1.406   .     A
C441   F491    1.358   .     S
C442   F492    1.358   .     S
C442   C445    1.406   .     A
C442   C72     1.383   1_565 S
C443   H493    1.084   .     S
C443   C69     1.383   1_565 S
C443   C507    1.401   .     S
C444   H494    1.084   .     S
C446   C506    1.401   .     S
C447   N472    1.367   .     A
C447   H469    1.082   .     S
C447   C449    1.416   .     A
C448   N471    1.367   .     A
C448   H470    1.082   .     S
C448   C450    1.416   .     A
C449   H495    1.082   .     S
C449   N471    1.367   .     A
C450   H496    1.082   .     S
C450   N472    1.367   .     A
C451   O479    1.295   .     A
C451   C453    1.470   .     S
C451   O539    1.296   .     S
C452   O480    1.295   .     A
C452   C454    1.470   .     S
C453   C457    1.403   .     A
C453   C459    1.403   .     A
C454   C460    1.403   .     A
C454   C458    1.403   .     A
C455   C463    1.401   .     A
C455   H487    1.084   .     S
C455   C457    1.391   .     A
C456   H488    1.084   .     S
C456   C458    1.391   .     A
C456   C464    1.401   .     A
C457   F548    1.358   .     S
C459   C461    1.412   .     A
C459   F484    1.358   .     S
C460   C462    1.412   .     A
C460   F483    1.358   .     S
C461   C463    1.418   .     A
C461   C465    1.429   .     A
C462   C464    1.418   .     A
C462   C466    1.429   .     A
C463   C997    1.390   .     S
C464   C998    1.390   1_554 S
C465   C1024   1.426   .     S
C466   C1023   1.426   1_554 S
Cu467  O480    1.941   .     S
Cu467  O473    1.967   .     S
Cu467  O476    1.969   .     S
Cu467  O477    1.957   .     S
Cu467  N471    2.011   .     S
Cu468  O475    1.969   .     S
Cu468  O479    1.941   .     S
Cu468  O474    1.967   .     S
Cu468  O478    1.957   .     S
Cu468  N472    2.011   .     S
Cu468  Cu529   2.677   .     S
O474   C498    1.293   .     S
O478   C514    1.296   .     S
F485   C520    1.358   .     S
C497   C508    1.452   .     S
C497   O537    1.290   .     A
C497   O411    1.293   1_655 S
C498   O538    1.290   .     A
C498   C507    1.452   .     S
C499   C501    1.385   .     A
C499   C528    1.414   .     A
C499   H551    1.076   .     S
C500   H552    1.076   .     S
C500   C527    1.414   .     A
C500   C502    1.385   .     A
C501   H543    1.084   .     S
C501   C1083   1.390   1_554 S
C502   H544    1.084   .     S
C502   C1084   1.390   .     S
C503   C508    1.406   .     A
C503   F553    1.358   .     S
C504   F554    1.358   .     S
C504   C507    1.406   .     A
C504   C134    1.383   1_565 S
C505   H555    1.084   .     S
C505   C131    1.383   1_565 S
C505   C383    1.401   1_655 S
C506   H556    1.084   .     S
C508   C382    1.401   1_655 S
C509   N534    1.367   .     A
C509   H531    1.082   .     S
C509   C511    1.416   .     A
C510   N533    1.367   .     A
C510   H532    1.082   .     S
C510   C512    1.416   .     A
C511   H557    1.082   .     S
C511   N533    1.367   .     A
C512   H558    1.082   .     S
C512   N534    1.367   .     A
C513   O541    1.295   .     A
C513   C515    1.470   .     S
C513   O415    1.296   1_655 S
C514   O542    1.295   .     A
C514   C516    1.470   .     S
C515   C519    1.403   .     A
C515   C521    1.403   .     A
C516   C522    1.403   .     A
C516   C520    1.403   .     A
C517   C525    1.401   .     A
C517   H549    1.084   .     S
C517   C519    1.391   .     A
C518   H550    1.084   .     S
C518   C520    1.391   .     A
C518   C526    1.401   .     A
C519   F424    1.358   1_655 S
C521   C523    1.412   .     A
C521   F546    1.358   .     S
C522   C524    1.412   .     A
C522   F545    1.358   .     S
C523   C525    1.418   .     A
C523   C527    1.429   .     A
C524   C526    1.418   .     A
C524   C528    1.429   .     A
C525   C1059   1.390   .     S
C526   C1060   1.390   1_554 S
C527   C1086   1.426   .     S
C528   C1085   1.426   1_554 S
Cu529  O542    1.941   .     S
Cu529  O535    1.967   .     S
Cu529  O538    1.969   .     S
Cu529  O539    1.957   .     S
Cu529  N533    2.011   .     S
Cu530  O537    1.969   .     S
Cu530  O541    1.941   .     S
Cu530  O536    1.967   .     S
Cu530  O540    1.957   .     S
Cu530  N534    2.011   .     S
Cu530  Cu405   2.677   1_655 S
O536   C374    1.293   1_655 S
O540   C390    1.296   1_655 S
F547   C396    1.358   1_655 S
C559   C570    1.452   .     S
C559   O599    1.290   .     A
C559   O659    1.293   .     S
C560   O600    1.290   .     A
C560   C569    1.452   .     S
C560   O722    1.293   1_455 S
C561   C563    1.385   .     A
C561   C590    1.414   .     A
C561   H613    1.076   .     S
C562   H614    1.076   .     S
C562   C589    1.414   .     A
C562   C564    1.385   .     A
C563   H605    1.084   .     S
C564   H606    1.084   .     S
C564   C30     1.390   1_556 S
C565   C570    1.406   .     A
C565   F615    1.358   .     S
C565   C939    1.383   1_545 S
C566   F616    1.358   .     S
C566   C569    1.406   .     A
C566   C754    1.383   .     S
C567   H617    1.084   .     S
C567   C751    1.383   .     S
C567   C631    1.401   .     S
C568   H618    1.084   .     S
C568   C938    1.383   1_545 S
C568   C694    1.401   1_455 S
C569   C691    1.401   1_455 S
C570   C630    1.401   .     S
C571   N596    1.367   .     A
C571   H593    1.082   .     S
C571   C573    1.416   .     A
C572   N595    1.367   .     A
C572   H594    1.082   .     S
C572   C574    1.416   .     A
C573   H619    1.082   .     S
C573   N595    1.367   .     A
C574   H620    1.082   .     S
C574   N596    1.367   .     A
C575   O603    1.295   .     A
C575   C577    1.470   .     S
C575   O663    1.296   .     S
C576   O604    1.295   .     A
C576   C578    1.470   .     S
C576   O726    1.296   1_455 S
C577   C581    1.403   .     A
C577   C583    1.403   .     A
C578   C584    1.403   .     A
C578   C582    1.403   .     A
C579   C587    1.401   .     A
C579   H611    1.084   .     S
C579   C581    1.391   .     A
C580   H612    1.084   .     S
C580   C582    1.391   .     A
C580   C588    1.401   .     A
C581   F672    1.358   .     S
C582   F733    1.358   1_455 S
C583   C585    1.412   .     A
C583   F608    1.358   .     S
C584   C586    1.412   .     A
C584   F607    1.358   .     S
C585   C587    1.418   .     A
C585   C589    1.429   .     A
C586   C588    1.418   .     A
C586   C590    1.429   .     A
C587   C5      1.390   1_556 S
C589   C32     1.426   1_556 S
Cu591  O604    1.941   .     S
Cu591  O597    1.967   .     S
Cu591  O600    1.969   .     S
Cu591  O601    1.957   .     S
Cu591  N595    2.011   .     S
Cu591  Cu716   2.677   1_455 S
Cu592  O599    1.969   .     S
Cu592  O603    1.941   .     S
Cu592  O598    1.967   .     S
Cu592  O602    1.957   .     S
Cu592  N596    2.011   .     S
Cu592  Cu653   2.677   .     S
O597   C683    1.293   1_455 S
O598   C622    1.293   .     S
O601   C699    1.296   1_455 S
O602   C638    1.296   .     S
F609   C644    1.358   .     S
F610   C705    1.358   1_455 S
C621   C632    1.452   .     S
C621   O661    1.290   .     A
C621   O721    1.293   .     S
C622   O662    1.290   .     A
C622   C631    1.452   .     S
C623   C625    1.385   .     A
C623   C652    1.414   .     A
C623   H675    1.076   .     S
C624   H676    1.076   .     S
C624   C651    1.414   .     A
C624   C626    1.385   .     A
C625   H667    1.084   .     S
C626   H668    1.084   .     S
C626   C92     1.390   1_556 S
C627   C632    1.406   .     A
C627   F677    1.358   .     S
C627   C1001   1.383   1_545 S
C628   F678    1.358   .     S
C628   C631    1.406   .     A
C628   C816    1.383   .     S
C629   H679    1.084   .     S
C629   C813    1.383   .     S
C629   C693    1.401   .     S
C630   H680    1.084   .     S
C630   C1000   1.383   1_545 S
C632   C692    1.401   .     S
C633   N658    1.367   .     A
C633   H655    1.082   .     S
C633   C635    1.416   .     A
C634   N657    1.367   .     A
C634   H656    1.082   .     S
C634   C636    1.416   .     A
C635   H681    1.082   .     S
C635   N657    1.367   .     A
C636   H682    1.082   .     S
C636   N658    1.367   .     A
C637   O665    1.295   .     A
C637   C639    1.470   .     S
C637   O725    1.296   .     S
C638   O666    1.295   .     A
C638   C640    1.470   .     S
C639   C643    1.403   .     A
C639   C645    1.403   .     A
C640   C646    1.403   .     A
C640   C644    1.403   .     A
C641   C649    1.401   .     A
C641   H673    1.084   .     S
C641   C643    1.391   .     A
C642   H674    1.084   .     S
C642   C644    1.391   .     A
C642   C650    1.401   .     A
C643   F734    1.358   .     S
C645   C647    1.412   .     A
C645   F670    1.358   .     S
C646   C648    1.412   .     A
C646   F669    1.358   .     S
C647   C649    1.418   .     A
C647   C651    1.429   .     A
C648   C650    1.418   .     A
C648   C652    1.429   .     A
C649   C67     1.390   1_556 S
C651   C94     1.426   1_556 S
Cu653  O666    1.941   .     S
Cu653  O659    1.967   .     S
Cu653  O662    1.969   .     S
Cu653  O663    1.957   .     S
Cu653  N657    2.011   .     S
Cu654  O661    1.969   .     S
Cu654  O665    1.941   .     S
Cu654  O660    1.967   .     S
Cu654  O664    1.957   .     S
Cu654  N658    2.011   .     S
Cu654  Cu715   2.677   .     S
O660   C684    1.293   .     S
O664   C700    1.296   .     S
F671   C706    1.358   .     S
C683   C694    1.452   .     S
C683   O723    1.290   .     A
C683   O597    1.293   1_655 S
C684   O724    1.290   .     A
C684   C693    1.452   .     S
C685   C687    1.385   .     A
C685   C714    1.414   .     A
C685   H737    1.076   .     S
C686   H738    1.076   .     S
C686   C713    1.414   .     A
C686   C688    1.385   .     A
C687   H729    1.084   .     S
C688   H730    1.084   .     S
C688   C154    1.390   1_556 S
C689   C694    1.406   .     A
C689   F739    1.358   .     S
C689   C1063   1.383   1_545 S
C690   F740    1.358   .     S
C690   C693    1.406   .     A
C690   C878    1.383   .     S
C691   H741    1.084   .     S
C691   C875    1.383   .     S
C691   C569    1.401   1_655 S
C692   H742    1.084   .     S
C692   C1062   1.383   1_545 S
C694   C568    1.401   1_655 S
C695   N720    1.367   .     A
C695   H717    1.082   .     S
C695   C697    1.416   .     A
C696   N719    1.367   .     A
C696   H718    1.082   .     S
C696   C698    1.416   .     A
C697   H743    1.082   .     S
C697   N719    1.367   .     A
C698   H744    1.082   .     S
C698   N720    1.367   .     A
C699   O727    1.295   .     A
C699   C701    1.470   .     S
C699   O601    1.296   1_655 S
C700   O728    1.295   .     A
C700   C702    1.470   .     S
C701   C705    1.403   .     A
C701   C707    1.403   .     A
C702   C708    1.403   .     A
C702   C706    1.403   .     A
C703   C711    1.401   .     A
C703   H735    1.084   .     S
C703   C705    1.391   .     A
C704   H736    1.084   .     S
C704   C706    1.391   .     A
C704   C712    1.401   .     A
C705   F610    1.358   1_655 S
C707   C709    1.412   .     A
C707   F732    1.358   .     S
C708   C710    1.412   .     A
C708   F731    1.358   .     S
C709   C711    1.418   .     A
C709   C713    1.429   .     A
C710   C712    1.418   .     A
C710   C714    1.429   .     A
C711   C129    1.390   1_556 S
C713   C156    1.426   1_556 S
Cu715  O728    1.941   .     S
Cu715  O721    1.967   .     S
Cu715  O724    1.969   .     S
Cu715  O725    1.957   .     S
Cu715  N719    2.011   .     S
Cu716  O723    1.969   .     S
Cu716  O727    1.941   .     S
Cu716  O722    1.967   .     S
Cu716  O726    1.957   .     S
Cu716  N720    2.011   .     S
Cu716  Cu591   2.677   1_655 S
O722   C560    1.293   1_655 S
O726   C576    1.296   1_655 S
F733   C582    1.358   1_655 S
C745   C756    1.452   .     S
C745   O785    1.290   .     A
C745   O845    1.293   .     S
C746   O786    1.290   .     A
C746   C755    1.452   .     S
C746   O908    1.293   1_455 S
C747   C749    1.385   .     A
C747   C776    1.414   .     A
C747   H799    1.076   .     S
C748   H800    1.076   .     S
C748   C775    1.414   .     A
C748   C750    1.385   .     A
C749   H791    1.084   .     S
C750   H792    1.084   .     S
C750   C216    1.390   1_556 S
C751   C756    1.406   .     A
C751   F801    1.358   .     S
C752   F802    1.358   .     S
C752   C755    1.406   .     A
C752   C940    1.383   .     S
C753   H803    1.084   .     S
C753   C937    1.383   .     S
C753   C817    1.401   .     S
C754   H804    1.084   .     S
C754   C880    1.401   1_455 S
C755   C877    1.401   1_455 S
C756   C816    1.401   .     S
C757   N782    1.367   .     A
C757   H779    1.082   .     S
C757   C759    1.416   .     A
C758   N781    1.367   .     A
C758   H780    1.082   .     S
C758   C760    1.416   .     A
C759   H805    1.082   .     S
C759   N781    1.367   .     A
C760   H806    1.082   .     S
C760   N782    1.367   .     A
C761   O789    1.295   .     A
C761   C763    1.470   .     S
C761   O849    1.296   .     S
C762   O790    1.295   .     A
C762   C764    1.470   .     S
C762   O912    1.296   1_455 S
C763   C767    1.403   .     A
C763   C769    1.403   .     A
C764   C770    1.403   .     A
C764   C768    1.403   .     A
C765   C773    1.401   .     A
C765   H797    1.084   .     S
C765   C767    1.391   .     A
C766   H798    1.084   .     S
C766   C768    1.391   .     A
C766   C774    1.401   .     A
C767   F858    1.358   .     S
C768   F919    1.358   1_455 S
C769   C771    1.412   .     A
C769   F794    1.358   .     S
C770   C772    1.412   .     A
C770   F793    1.358   .     S
C771   C773    1.418   .     A
C771   C775    1.429   .     A
C772   C774    1.418   .     A
C772   C776    1.429   .     A
C773   C191    1.390   1_556 S
C775   C218    1.426   1_556 S
Cu777  O790    1.941   .     S
Cu777  O783    1.967   .     S
Cu777  O786    1.969   .     S
Cu777  O787    1.957   .     S
Cu777  N781    2.011   .     S
Cu777  Cu902   2.677   1_455 S
Cu778  O785    1.969   .     S
Cu778  O789    1.941   .     S
Cu778  O784    1.967   .     S
Cu778  O788    1.957   .     S
Cu778  N782    2.011   .     S
Cu778  Cu839   2.677   .     S
O783   C869    1.293   1_455 S
O784   C808    1.293   .     S
O787   C885    1.296   1_455 S
O788   C824    1.296   .     S
F795   C830    1.358   .     S
F796   C891    1.358   1_455 S
C807   C818    1.452   .     S
C807   O847    1.290   .     A
C807   O907    1.293   .     S
C808   O848    1.290   .     A
C808   C817    1.452   .     S
C809   C811    1.385   .     A
C809   C838    1.414   .     A
C809   H861    1.076   .     S
C810   H862    1.076   .     S
C810   C837    1.414   .     A
C810   C812    1.385   .     A
C811   H853    1.084   .     S
C812   H854    1.084   .     S
C812   C278    1.390   1_556 S
C813   C818    1.406   .     A
C813   F863    1.358   .     S
C814   F864    1.358   .     S
C814   C817    1.406   .     A
C814   C1002   1.383   .     S
C815   H865    1.084   .     S
C815   C999    1.383   .     S
C815   C879    1.401   .     S
C816   H866    1.084   .     S
C818   C878    1.401   .     S
C819   N844    1.367   .     A
C819   H841    1.082   .     S
C819   C821    1.416   .     A
C820   N843    1.367   .     A
C820   H842    1.082   .     S
C820   C822    1.416   .     A
C821   H867    1.082   .     S
C821   N843    1.367   .     A
C822   H868    1.082   .     S
C822   N844    1.367   .     A
C823   O851    1.295   .     A
C823   C825    1.470   .     S
C823   O911    1.296   .     S
C824   O852    1.295   .     A
C824   C826    1.470   .     S
C825   C829    1.403   .     A
C825   C831    1.403   .     A
C826   C832    1.403   .     A
C826   C830    1.403   .     A
C827   C835    1.401   .     A
C827   H859    1.084   .     S
C827   C829    1.391   .     A
C828   H860    1.084   .     S
C828   C830    1.391   .     A
C828   C836    1.401   .     A
C829   F920    1.358   .     S
C831   C833    1.412   .     A
C831   F856    1.358   .     S
C832   C834    1.412   .     A
C832   F855    1.358   .     S
C833   C835    1.418   .     A
C833   C837    1.429   .     A
C834   C836    1.418   .     A
C834   C838    1.429   .     A
C835   C253    1.390   1_556 S
C837   C280    1.426   1_556 S
Cu839  O852    1.941   .     S
Cu839  O845    1.967   .     S
Cu839  O848    1.969   .     S
Cu839  O849    1.957   .     S
Cu839  N843    2.011   .     S
Cu840  O847    1.969   .     S
Cu840  O851    1.941   .     S
Cu840  O846    1.967   .     S
Cu840  O850    1.957   .     S
Cu840  N844    2.011   .     S
Cu840  Cu901   2.677   .     S
O846   C870    1.293   .     S
O850   C886    1.296   .     S
F857   C892    1.358   .     S
C869   C880    1.452   .     S
C869   O909    1.290   .     A
C869   O783    1.293   1_655 S
C870   O910    1.290   .     A
C870   C879    1.452   .     S
C871   C873    1.385   .     A
C871   C900    1.414   .     A
C871   H923    1.076   .     S
C872   H924    1.076   .     S
C872   C899    1.414   .     A
C872   C874    1.385   .     A
C873   H915    1.084   .     S
C874   H916    1.084   .     S
C874   C340    1.390   1_556 S
C875   C880    1.406   .     A
C875   F925    1.358   .     S
C876   F926    1.358   .     S
C876   C879    1.406   .     A
C876   C1064   1.383   .     S
C877   H927    1.084   .     S
C877   C1061   1.383   .     S
C877   C755    1.401   1_655 S
C878   H928    1.084   .     S
C880   C754    1.401   1_655 S
C881   N906    1.367   .     A
C881   H903    1.082   .     S
C881   C883    1.416   .     A
C882   N905    1.367   .     A
C882   H904    1.082   .     S
C882   C884    1.416   .     A
C883   H929    1.082   .     S
C883   N905    1.367   .     A
C884   H930    1.082   .     S
C884   N906    1.367   .     A
C885   O913    1.295   .     A
C885   C887    1.470   .     S
C885   O787    1.296   1_655 S
C886   O914    1.295   .     A
C886   C888    1.470   .     S
C887   C891    1.403   .     A
C887   C893    1.403   .     A
C888   C894    1.403   .     A
C888   C892    1.403   .     A
C889   C897    1.401   .     A
C889   H921    1.084   .     S
C889   C891    1.391   .     A
C890   H922    1.084   .     S
C890   C892    1.391   .     A
C890   C898    1.401   .     A
C891   F796    1.358   1_655 S
C893   C895    1.412   .     A
C893   F918    1.358   .     S
C894   C896    1.412   .     A
C894   F917    1.358   .     S
C895   C897    1.418   .     A
C895   C899    1.429   .     A
C896   C898    1.418   .     A
C896   C900    1.429   .     A
C897   C315    1.390   1_556 S
C899   C342    1.426   1_556 S
Cu901  O914    1.941   .     S
Cu901  O907    1.967   .     S
Cu901  O910    1.969   .     S
Cu901  O911    1.957   .     S
Cu901  N905    2.011   .     S
Cu902  O909    1.969   .     S
Cu902  O913    1.941   .     S
Cu902  O908    1.967   .     S
Cu902  O912    1.957   .     S
Cu902  N906    2.011   .     S
Cu902  Cu777   2.677   1_655 S
O908   C746    1.293   1_655 S
O912   C762    1.296   1_655 S
F919   C768    1.358   1_655 S
C931   C942    1.452   .     S
C931   O971    1.290   .     A
C931   O1031   1.293   .     S
C932   O972    1.290   .     A
C932   C941    1.452   .     S
C932   O1094   1.293   1_455 S
C933   C935    1.385   .     A
C933   C962    1.414   .     A
C933   H985    1.076   .     S
C934   H986    1.076   .     S
C934   C961    1.414   .     A
C934   C936    1.385   .     A
C935   H977    1.084   .     S
C936   H978    1.084   .     S
C936   C402    1.390   1_556 S
C937   C942    1.406   .     A
C937   F987    1.358   .     S
C938   F988    1.358   .     S
C938   C941    1.406   .     A
C938   C568    1.383   1_565 S
C939   H989    1.084   .     S
C939   C565    1.383   1_565 S
C939   C1003   1.401   .     S
C940   H990    1.084   .     S
C940   C1066   1.401   1_455 S
C941   C1063   1.401   1_455 S
C942   C1002   1.401   .     S
C943   N968    1.367   .     A
C943   H965    1.082   .     S
C943   C945    1.416   .     A
C944   N967    1.367   .     A
C944   H966    1.082   .     S
C944   C946    1.416   .     A
C945   H991    1.082   .     S
C945   N967    1.367   .     A
C946   H992    1.082   .     S
C946   N968    1.367   .     A
C947   O975    1.295   .     A
C947   C949    1.470   .     S
C947   O1035   1.296   .     S
C948   O976    1.295   .     A
C948   C950    1.470   .     S
C948   O1098   1.296   1_455 S
C949   C953    1.403   .     A
C949   C955    1.403   .     A
C950   C956    1.403   .     A
C950   C954    1.403   .     A
C951   C959    1.401   .     A
C951   H983    1.084   .     S
C951   C953    1.391   .     A
C952   H984    1.084   .     S
C952   C954    1.391   .     A
C952   C960    1.401   .     A
C953   F1044   1.358   .     S
C954   F1105   1.358   1_455 S
C955   C957    1.412   .     A
C955   F980    1.358   .     S
C956   C958    1.412   .     A
C956   F979    1.358   .     S
C957   C959    1.418   .     A
C957   C961    1.429   .     A
C958   C960    1.418   .     A
C958   C962    1.429   .     A
C959   C377    1.390   1_556 S
C961   C404    1.426   1_556 S
Cu963  O976    1.941   .     S
Cu963  O969    1.967   .     S
Cu963  O972    1.969   .     S
Cu963  O973    1.957   .     S
Cu963  N967    2.011   .     S
Cu963  Cu1088  2.677   1_455 S
Cu964  O971    1.969   .     S
Cu964  O975    1.941   .     S
Cu964  O970    1.967   .     S
Cu964  O974    1.957   .     S
Cu964  N968    2.011   .     S
Cu964  Cu1025  2.677   .     S
O969   C1055   1.293   1_455 S
O970   C994    1.293   .     S
O973   C1071   1.296   1_455 S
O974   C1010   1.296   .     S
F981   C1016   1.358   .     S
F982   C1077   1.358   1_455 S
C993   C1004   1.452   .     S
C993   O1033   1.290   .     A
C993   O1093   1.293   .     S
C994   O1034   1.290   .     A
C994   C1003   1.452   .     S
C995   C997    1.385   .     A
C995   C1024   1.414   .     A
C995   H1047   1.076   .     S
C996   H1048   1.076   .     S
C996   C1023   1.414   .     A
C996   C998    1.385   .     A
C997   H1039   1.084   .     S
C998   H1040   1.084   .     S
C998   C464    1.390   1_556 S
C999   C1004   1.406   .     A
C999   F1049   1.358   .     S
C1000  F1050   1.358   .     S
C1000  C1003   1.406   .     A
C1000  C630    1.383   1_565 S
C1001  H1051   1.084   .     S
C1001  C627    1.383   1_565 S
C1001  C1065   1.401   .     S
C1002  H1052   1.084   .     S
C1004  C1064   1.401   .     S
C1005  N1030   1.367   .     A
C1005  H1027   1.082   .     S
C1005  C1007   1.416   .     A
C1006  N1029   1.367   .     A
C1006  H1028   1.082   .     S
C1006  C1008   1.416   .     A
C1007  H1053   1.082   .     S
C1007  N1029   1.367   .     A
C1008  H1054   1.082   .     S
C1008  N1030   1.367   .     A
C1009  O1037   1.295   .     A
C1009  C1011   1.470   .     S
C1009  O1097   1.296   .     S
C1010  O1038   1.295   .     A
C1010  C1012   1.470   .     S
C1011  C1015   1.403   .     A
C1011  C1017   1.403   .     A
C1012  C1018   1.403   .     A
C1012  C1016   1.403   .     A
C1013  C1021   1.401   .     A
C1013  H1045   1.084   .     S
C1013  C1015   1.391   .     A
C1014  H1046   1.084   .     S
C1014  C1016   1.391   .     A
C1014  C1022   1.401   .     A
C1015  F1106   1.358   .     S
C1017  C1019   1.412   .     A
C1017  F1042   1.358   .     S
C1018  C1020   1.412   .     A
C1018  F1041   1.358   .     S
C1019  C1021   1.418   .     A
C1019  C1023   1.429   .     A
C1020  C1022   1.418   .     A
C1020  C1024   1.429   .     A
C1021  C439    1.390   1_556 S
C1023  C466    1.426   1_556 S
Cu1025 O1038   1.941   .     S
Cu1025 O1031   1.967   .     S
Cu1025 O1034   1.969   .     S
Cu1025 O1035   1.957   .     S
Cu1025 N1029   2.011   .     S
Cu1026 O1033   1.969   .     S
Cu1026 O1037   1.941   .     S
Cu1026 O1032   1.967   .     S
Cu1026 O1036   1.957   .     S
Cu1026 N1030   2.011   .     S
Cu1026 Cu1087  2.677   .     S
O1032  C1056   1.293   .     S
O1036  C1072   1.296   .     S
F1043  C1078   1.358   .     S
C1055  C1066   1.452   .     S
C1055  O1095   1.290   .     A
C1055  O969    1.293   1_655 S
C1056  O1096   1.290   .     A
C1056  C1065   1.452   .     S
C1057  C1059   1.385   .     A
C1057  C1086   1.414   .     A
C1057  H1109   1.076   .     S
C1058  H1110   1.076   .     S
C1058  C1085   1.414   .     A
C1058  C1060   1.385   .     A
C1059  H1101   1.084   .     S
C1060  H1102   1.084   .     S
C1060  C526    1.390   1_556 S
C1061  C1066   1.406   .     A
C1061  F1111   1.358   .     S
C1062  F1112   1.358   .     S
C1062  C1065   1.406   .     A
C1062  C692    1.383   1_565 S
C1063  H1113   1.084   .     S
C1063  C689    1.383   1_565 S
C1063  C941    1.401   1_655 S
C1064  H1114   1.084   .     S
C1066  C940    1.401   1_655 S
C1067  N1092   1.367   .     A
C1067  H1089   1.082   .     S
C1067  C1069   1.416   .     A
C1068  N1091   1.367   .     A
C1068  H1090   1.082   .     S
C1068  C1070   1.416   .     A
C1069  H1115   1.082   .     S
C1069  N1091   1.367   .     A
C1070  H1116   1.082   .     S
C1070  N1092   1.367   .     A
C1071  O1099   1.295   .     A
C1071  C1073   1.470   .     S
C1071  O973    1.296   1_655 S
C1072  O1100   1.295   .     A
C1072  C1074   1.470   .     S
C1073  C1077   1.403   .     A
C1073  C1079   1.403   .     A
C1074  C1080   1.403   .     A
C1074  C1078   1.403   .     A
C1075  C1083   1.401   .     A
C1075  H1107   1.084   .     S
C1075  C1077   1.391   .     A
C1076  H1108   1.084   .     S
C1076  C1078   1.391   .     A
C1076  C1084   1.401   .     A
C1077  F982    1.358   1_655 S
C1079  C1081   1.412   .     A
C1079  F1104   1.358   .     S
C1080  C1082   1.412   .     A
C1080  F1103   1.358   .     S
C1081  C1083   1.418   .     A
C1081  C1085   1.429   .     A
C1082  C1084   1.418   .     A
C1082  C1086   1.429   .     A
C1083  C501    1.390   1_556 S
C1085  C528    1.426   1_556 S
Cu1087 O1100   1.941   .     S
Cu1087 O1093   1.967   .     S
Cu1087 O1096   1.969   .     S
Cu1087 O1097   1.957   .     S
Cu1087 N1091   2.011   .     S
Cu1088 O1095   1.969   .     S
Cu1088 O1099   1.941   .     S
Cu1088 O1094   1.967   .     S
Cu1088 O1098   1.957   .     S
Cu1088 N1092   2.011   .     S
Cu1088 Cu963   2.677   1_655 S
O1094  C932    1.293   1_655 S
O1098  C948    1.296   1_655 S
F1105  C954    1.358   1_655 S
