data_str_m3_o10_o16_pcu_sym.169
_audit_creation_date              2020-01-03
_audit_creation_method            'Materials Studio'
_symmetry_space_group_name_H-M    'P1'
_symmetry_Int_Tables_number       1
_symmetry_cell_setting            triclinic
loop_
_symmetry_equiv_pos_as_xyz
  x,y,z
_cell_length_a                    23.3516
_cell_length_b                    25.8879
_cell_length_c                    25.2829
_cell_angle_alpha                 92.9515
_cell_angle_beta                  102.4302
_cell_angle_gamma                 93.7394
loop_
_atom_site_label
_atom_site_type_symbol
_atom_site_fract_x
_atom_site_fract_y
_atom_site_fract_z
_atom_site_U_iso_or_equiv
_atom_site_adp_type
_atom_site_occupancy
C1     C     0.01426   0.26461   0.24657   0.00000  Uiso   1.00
C2     C     0.13042   0.15604   0.49660   0.00000  Uiso   1.00
C3     C     0.11161   0.14732   0.43933   0.00000  Uiso   1.00
C4     C     0.18676   0.14047   0.02030   0.00000  Uiso   1.00
C5     C     0.21128   0.10036   0.49419   0.00000  Uiso   1.00
C6     C     0.18277   0.08124   0.44278   0.00000  Uiso   1.00
C7     C     0.14466   0.11328   0.41243   0.00000  Uiso   1.00
C8     C     0.22206   0.16751   0.06584   0.00000  Uiso   1.00
C9     C     0.29902   0.10901   0.06493   0.00000  Uiso   1.00
C10    C     0.05945   0.17053   0.41327   0.00000  Uiso   1.00
C11    C     0.02044   0.31765   0.23661   0.00000  Uiso   1.00
C12    C     0.03698   0.16781   0.35437   0.00000  Uiso   1.00
C13    C     0.31021   0.01358   0.24518   0.00000  Uiso   1.00
C14    C     0.31784   0.06834   0.24812   0.00000  Uiso   1.00
C15    C     0.29718   0.16335   0.14611   0.00000  Uiso   1.00
C16    C     0.26725   0.08478   0.01655   0.00000  Uiso   1.00
C17    C     0.27557   0.14952   0.08968   0.00000  Uiso   1.00
C18    C     0.02702   0.19778   0.44446   0.00000  Uiso   1.00
C19    C     0.04369   0.20257   0.00037   0.00000  Uiso   1.00
C20    C     0.09452   0.18158   0.02723   0.00000  Uiso   1.00
H21    H     0.00723   0.09478   0.08393   0.00000  Uiso   1.00
H22    H     0.27045   0.33078   0.25616   0.00000  Uiso   1.00
H23    H     0.15735   0.12169   0.21393   0.00000  Uiso   1.00
H24    H     0.28670   0.05492   0.49624   0.00000  Uiso   1.00
H25    H     0.20878   0.20254   0.08369   0.00000  Uiso   1.00
H26    H     0.32062   0.21504   0.42534   0.00000  Uiso   1.00
H27    H     0.01531   0.22173   0.02266   0.00000  Uiso   1.00
N28    N     0.14493   0.15223   0.23543   0.00000  Uiso   1.00
N29    N     0.18840   0.18110   0.26458   0.00000  Uiso   1.00
O30    O     0.29769   0.24629   0.25358   0.00000  Uiso   1.00
O31    O     0.05742   0.23704   0.24424   0.00000  Uiso   1.00
O32    O     0.31490   0.17358   0.33380   0.00000  Uiso   1.00
O33    O     0.07463   0.16433   0.32446   0.00000  Uiso   1.00
O34    O     0.27592   0.09629   0.25576   0.00000  Uiso   1.00
O35    O     0.03565   0.08704   0.24643   0.00000  Uiso   1.00
O36    O     0.25870   0.16901   0.17554   0.00000  Uiso   1.00
O37    O     0.01843   0.15976   0.16620   0.00000  Uiso   1.00
Zn38   Zn    0.27119   0.17284   0.25624   0.00000  Uiso   1.00
Zn39   Zn    0.06214   0.16049   0.24377   0.00000  Uiso   1.00
C40    C     0.17333   0.22697   0.28925   0.00000  Uiso   1.00
H41    H     0.20754   0.25492   0.31230   0.00000  Uiso   1.00
O42    O     0.21154   0.25819   0.31500   0.00000  Uiso   1.00
H43    H     0.20429   0.05301   0.42222   0.00000  Uiso   1.00
C44    C     0.10461   0.18190   0.08708   0.00000  Uiso   1.00
H45    H     0.12629   0.15074   0.10816   0.00000  Uiso   1.00
O46    O     0.08934   0.21735   0.11333   0.00000  Uiso   1.00
C47    C     0.17053   0.12968   0.36736   0.00000  Uiso   1.00
H48    H     0.18681   0.16983   0.36770   0.00000  Uiso   1.00
O49    O     0.17764   0.09781   0.33232   0.00000  Uiso   1.00
C50    C     0.07392   0.00172   0.21617   0.00000  Uiso   1.00
H51    H     0.11761   0.32615   0.23827   0.00000  Uiso   1.00
O52    O     0.06916   0.02434   0.17415   0.00000  Uiso   1.00
C53    C     0.34759   0.26461   0.24657   0.00000  Uiso   1.00
C54    C     0.46375   0.15604   0.49660   0.00000  Uiso   1.00
C55    C     0.44494   0.14732   0.43933   0.00000  Uiso   1.00
C56    C     0.52010   0.14047   0.02030   0.00000  Uiso   1.00
C57    C     0.54461   0.10036   0.49419   0.00000  Uiso   1.00
C58    C     0.51610   0.08124   0.44278   0.00000  Uiso   1.00
C59    C     0.47799   0.11328   0.41243   0.00000  Uiso   1.00
C60    C     0.55539   0.16751   0.06584   0.00000  Uiso   1.00
C61    C     0.63235   0.10901   0.06493   0.00000  Uiso   1.00
C62    C     0.39278   0.17053   0.41327   0.00000  Uiso   1.00
C63    C     0.35378   0.31765   0.23661   0.00000  Uiso   1.00
C64    C     0.37031   0.16781   0.35437   0.00000  Uiso   1.00
C65    C     0.64355   0.01358   0.24518   0.00000  Uiso   1.00
C66    C     0.65117   0.06834   0.24812   0.00000  Uiso   1.00
C67    C     0.63052   0.16335   0.14611   0.00000  Uiso   1.00
C68    C     0.60058   0.08478   0.01655   0.00000  Uiso   1.00
C69    C     0.60890   0.14952   0.08968   0.00000  Uiso   1.00
C70    C     0.36035   0.19778   0.44446   0.00000  Uiso   1.00
C71    C     0.37703   0.20257   0.00037   0.00000  Uiso   1.00
C72    C     0.42786   0.18158   0.02723   0.00000  Uiso   1.00
H73    H     0.34056   0.09478   0.08393   0.00000  Uiso   1.00
H74    H     0.60378   0.33078   0.25616   0.00000  Uiso   1.00
H75    H     0.49069   0.12169   0.21393   0.00000  Uiso   1.00
H76    H     0.62003   0.05492   0.49624   0.00000  Uiso   1.00
H77    H     0.54211   0.20254   0.08369   0.00000  Uiso   1.00
H78    H     0.65395   0.21504   0.42534   0.00000  Uiso   1.00
H79    H     0.34865   0.22173   0.02266   0.00000  Uiso   1.00
N80    N     0.47827   0.15223   0.23543   0.00000  Uiso   1.00
N81    N     0.52173   0.18110   0.26458   0.00000  Uiso   1.00
O82    O     0.63102   0.24629   0.25358   0.00000  Uiso   1.00
O83    O     0.39075   0.23704   0.24424   0.00000  Uiso   1.00
O84    O     0.64823   0.17358   0.33380   0.00000  Uiso   1.00
O85    O     0.40796   0.16433   0.32446   0.00000  Uiso   1.00
O86    O     0.60925   0.09629   0.25576   0.00000  Uiso   1.00
O87    O     0.36898   0.08704   0.24643   0.00000  Uiso   1.00
O88    O     0.59204   0.16901   0.17554   0.00000  Uiso   1.00
O89    O     0.35177   0.15976   0.16620   0.00000  Uiso   1.00
Zn90   Zn    0.60453   0.17284   0.25624   0.00000  Uiso   1.00
Zn91   Zn    0.39547   0.16049   0.24377   0.00000  Uiso   1.00
C92    C     0.50667   0.22697   0.28925   0.00000  Uiso   1.00
H93    H     0.54087   0.25492   0.31230   0.00000  Uiso   1.00
O94    O     0.54487   0.25819   0.31500   0.00000  Uiso   1.00
H95    H     0.53762   0.05301   0.42222   0.00000  Uiso   1.00
C96    C     0.43795   0.18190   0.08708   0.00000  Uiso   1.00
H97    H     0.45962   0.15074   0.10816   0.00000  Uiso   1.00
O98    O     0.42267   0.21735   0.11333   0.00000  Uiso   1.00
C99    C     0.50386   0.12968   0.36736   0.00000  Uiso   1.00
H100   H     0.52014   0.16983   0.36770   0.00000  Uiso   1.00
O101   O     0.51098   0.09781   0.33232   0.00000  Uiso   1.00
C102   C     0.40725   0.00172   0.21617   0.00000  Uiso   1.00
H103   H     0.45094   0.32615   0.23827   0.00000  Uiso   1.00
O104   O     0.40249   0.02434   0.17415   0.00000  Uiso   1.00
C105   C     0.68092   0.26461   0.24657   0.00000  Uiso   1.00
C106   C     0.79708   0.15604   0.49660   0.00000  Uiso   1.00
C107   C     0.77827   0.14732   0.43933   0.00000  Uiso   1.00
C108   C     0.85343   0.14047   0.02030   0.00000  Uiso   1.00
C109   C     0.87795   0.10036   0.49419   0.00000  Uiso   1.00
C110   C     0.84944   0.08124   0.44278   0.00000  Uiso   1.00
C111   C     0.81132   0.11328   0.41243   0.00000  Uiso   1.00
C112   C     0.88873   0.16751   0.06584   0.00000  Uiso   1.00
C113   C     0.96569   0.10901   0.06493   0.00000  Uiso   1.00
C114   C     0.72611   0.17053   0.41327   0.00000  Uiso   1.00
C115   C     0.68711   0.31765   0.23661   0.00000  Uiso   1.00
C116   C     0.70365   0.16781   0.35437   0.00000  Uiso   1.00
C117   C     0.97688   0.01358   0.24518   0.00000  Uiso   1.00
C118   C     0.98451   0.06834   0.24812   0.00000  Uiso   1.00
C119   C     0.96385   0.16335   0.14611   0.00000  Uiso   1.00
C120   C     0.93391   0.08478   0.01655   0.00000  Uiso   1.00
C121   C     0.94223   0.14952   0.08968   0.00000  Uiso   1.00
C122   C     0.69368   0.19778   0.44446   0.00000  Uiso   1.00
C123   C     0.71036   0.20257   0.00037   0.00000  Uiso   1.00
C124   C     0.76119   0.18158   0.02723   0.00000  Uiso   1.00
H125   H     0.67389   0.09478   0.08393   0.00000  Uiso   1.00
H126   H     0.93711   0.33078   0.25616   0.00000  Uiso   1.00
H127   H     0.82402   0.12169   0.21393   0.00000  Uiso   1.00
H128   H     0.95336   0.05492   0.49624   0.00000  Uiso   1.00
H129   H     0.87544   0.20254   0.08369   0.00000  Uiso   1.00
H130   H     0.98729   0.21504   0.42534   0.00000  Uiso   1.00
H131   H     0.68198   0.22173   0.02266   0.00000  Uiso   1.00
N132   N     0.81160   0.15223   0.23543   0.00000  Uiso   1.00
N133   N     0.85507   0.18110   0.26458   0.00000  Uiso   1.00
O134   O     0.96435   0.24629   0.25358   0.00000  Uiso   1.00
O135   O     0.72408   0.23704   0.24424   0.00000  Uiso   1.00
O136   O     0.98157   0.17358   0.33380   0.00000  Uiso   1.00
O137   O     0.74130   0.16433   0.32446   0.00000  Uiso   1.00
O138   O     0.94258   0.09629   0.25576   0.00000  Uiso   1.00
O139   O     0.70231   0.08704   0.24643   0.00000  Uiso   1.00
O140   O     0.92537   0.16901   0.17554   0.00000  Uiso   1.00
O141   O     0.68510   0.15976   0.16620   0.00000  Uiso   1.00
Zn142  Zn    0.93786   0.17284   0.25624   0.00000  Uiso   1.00
Zn143  Zn    0.72881   0.16049   0.24377   0.00000  Uiso   1.00
C144   C     0.84000   0.22697   0.28925   0.00000  Uiso   1.00
H145   H     0.87420   0.25492   0.31230   0.00000  Uiso   1.00
O146   O     0.87820   0.25819   0.31500   0.00000  Uiso   1.00
H147   H     0.87096   0.05301   0.42222   0.00000  Uiso   1.00
C148   C     0.77128   0.18190   0.08708   0.00000  Uiso   1.00
H149   H     0.79295   0.15074   0.10816   0.00000  Uiso   1.00
O150   O     0.75600   0.21735   0.11333   0.00000  Uiso   1.00
C151   C     0.83720   0.12968   0.36736   0.00000  Uiso   1.00
H152   H     0.85348   0.16983   0.36770   0.00000  Uiso   1.00
O153   O     0.84431   0.09781   0.33232   0.00000  Uiso   1.00
C154   C     0.74058   0.00172   0.21617   0.00000  Uiso   1.00
H155   H     0.78428   0.32615   0.23827   0.00000  Uiso   1.00
O156   O     0.73583   0.02434   0.17415   0.00000  Uiso   1.00
C157   C     0.01426   0.59795   0.24657   0.00000  Uiso   1.00
C158   C     0.13042   0.48938   0.49660   0.00000  Uiso   1.00
C159   C     0.11161   0.48065   0.43933   0.00000  Uiso   1.00
C160   C     0.18676   0.47381   0.02030   0.00000  Uiso   1.00
C161   C     0.21128   0.43369   0.49419   0.00000  Uiso   1.00
C162   C     0.18277   0.41457   0.44278   0.00000  Uiso   1.00
C163   C     0.14466   0.44661   0.41243   0.00000  Uiso   1.00
C164   C     0.22206   0.50084   0.06584   0.00000  Uiso   1.00
C165   C     0.29902   0.44234   0.06493   0.00000  Uiso   1.00
C166   C     0.05945   0.50386   0.41327   0.00000  Uiso   1.00
C167   C     0.02044   0.65098   0.23661   0.00000  Uiso   1.00
C168   C     0.03698   0.50114   0.35437   0.00000  Uiso   1.00
C169   C     0.31021   0.34692   0.24518   0.00000  Uiso   1.00
C170   C     0.31784   0.40167   0.24812   0.00000  Uiso   1.00
C171   C     0.29718   0.49668   0.14611   0.00000  Uiso   1.00
C172   C     0.26725   0.41811   0.01655   0.00000  Uiso   1.00
C173   C     0.27557   0.48285   0.08968   0.00000  Uiso   1.00
C174   C     0.02702   0.53111   0.44446   0.00000  Uiso   1.00
C175   C     0.04369   0.53590   0.00037   0.00000  Uiso   1.00
C176   C     0.09452   0.51492   0.02723   0.00000  Uiso   1.00
H177   H     0.00723   0.42812   0.08393   0.00000  Uiso   1.00
H178   H     0.27045   0.66411   0.25616   0.00000  Uiso   1.00
H179   H     0.15735   0.45502   0.21393   0.00000  Uiso   1.00
H180   H     0.28670   0.38826   0.49624   0.00000  Uiso   1.00
H181   H     0.20878   0.53587   0.08369   0.00000  Uiso   1.00
H182   H     0.32062   0.54837   0.42534   0.00000  Uiso   1.00
H183   H     0.01531   0.55506   0.02266   0.00000  Uiso   1.00
N184   N     0.14493   0.48556   0.23543   0.00000  Uiso   1.00
N185   N     0.18840   0.51444   0.26458   0.00000  Uiso   1.00
O186   O     0.29769   0.57963   0.25358   0.00000  Uiso   1.00
O187   O     0.05742   0.57038   0.24424   0.00000  Uiso   1.00
O188   O     0.31490   0.50691   0.33380   0.00000  Uiso   1.00
O189   O     0.07463   0.49766   0.32446   0.00000  Uiso   1.00
O190   O     0.27592   0.42962   0.25576   0.00000  Uiso   1.00
O191   O     0.03565   0.42037   0.24643   0.00000  Uiso   1.00
O192   O     0.25870   0.50234   0.17554   0.00000  Uiso   1.00
O193   O     0.01843   0.49309   0.16620   0.00000  Uiso   1.00
Zn194  Zn    0.27119   0.50618   0.25624   0.00000  Uiso   1.00
Zn195  Zn    0.06214   0.49382   0.24377   0.00000  Uiso   1.00
C196   C     0.17333   0.56030   0.28925   0.00000  Uiso   1.00
H197   H     0.20754   0.58825   0.31230   0.00000  Uiso   1.00
O198   O     0.21154   0.59152   0.31500   0.00000  Uiso   1.00
H199   H     0.20429   0.38634   0.42222   0.00000  Uiso   1.00
C200   C     0.10461   0.51523   0.08708   0.00000  Uiso   1.00
H201   H     0.12629   0.48407   0.10816   0.00000  Uiso   1.00
O202   O     0.08934   0.55069   0.11333   0.00000  Uiso   1.00
C203   C     0.17053   0.46301   0.36736   0.00000  Uiso   1.00
H204   H     0.18681   0.50316   0.36770   0.00000  Uiso   1.00
O205   O     0.17764   0.43115   0.33232   0.00000  Uiso   1.00
C206   C     0.07392   0.33505   0.21617   0.00000  Uiso   1.00
H207   H     0.11761   0.65949   0.23827   0.00000  Uiso   1.00
O208   O     0.06916   0.35767   0.17415   0.00000  Uiso   1.00
C209   C     0.34759   0.59795   0.24657   0.00000  Uiso   1.00
C210   C     0.46375   0.48938   0.49660   0.00000  Uiso   1.00
C211   C     0.44494   0.48065   0.43933   0.00000  Uiso   1.00
C212   C     0.52010   0.47381   0.02030   0.00000  Uiso   1.00
C213   C     0.54461   0.43369   0.49419   0.00000  Uiso   1.00
C214   C     0.51610   0.41457   0.44278   0.00000  Uiso   1.00
C215   C     0.47799   0.44661   0.41243   0.00000  Uiso   1.00
C216   C     0.55539   0.50084   0.06584   0.00000  Uiso   1.00
C217   C     0.63235   0.44234   0.06493   0.00000  Uiso   1.00
C218   C     0.39278   0.50386   0.41327   0.00000  Uiso   1.00
C219   C     0.35378   0.65098   0.23661   0.00000  Uiso   1.00
C220   C     0.37031   0.50114   0.35437   0.00000  Uiso   1.00
C221   C     0.64355   0.34692   0.24518   0.00000  Uiso   1.00
C222   C     0.65117   0.40167   0.24812   0.00000  Uiso   1.00
C223   C     0.63052   0.49668   0.14611   0.00000  Uiso   1.00
C224   C     0.60058   0.41811   0.01655   0.00000  Uiso   1.00
C225   C     0.60890   0.48285   0.08968   0.00000  Uiso   1.00
C226   C     0.36035   0.53111   0.44446   0.00000  Uiso   1.00
C227   C     0.37703   0.53590   0.00037   0.00000  Uiso   1.00
C228   C     0.42786   0.51492   0.02723   0.00000  Uiso   1.00
H229   H     0.34056   0.42812   0.08393   0.00000  Uiso   1.00
H230   H     0.60378   0.66411   0.25616   0.00000  Uiso   1.00
H231   H     0.49069   0.45502   0.21393   0.00000  Uiso   1.00
H232   H     0.62003   0.38826   0.49624   0.00000  Uiso   1.00
H233   H     0.54211   0.53587   0.08369   0.00000  Uiso   1.00
H234   H     0.65395   0.54837   0.42534   0.00000  Uiso   1.00
H235   H     0.34865   0.55506   0.02266   0.00000  Uiso   1.00
N236   N     0.47827   0.48556   0.23543   0.00000  Uiso   1.00
N237   N     0.52173   0.51444   0.26458   0.00000  Uiso   1.00
O238   O     0.63102   0.57963   0.25358   0.00000  Uiso   1.00
O239   O     0.39075   0.57038   0.24424   0.00000  Uiso   1.00
O240   O     0.64823   0.50691   0.33380   0.00000  Uiso   1.00
O241   O     0.40796   0.49766   0.32446   0.00000  Uiso   1.00
O242   O     0.60925   0.42962   0.25576   0.00000  Uiso   1.00
O243   O     0.36898   0.42037   0.24643   0.00000  Uiso   1.00
O244   O     0.59204   0.50234   0.17554   0.00000  Uiso   1.00
O245   O     0.35177   0.49309   0.16620   0.00000  Uiso   1.00
Zn246  Zn    0.60453   0.50618   0.25624   0.00000  Uiso   1.00
Zn247  Zn    0.39547   0.49382   0.24377   0.00000  Uiso   1.00
C248   C     0.50667   0.56030   0.28925   0.00000  Uiso   1.00
H249   H     0.54087   0.58825   0.31230   0.00000  Uiso   1.00
O250   O     0.54487   0.59152   0.31500   0.00000  Uiso   1.00
H251   H     0.53762   0.38634   0.42222   0.00000  Uiso   1.00
C252   C     0.43795   0.51523   0.08708   0.00000  Uiso   1.00
H253   H     0.45962   0.48407   0.10816   0.00000  Uiso   1.00
O254   O     0.42267   0.55069   0.11333   0.00000  Uiso   1.00
C255   C     0.50386   0.46301   0.36736   0.00000  Uiso   1.00
H256   H     0.52014   0.50316   0.36770   0.00000  Uiso   1.00
O257   O     0.51098   0.43115   0.33232   0.00000  Uiso   1.00
C258   C     0.40725   0.33505   0.21617   0.00000  Uiso   1.00
H259   H     0.45094   0.65949   0.23827   0.00000  Uiso   1.00
O260   O     0.40249   0.35767   0.17415   0.00000  Uiso   1.00
C261   C     0.68092   0.59795   0.24657   0.00000  Uiso   1.00
C262   C     0.79708   0.48938   0.49660   0.00000  Uiso   1.00
C263   C     0.77827   0.48065   0.43933   0.00000  Uiso   1.00
C264   C     0.85343   0.47381   0.02030   0.00000  Uiso   1.00
C265   C     0.87795   0.43369   0.49419   0.00000  Uiso   1.00
C266   C     0.84944   0.41457   0.44278   0.00000  Uiso   1.00
C267   C     0.81132   0.44661   0.41243   0.00000  Uiso   1.00
C268   C     0.88873   0.50084   0.06584   0.00000  Uiso   1.00
C269   C     0.96569   0.44234   0.06493   0.00000  Uiso   1.00
C270   C     0.72611   0.50386   0.41327   0.00000  Uiso   1.00
C271   C     0.68711   0.65098   0.23661   0.00000  Uiso   1.00
C272   C     0.70365   0.50114   0.35437   0.00000  Uiso   1.00
C273   C     0.97688   0.34692   0.24518   0.00000  Uiso   1.00
C274   C     0.98451   0.40167   0.24812   0.00000  Uiso   1.00
C275   C     0.96385   0.49668   0.14611   0.00000  Uiso   1.00
C276   C     0.93391   0.41811   0.01655   0.00000  Uiso   1.00
C277   C     0.94223   0.48285   0.08968   0.00000  Uiso   1.00
C278   C     0.69368   0.53111   0.44446   0.00000  Uiso   1.00
C279   C     0.71036   0.53590   0.00037   0.00000  Uiso   1.00
C280   C     0.76119   0.51492   0.02723   0.00000  Uiso   1.00
H281   H     0.67389   0.42812   0.08393   0.00000  Uiso   1.00
H282   H     0.93711   0.66411   0.25616   0.00000  Uiso   1.00
H283   H     0.82402   0.45502   0.21393   0.00000  Uiso   1.00
H284   H     0.95336   0.38826   0.49624   0.00000  Uiso   1.00
H285   H     0.87544   0.53587   0.08369   0.00000  Uiso   1.00
H286   H     0.98729   0.54837   0.42534   0.00000  Uiso   1.00
H287   H     0.68198   0.55506   0.02266   0.00000  Uiso   1.00
N288   N     0.81160   0.48556   0.23543   0.00000  Uiso   1.00
N289   N     0.85507   0.51444   0.26458   0.00000  Uiso   1.00
O290   O     0.96435   0.57963   0.25358   0.00000  Uiso   1.00
O291   O     0.72408   0.57038   0.24424   0.00000  Uiso   1.00
O292   O     0.98157   0.50691   0.33380   0.00000  Uiso   1.00
O293   O     0.74130   0.49766   0.32446   0.00000  Uiso   1.00
O294   O     0.94258   0.42962   0.25576   0.00000  Uiso   1.00
O295   O     0.70231   0.42037   0.24643   0.00000  Uiso   1.00
O296   O     0.92537   0.50234   0.17554   0.00000  Uiso   1.00
O297   O     0.68510   0.49309   0.16620   0.00000  Uiso   1.00
Zn298  Zn    0.93786   0.50618   0.25624   0.00000  Uiso   1.00
Zn299  Zn    0.72881   0.49382   0.24377   0.00000  Uiso   1.00
C300   C     0.84000   0.56030   0.28925   0.00000  Uiso   1.00
H301   H     0.87420   0.58825   0.31230   0.00000  Uiso   1.00
O302   O     0.87820   0.59152   0.31500   0.00000  Uiso   1.00
H303   H     0.87096   0.38634   0.42222   0.00000  Uiso   1.00
C304   C     0.77128   0.51523   0.08708   0.00000  Uiso   1.00
H305   H     0.79295   0.48407   0.10816   0.00000  Uiso   1.00
O306   O     0.75600   0.55069   0.11333   0.00000  Uiso   1.00
C307   C     0.83720   0.46301   0.36736   0.00000  Uiso   1.00
H308   H     0.85348   0.50316   0.36770   0.00000  Uiso   1.00
O309   O     0.84431   0.43115   0.33232   0.00000  Uiso   1.00
C310   C     0.74058   0.33505   0.21617   0.00000  Uiso   1.00
H311   H     0.78428   0.65949   0.23827   0.00000  Uiso   1.00
O312   O     0.73583   0.35767   0.17415   0.00000  Uiso   1.00
C313   C     0.01426   0.93128   0.24657   0.00000  Uiso   1.00
C314   C     0.13042   0.82271   0.49660   0.00000  Uiso   1.00
C315   C     0.11161   0.81398   0.43933   0.00000  Uiso   1.00
C316   C     0.18676   0.80714   0.02030   0.00000  Uiso   1.00
C317   C     0.21128   0.76702   0.49419   0.00000  Uiso   1.00
C318   C     0.18277   0.74790   0.44278   0.00000  Uiso   1.00
C319   C     0.14466   0.77994   0.41243   0.00000  Uiso   1.00
C320   C     0.22206   0.83417   0.06584   0.00000  Uiso   1.00
C321   C     0.29902   0.77568   0.06493   0.00000  Uiso   1.00
C322   C     0.05945   0.83720   0.41327   0.00000  Uiso   1.00
C323   C     0.02044   0.98431   0.23661   0.00000  Uiso   1.00
C324   C     0.03698   0.83447   0.35437   0.00000  Uiso   1.00
C325   C     0.31021   0.68025   0.24518   0.00000  Uiso   1.00
C326   C     0.31784   0.73500   0.24812   0.00000  Uiso   1.00
C327   C     0.29718   0.83002   0.14611   0.00000  Uiso   1.00
C328   C     0.26725   0.75145   0.01655   0.00000  Uiso   1.00
C329   C     0.27557   0.81619   0.08968   0.00000  Uiso   1.00
C330   C     0.02702   0.86444   0.44446   0.00000  Uiso   1.00
C331   C     0.04369   0.86923   0.00037   0.00000  Uiso   1.00
C332   C     0.09452   0.84825   0.02723   0.00000  Uiso   1.00
H333   H     0.00723   0.76145   0.08393   0.00000  Uiso   1.00
H334   H     0.27045   0.99744   0.25616   0.00000  Uiso   1.00
H335   H     0.15735   0.78836   0.21393   0.00000  Uiso   1.00
H336   H     0.28670   0.72159   0.49624   0.00000  Uiso   1.00
H337   H     0.20878   0.86921   0.08369   0.00000  Uiso   1.00
H338   H     0.32062   0.88171   0.42534   0.00000  Uiso   1.00
H339   H     0.01531   0.88839   0.02266   0.00000  Uiso   1.00
N340   N     0.14493   0.81890   0.23543   0.00000  Uiso   1.00
N341   N     0.18840   0.84777   0.26458   0.00000  Uiso   1.00
O342   O     0.29769   0.91296   0.25358   0.00000  Uiso   1.00
O343   O     0.05742   0.90371   0.24424   0.00000  Uiso   1.00
O344   O     0.31490   0.84024   0.33380   0.00000  Uiso   1.00
O345   O     0.07463   0.83099   0.32446   0.00000  Uiso   1.00
O346   O     0.27592   0.76296   0.25576   0.00000  Uiso   1.00
O347   O     0.03565   0.75371   0.24643   0.00000  Uiso   1.00
O348   O     0.25870   0.83567   0.17554   0.00000  Uiso   1.00
O349   O     0.01843   0.82642   0.16620   0.00000  Uiso   1.00
Zn350  Zn    0.27119   0.83951   0.25624   0.00000  Uiso   1.00
Zn351  Zn    0.06214   0.82716   0.24377   0.00000  Uiso   1.00
C352   C     0.17333   0.89363   0.28925   0.00000  Uiso   1.00
H353   H     0.20754   0.92159   0.31230   0.00000  Uiso   1.00
O354   O     0.21154   0.92486   0.31500   0.00000  Uiso   1.00
H355   H     0.20429   0.71968   0.42222   0.00000  Uiso   1.00
C356   C     0.10461   0.84856   0.08708   0.00000  Uiso   1.00
H357   H     0.12629   0.81741   0.10816   0.00000  Uiso   1.00
O358   O     0.08934   0.88402   0.11333   0.00000  Uiso   1.00
C359   C     0.17053   0.79634   0.36736   0.00000  Uiso   1.00
H360   H     0.18681   0.83649   0.36770   0.00000  Uiso   1.00
O361   O     0.17764   0.76448   0.33232   0.00000  Uiso   1.00
C362   C     0.07392   0.66838   0.21617   0.00000  Uiso   1.00
H363   H     0.11761   0.99282   0.23827   0.00000  Uiso   1.00
O364   O     0.06916   0.69101   0.17415   0.00000  Uiso   1.00
C365   C     0.34759   0.93128   0.24657   0.00000  Uiso   1.00
C366   C     0.46375   0.82271   0.49660   0.00000  Uiso   1.00
C367   C     0.44494   0.81398   0.43933   0.00000  Uiso   1.00
C368   C     0.52010   0.80714   0.02030   0.00000  Uiso   1.00
C369   C     0.54461   0.76702   0.49419   0.00000  Uiso   1.00
C370   C     0.51610   0.74790   0.44278   0.00000  Uiso   1.00
C371   C     0.47799   0.77994   0.41243   0.00000  Uiso   1.00
C372   C     0.55539   0.83417   0.06584   0.00000  Uiso   1.00
C373   C     0.63235   0.77568   0.06493   0.00000  Uiso   1.00
C374   C     0.39278   0.83720   0.41327   0.00000  Uiso   1.00
C375   C     0.35378   0.98431   0.23661   0.00000  Uiso   1.00
C376   C     0.37031   0.83447   0.35437   0.00000  Uiso   1.00
C377   C     0.64355   0.68025   0.24518   0.00000  Uiso   1.00
C378   C     0.65117   0.73500   0.24812   0.00000  Uiso   1.00
C379   C     0.63052   0.83002   0.14611   0.00000  Uiso   1.00
C380   C     0.60058   0.75145   0.01655   0.00000  Uiso   1.00
C381   C     0.60890   0.81619   0.08968   0.00000  Uiso   1.00
C382   C     0.36035   0.86444   0.44446   0.00000  Uiso   1.00
C383   C     0.37703   0.86923   0.00037   0.00000  Uiso   1.00
C384   C     0.42786   0.84825   0.02723   0.00000  Uiso   1.00
H385   H     0.34056   0.76145   0.08393   0.00000  Uiso   1.00
H386   H     0.60378   0.99744   0.25616   0.00000  Uiso   1.00
H387   H     0.49069   0.78836   0.21393   0.00000  Uiso   1.00
H388   H     0.62003   0.72159   0.49624   0.00000  Uiso   1.00
H389   H     0.54211   0.86921   0.08369   0.00000  Uiso   1.00
H390   H     0.65395   0.88171   0.42534   0.00000  Uiso   1.00
H391   H     0.34865   0.88839   0.02266   0.00000  Uiso   1.00
N392   N     0.47827   0.81890   0.23543   0.00000  Uiso   1.00
N393   N     0.52173   0.84777   0.26458   0.00000  Uiso   1.00
O394   O     0.63102   0.91296   0.25358   0.00000  Uiso   1.00
O395   O     0.39075   0.90371   0.24424   0.00000  Uiso   1.00
O396   O     0.64823   0.84024   0.33380   0.00000  Uiso   1.00
O397   O     0.40796   0.83099   0.32446   0.00000  Uiso   1.00
O398   O     0.60925   0.76296   0.25576   0.00000  Uiso   1.00
O399   O     0.36898   0.75371   0.24643   0.00000  Uiso   1.00
O400   O     0.59204   0.83567   0.17554   0.00000  Uiso   1.00
O401   O     0.35177   0.82642   0.16620   0.00000  Uiso   1.00
Zn402  Zn    0.60453   0.83951   0.25624   0.00000  Uiso   1.00
Zn403  Zn    0.39547   0.82716   0.24377   0.00000  Uiso   1.00
C404   C     0.50667   0.89363   0.28925   0.00000  Uiso   1.00
H405   H     0.54087   0.92159   0.31230   0.00000  Uiso   1.00
O406   O     0.54487   0.92486   0.31500   0.00000  Uiso   1.00
H407   H     0.53762   0.71968   0.42222   0.00000  Uiso   1.00
C408   C     0.43795   0.84856   0.08708   0.00000  Uiso   1.00
H409   H     0.45962   0.81741   0.10816   0.00000  Uiso   1.00
O410   O     0.42267   0.88402   0.11333   0.00000  Uiso   1.00
C411   C     0.50386   0.79634   0.36736   0.00000  Uiso   1.00
H412   H     0.52014   0.83649   0.36770   0.00000  Uiso   1.00
O413   O     0.51098   0.76448   0.33232   0.00000  Uiso   1.00
C414   C     0.40725   0.66838   0.21617   0.00000  Uiso   1.00
H415   H     0.45094   0.99282   0.23827   0.00000  Uiso   1.00
O416   O     0.40249   0.69101   0.17415   0.00000  Uiso   1.00
C417   C     0.68092   0.93128   0.24657   0.00000  Uiso   1.00
C418   C     0.79708   0.82271   0.49660   0.00000  Uiso   1.00
C419   C     0.77827   0.81398   0.43933   0.00000  Uiso   1.00
C420   C     0.85343   0.80714   0.02030   0.00000  Uiso   1.00
C421   C     0.87795   0.76702   0.49419   0.00000  Uiso   1.00
C422   C     0.84944   0.74790   0.44278   0.00000  Uiso   1.00
C423   C     0.81132   0.77994   0.41243   0.00000  Uiso   1.00
C424   C     0.88873   0.83417   0.06584   0.00000  Uiso   1.00
C425   C     0.96569   0.77568   0.06493   0.00000  Uiso   1.00
C426   C     0.72611   0.83720   0.41327   0.00000  Uiso   1.00
C427   C     0.68711   0.98431   0.23661   0.00000  Uiso   1.00
C428   C     0.70365   0.83447   0.35437   0.00000  Uiso   1.00
C429   C     0.97688   0.68025   0.24518   0.00000  Uiso   1.00
C430   C     0.98451   0.73500   0.24812   0.00000  Uiso   1.00
C431   C     0.96385   0.83002   0.14611   0.00000  Uiso   1.00
C432   C     0.93391   0.75145   0.01655   0.00000  Uiso   1.00
C433   C     0.94223   0.81619   0.08968   0.00000  Uiso   1.00
C434   C     0.69368   0.86444   0.44446   0.00000  Uiso   1.00
C435   C     0.71036   0.86923   0.00037   0.00000  Uiso   1.00
C436   C     0.76119   0.84825   0.02723   0.00000  Uiso   1.00
H437   H     0.67389   0.76145   0.08393   0.00000  Uiso   1.00
H438   H     0.93711   0.99744   0.25616   0.00000  Uiso   1.00
H439   H     0.82402   0.78836   0.21393   0.00000  Uiso   1.00
H440   H     0.95336   0.72159   0.49624   0.00000  Uiso   1.00
H441   H     0.87544   0.86921   0.08369   0.00000  Uiso   1.00
H442   H     0.98729   0.88171   0.42534   0.00000  Uiso   1.00
H443   H     0.68198   0.88839   0.02266   0.00000  Uiso   1.00
N444   N     0.81160   0.81890   0.23543   0.00000  Uiso   1.00
N445   N     0.85507   0.84777   0.26458   0.00000  Uiso   1.00
O446   O     0.96435   0.91296   0.25358   0.00000  Uiso   1.00
O447   O     0.72408   0.90371   0.24424   0.00000  Uiso   1.00
O448   O     0.98157   0.84024   0.33380   0.00000  Uiso   1.00
O449   O     0.74130   0.83099   0.32446   0.00000  Uiso   1.00
O450   O     0.94258   0.76296   0.25576   0.00000  Uiso   1.00
O451   O     0.70231   0.75371   0.24643   0.00000  Uiso   1.00
O452   O     0.92537   0.83567   0.17554   0.00000  Uiso   1.00
O453   O     0.68510   0.82642   0.16620   0.00000  Uiso   1.00
Zn454  Zn    0.93786   0.83951   0.25624   0.00000  Uiso   1.00
Zn455  Zn    0.72881   0.82716   0.24377   0.00000  Uiso   1.00
C456   C     0.84000   0.89363   0.28925   0.00000  Uiso   1.00
H457   H     0.87420   0.92159   0.31230   0.00000  Uiso   1.00
O458   O     0.87820   0.92486   0.31500   0.00000  Uiso   1.00
H459   H     0.87096   0.71968   0.42222   0.00000  Uiso   1.00
C460   C     0.77128   0.84856   0.08708   0.00000  Uiso   1.00
H461   H     0.79295   0.81741   0.10816   0.00000  Uiso   1.00
O462   O     0.75600   0.88402   0.11333   0.00000  Uiso   1.00
C463   C     0.83720   0.79634   0.36736   0.00000  Uiso   1.00
H464   H     0.85348   0.83649   0.36770   0.00000  Uiso   1.00
O465   O     0.84431   0.76448   0.33232   0.00000  Uiso   1.00
C466   C     0.74058   0.66838   0.21617   0.00000  Uiso   1.00
H467   H     0.78428   0.99282   0.23827   0.00000  Uiso   1.00
O468   O     0.73583   0.69101   0.17415   0.00000  Uiso   1.00
C469   C     0.01426   0.26461   0.74657   0.00000  Uiso   1.00
C470   C     0.13042   0.15604   0.99660   0.00000  Uiso   1.00
C471   C     0.11161   0.14732   0.93933   0.00000  Uiso   1.00
C472   C     0.18676   0.14047   0.52030   0.00000  Uiso   1.00
C473   C     0.21128   0.10036   0.99419   0.00000  Uiso   1.00
C474   C     0.18277   0.08124   0.94278   0.00000  Uiso   1.00
C475   C     0.14466   0.11328   0.91243   0.00000  Uiso   1.00
C476   C     0.22206   0.16751   0.56584   0.00000  Uiso   1.00
C477   C     0.29902   0.10901   0.56493   0.00000  Uiso   1.00
C478   C     0.05945   0.17053   0.91327   0.00000  Uiso   1.00
C479   C     0.02044   0.31765   0.73661   0.00000  Uiso   1.00
C480   C     0.03698   0.16781   0.85437   0.00000  Uiso   1.00
C481   C     0.31021   0.01358   0.74518   0.00000  Uiso   1.00
C482   C     0.31784   0.06834   0.74812   0.00000  Uiso   1.00
C483   C     0.29718   0.16335   0.64611   0.00000  Uiso   1.00
C484   C     0.26725   0.08478   0.51655   0.00000  Uiso   1.00
C485   C     0.27557   0.14952   0.58968   0.00000  Uiso   1.00
C486   C     0.02702   0.19778   0.94446   0.00000  Uiso   1.00
C487   C     0.04369   0.20257   0.50037   0.00000  Uiso   1.00
C488   C     0.09452   0.18158   0.52723   0.00000  Uiso   1.00
H489   H     0.00723   0.09478   0.58393   0.00000  Uiso   1.00
H490   H     0.27045   0.33078   0.75616   0.00000  Uiso   1.00
H491   H     0.15735   0.12169   0.71393   0.00000  Uiso   1.00
H492   H     0.28670   0.05492   0.99624   0.00000  Uiso   1.00
H493   H     0.20878   0.20254   0.58369   0.00000  Uiso   1.00
H494   H     0.32062   0.21504   0.92534   0.00000  Uiso   1.00
H495   H     0.01531   0.22173   0.52266   0.00000  Uiso   1.00
N496   N     0.14493   0.15223   0.73543   0.00000  Uiso   1.00
N497   N     0.18840   0.18110   0.76458   0.00000  Uiso   1.00
O498   O     0.29769   0.24629   0.75358   0.00000  Uiso   1.00
O499   O     0.05742   0.23704   0.74424   0.00000  Uiso   1.00
O500   O     0.31490   0.17358   0.83380   0.00000  Uiso   1.00
O501   O     0.07463   0.16433   0.82446   0.00000  Uiso   1.00
O502   O     0.27592   0.09629   0.75576   0.00000  Uiso   1.00
O503   O     0.03565   0.08704   0.74643   0.00000  Uiso   1.00
O504   O     0.25870   0.16901   0.67554   0.00000  Uiso   1.00
O505   O     0.01843   0.15976   0.66620   0.00000  Uiso   1.00
Zn506  Zn    0.27119   0.17284   0.75624   0.00000  Uiso   1.00
Zn507  Zn    0.06214   0.16049   0.74377   0.00000  Uiso   1.00
C508   C     0.17333   0.22697   0.78925   0.00000  Uiso   1.00
H509   H     0.20754   0.25492   0.81230   0.00000  Uiso   1.00
O510   O     0.21154   0.25819   0.81500   0.00000  Uiso   1.00
H511   H     0.20429   0.05301   0.92222   0.00000  Uiso   1.00
C512   C     0.10461   0.18190   0.58708   0.00000  Uiso   1.00
H513   H     0.12629   0.15074   0.60816   0.00000  Uiso   1.00
O514   O     0.08934   0.21735   0.61333   0.00000  Uiso   1.00
C515   C     0.17053   0.12968   0.86736   0.00000  Uiso   1.00
H516   H     0.18681   0.16983   0.86770   0.00000  Uiso   1.00
O517   O     0.17764   0.09781   0.83232   0.00000  Uiso   1.00
C518   C     0.07392   0.00172   0.71617   0.00000  Uiso   1.00
H519   H     0.11761   0.32615   0.73827   0.00000  Uiso   1.00
O520   O     0.06916   0.02434   0.67415   0.00000  Uiso   1.00
C521   C     0.34759   0.26461   0.74657   0.00000  Uiso   1.00
C522   C     0.46375   0.15604   0.99660   0.00000  Uiso   1.00
C523   C     0.44494   0.14732   0.93933   0.00000  Uiso   1.00
C524   C     0.52010   0.14047   0.52030   0.00000  Uiso   1.00
C525   C     0.54461   0.10036   0.99419   0.00000  Uiso   1.00
C526   C     0.51610   0.08124   0.94278   0.00000  Uiso   1.00
C527   C     0.47799   0.11328   0.91243   0.00000  Uiso   1.00
C528   C     0.55539   0.16751   0.56584   0.00000  Uiso   1.00
C529   C     0.63235   0.10901   0.56493   0.00000  Uiso   1.00
C530   C     0.39278   0.17053   0.91327   0.00000  Uiso   1.00
C531   C     0.35378   0.31765   0.73661   0.00000  Uiso   1.00
C532   C     0.37031   0.16781   0.85437   0.00000  Uiso   1.00
C533   C     0.64355   0.01358   0.74518   0.00000  Uiso   1.00
C534   C     0.65117   0.06834   0.74812   0.00000  Uiso   1.00
C535   C     0.63052   0.16335   0.64611   0.00000  Uiso   1.00
C536   C     0.60058   0.08478   0.51655   0.00000  Uiso   1.00
C537   C     0.60890   0.14952   0.58968   0.00000  Uiso   1.00
C538   C     0.36035   0.19778   0.94446   0.00000  Uiso   1.00
C539   C     0.37703   0.20257   0.50037   0.00000  Uiso   1.00
C540   C     0.42786   0.18158   0.52723   0.00000  Uiso   1.00
H541   H     0.34056   0.09478   0.58393   0.00000  Uiso   1.00
H542   H     0.60378   0.33078   0.75616   0.00000  Uiso   1.00
H543   H     0.49069   0.12169   0.71393   0.00000  Uiso   1.00
H544   H     0.62003   0.05492   0.99624   0.00000  Uiso   1.00
H545   H     0.54211   0.20254   0.58369   0.00000  Uiso   1.00
H546   H     0.65395   0.21504   0.92534   0.00000  Uiso   1.00
H547   H     0.34865   0.22173   0.52266   0.00000  Uiso   1.00
N548   N     0.47827   0.15223   0.73543   0.00000  Uiso   1.00
N549   N     0.52173   0.18110   0.76458   0.00000  Uiso   1.00
O550   O     0.63102   0.24629   0.75358   0.00000  Uiso   1.00
O551   O     0.39075   0.23704   0.74424   0.00000  Uiso   1.00
O552   O     0.64823   0.17358   0.83380   0.00000  Uiso   1.00
O553   O     0.40796   0.16433   0.82446   0.00000  Uiso   1.00
O554   O     0.60925   0.09629   0.75576   0.00000  Uiso   1.00
O555   O     0.36898   0.08704   0.74643   0.00000  Uiso   1.00
O556   O     0.59204   0.16901   0.67554   0.00000  Uiso   1.00
O557   O     0.35177   0.15976   0.66620   0.00000  Uiso   1.00
Zn558  Zn    0.60453   0.17284   0.75624   0.00000  Uiso   1.00
Zn559  Zn    0.39547   0.16049   0.74377   0.00000  Uiso   1.00
C560   C     0.50667   0.22697   0.78925   0.00000  Uiso   1.00
H561   H     0.54087   0.25492   0.81230   0.00000  Uiso   1.00
O562   O     0.54487   0.25819   0.81500   0.00000  Uiso   1.00
H563   H     0.53762   0.05301   0.92222   0.00000  Uiso   1.00
C564   C     0.43795   0.18190   0.58708   0.00000  Uiso   1.00
H565   H     0.45962   0.15074   0.60816   0.00000  Uiso   1.00
O566   O     0.42267   0.21735   0.61333   0.00000  Uiso   1.00
C567   C     0.50386   0.12968   0.86736   0.00000  Uiso   1.00
H568   H     0.52014   0.16983   0.86770   0.00000  Uiso   1.00
O569   O     0.51098   0.09781   0.83232   0.00000  Uiso   1.00
C570   C     0.40725   0.00172   0.71617   0.00000  Uiso   1.00
H571   H     0.45094   0.32615   0.73827   0.00000  Uiso   1.00
O572   O     0.40249   0.02434   0.67415   0.00000  Uiso   1.00
C573   C     0.68092   0.26461   0.74657   0.00000  Uiso   1.00
C574   C     0.79708   0.15604   0.99660   0.00000  Uiso   1.00
C575   C     0.77827   0.14732   0.93933   0.00000  Uiso   1.00
C576   C     0.85343   0.14047   0.52030   0.00000  Uiso   1.00
C577   C     0.87795   0.10036   0.99419   0.00000  Uiso   1.00
C578   C     0.84944   0.08124   0.94278   0.00000  Uiso   1.00
C579   C     0.81132   0.11328   0.91243   0.00000  Uiso   1.00
C580   C     0.88873   0.16751   0.56584   0.00000  Uiso   1.00
C581   C     0.96569   0.10901   0.56493   0.00000  Uiso   1.00
C582   C     0.72611   0.17053   0.91327   0.00000  Uiso   1.00
C583   C     0.68711   0.31765   0.73661   0.00000  Uiso   1.00
C584   C     0.70365   0.16781   0.85437   0.00000  Uiso   1.00
C585   C     0.97688   0.01358   0.74518   0.00000  Uiso   1.00
C586   C     0.98451   0.06834   0.74812   0.00000  Uiso   1.00
C587   C     0.96385   0.16335   0.64611   0.00000  Uiso   1.00
C588   C     0.93391   0.08478   0.51655   0.00000  Uiso   1.00
C589   C     0.94223   0.14952   0.58968   0.00000  Uiso   1.00
C590   C     0.69368   0.19778   0.94446   0.00000  Uiso   1.00
C591   C     0.71036   0.20257   0.50037   0.00000  Uiso   1.00
C592   C     0.76119   0.18158   0.52723   0.00000  Uiso   1.00
H593   H     0.67389   0.09478   0.58393   0.00000  Uiso   1.00
H594   H     0.93711   0.33078   0.75616   0.00000  Uiso   1.00
H595   H     0.82402   0.12169   0.71393   0.00000  Uiso   1.00
H596   H     0.95336   0.05492   0.99624   0.00000  Uiso   1.00
H597   H     0.87544   0.20254   0.58369   0.00000  Uiso   1.00
H598   H     0.98729   0.21504   0.92534   0.00000  Uiso   1.00
H599   H     0.68198   0.22173   0.52266   0.00000  Uiso   1.00
N600   N     0.81160   0.15223   0.73543   0.00000  Uiso   1.00
N601   N     0.85507   0.18110   0.76458   0.00000  Uiso   1.00
O602   O     0.96435   0.24629   0.75358   0.00000  Uiso   1.00
O603   O     0.72408   0.23704   0.74424   0.00000  Uiso   1.00
O604   O     0.98157   0.17358   0.83380   0.00000  Uiso   1.00
O605   O     0.74130   0.16433   0.82446   0.00000  Uiso   1.00
O606   O     0.94258   0.09629   0.75576   0.00000  Uiso   1.00
O607   O     0.70231   0.08704   0.74643   0.00000  Uiso   1.00
O608   O     0.92537   0.16901   0.67554   0.00000  Uiso   1.00
O609   O     0.68510   0.15976   0.66620   0.00000  Uiso   1.00
Zn610  Zn    0.93786   0.17284   0.75624   0.00000  Uiso   1.00
Zn611  Zn    0.72881   0.16049   0.74377   0.00000  Uiso   1.00
C612   C     0.84000   0.22697   0.78925   0.00000  Uiso   1.00
H613   H     0.87420   0.25492   0.81230   0.00000  Uiso   1.00
O614   O     0.87820   0.25819   0.81500   0.00000  Uiso   1.00
H615   H     0.87096   0.05301   0.92222   0.00000  Uiso   1.00
C616   C     0.77128   0.18190   0.58708   0.00000  Uiso   1.00
H617   H     0.79295   0.15074   0.60816   0.00000  Uiso   1.00
O618   O     0.75600   0.21735   0.61333   0.00000  Uiso   1.00
C619   C     0.83720   0.12968   0.86736   0.00000  Uiso   1.00
H620   H     0.85348   0.16983   0.86770   0.00000  Uiso   1.00
O621   O     0.84431   0.09781   0.83232   0.00000  Uiso   1.00
C622   C     0.74058   0.00172   0.71617   0.00000  Uiso   1.00
H623   H     0.78428   0.32615   0.73827   0.00000  Uiso   1.00
O624   O     0.73583   0.02434   0.67415   0.00000  Uiso   1.00
C625   C     0.01426   0.59795   0.74657   0.00000  Uiso   1.00
C626   C     0.13042   0.48938   0.99660   0.00000  Uiso   1.00
C627   C     0.11161   0.48065   0.93933   0.00000  Uiso   1.00
C628   C     0.18676   0.47381   0.52030   0.00000  Uiso   1.00
C629   C     0.21128   0.43369   0.99419   0.00000  Uiso   1.00
C630   C     0.18277   0.41457   0.94278   0.00000  Uiso   1.00
C631   C     0.14466   0.44661   0.91243   0.00000  Uiso   1.00
C632   C     0.22206   0.50084   0.56584   0.00000  Uiso   1.00
C633   C     0.29902   0.44234   0.56493   0.00000  Uiso   1.00
C634   C     0.05945   0.50386   0.91327   0.00000  Uiso   1.00
C635   C     0.02044   0.65098   0.73661   0.00000  Uiso   1.00
C636   C     0.03698   0.50114   0.85437   0.00000  Uiso   1.00
C637   C     0.31021   0.34692   0.74518   0.00000  Uiso   1.00
C638   C     0.31784   0.40167   0.74812   0.00000  Uiso   1.00
C639   C     0.29718   0.49668   0.64611   0.00000  Uiso   1.00
C640   C     0.26725   0.41811   0.51655   0.00000  Uiso   1.00
C641   C     0.27557   0.48285   0.58968   0.00000  Uiso   1.00
C642   C     0.02702   0.53111   0.94446   0.00000  Uiso   1.00
C643   C     0.04369   0.53590   0.50037   0.00000  Uiso   1.00
C644   C     0.09452   0.51492   0.52723   0.00000  Uiso   1.00
H645   H     0.00723   0.42812   0.58393   0.00000  Uiso   1.00
H646   H     0.27045   0.66411   0.75616   0.00000  Uiso   1.00
H647   H     0.15735   0.45502   0.71393   0.00000  Uiso   1.00
H648   H     0.28670   0.38826   0.99624   0.00000  Uiso   1.00
H649   H     0.20878   0.53587   0.58369   0.00000  Uiso   1.00
H650   H     0.32062   0.54837   0.92534   0.00000  Uiso   1.00
H651   H     0.01531   0.55506   0.52266   0.00000  Uiso   1.00
N652   N     0.14493   0.48556   0.73543   0.00000  Uiso   1.00
N653   N     0.18840   0.51444   0.76458   0.00000  Uiso   1.00
O654   O     0.29769   0.57963   0.75358   0.00000  Uiso   1.00
O655   O     0.05742   0.57038   0.74424   0.00000  Uiso   1.00
O656   O     0.31490   0.50691   0.83380   0.00000  Uiso   1.00
O657   O     0.07463   0.49766   0.82446   0.00000  Uiso   1.00
O658   O     0.27592   0.42962   0.75576   0.00000  Uiso   1.00
O659   O     0.03565   0.42037   0.74643   0.00000  Uiso   1.00
O660   O     0.25870   0.50234   0.67554   0.00000  Uiso   1.00
O661   O     0.01843   0.49309   0.66620   0.00000  Uiso   1.00
Zn662  Zn    0.27119   0.50618   0.75624   0.00000  Uiso   1.00
Zn663  Zn    0.06214   0.49382   0.74377   0.00000  Uiso   1.00
C664   C     0.17333   0.56030   0.78925   0.00000  Uiso   1.00
H665   H     0.20754   0.58825   0.81230   0.00000  Uiso   1.00
O666   O     0.21154   0.59152   0.81500   0.00000  Uiso   1.00
H667   H     0.20429   0.38634   0.92222   0.00000  Uiso   1.00
C668   C     0.10461   0.51523   0.58708   0.00000  Uiso   1.00
H669   H     0.12629   0.48407   0.60816   0.00000  Uiso   1.00
O670   O     0.08934   0.55069   0.61333   0.00000  Uiso   1.00
C671   C     0.17053   0.46301   0.86736   0.00000  Uiso   1.00
H672   H     0.18681   0.50316   0.86770   0.00000  Uiso   1.00
O673   O     0.17764   0.43115   0.83232   0.00000  Uiso   1.00
C674   C     0.07392   0.33505   0.71617   0.00000  Uiso   1.00
H675   H     0.11761   0.65949   0.73827   0.00000  Uiso   1.00
O676   O     0.06916   0.35767   0.67415   0.00000  Uiso   1.00
C677   C     0.34759   0.59795   0.74657   0.00000  Uiso   1.00
C678   C     0.46375   0.48938   0.99660   0.00000  Uiso   1.00
C679   C     0.44494   0.48065   0.93933   0.00000  Uiso   1.00
C680   C     0.52010   0.47381   0.52030   0.00000  Uiso   1.00
C681   C     0.54461   0.43369   0.99419   0.00000  Uiso   1.00
C682   C     0.51610   0.41457   0.94278   0.00000  Uiso   1.00
C683   C     0.47799   0.44661   0.91243   0.00000  Uiso   1.00
C684   C     0.55539   0.50084   0.56584   0.00000  Uiso   1.00
C685   C     0.63235   0.44234   0.56493   0.00000  Uiso   1.00
C686   C     0.39278   0.50386   0.91327   0.00000  Uiso   1.00
C687   C     0.35378   0.65098   0.73661   0.00000  Uiso   1.00
C688   C     0.37031   0.50114   0.85437   0.00000  Uiso   1.00
C689   C     0.64355   0.34692   0.74518   0.00000  Uiso   1.00
C690   C     0.65117   0.40167   0.74812   0.00000  Uiso   1.00
C691   C     0.63052   0.49668   0.64611   0.00000  Uiso   1.00
C692   C     0.60058   0.41811   0.51655   0.00000  Uiso   1.00
C693   C     0.60890   0.48285   0.58968   0.00000  Uiso   1.00
C694   C     0.36035   0.53111   0.94446   0.00000  Uiso   1.00
C695   C     0.37703   0.53590   0.50037   0.00000  Uiso   1.00
C696   C     0.42786   0.51492   0.52723   0.00000  Uiso   1.00
H697   H     0.34056   0.42812   0.58393   0.00000  Uiso   1.00
H698   H     0.60378   0.66411   0.75616   0.00000  Uiso   1.00
H699   H     0.49069   0.45502   0.71393   0.00000  Uiso   1.00
H700   H     0.62003   0.38826   0.99624   0.00000  Uiso   1.00
H701   H     0.54211   0.53587   0.58369   0.00000  Uiso   1.00
H702   H     0.65395   0.54837   0.92534   0.00000  Uiso   1.00
H703   H     0.34865   0.55506   0.52266   0.00000  Uiso   1.00
N704   N     0.47827   0.48556   0.73543   0.00000  Uiso   1.00
N705   N     0.52173   0.51444   0.76458   0.00000  Uiso   1.00
O706   O     0.63102   0.57963   0.75358   0.00000  Uiso   1.00
O707   O     0.39075   0.57038   0.74424   0.00000  Uiso   1.00
O708   O     0.64823   0.50691   0.83380   0.00000  Uiso   1.00
O709   O     0.40796   0.49766   0.82446   0.00000  Uiso   1.00
O710   O     0.60925   0.42962   0.75576   0.00000  Uiso   1.00
O711   O     0.36898   0.42037   0.74643   0.00000  Uiso   1.00
O712   O     0.59204   0.50234   0.67554   0.00000  Uiso   1.00
O713   O     0.35177   0.49309   0.66620   0.00000  Uiso   1.00
Zn714  Zn    0.60453   0.50618   0.75624   0.00000  Uiso   1.00
Zn715  Zn    0.39547   0.49382   0.74377   0.00000  Uiso   1.00
C716   C     0.50667   0.56030   0.78925   0.00000  Uiso   1.00
H717   H     0.54087   0.58825   0.81230   0.00000  Uiso   1.00
O718   O     0.54487   0.59152   0.81500   0.00000  Uiso   1.00
H719   H     0.53762   0.38634   0.92222   0.00000  Uiso   1.00
C720   C     0.43795   0.51523   0.58708   0.00000  Uiso   1.00
H721   H     0.45962   0.48407   0.60816   0.00000  Uiso   1.00
O722   O     0.42267   0.55069   0.61333   0.00000  Uiso   1.00
C723   C     0.50386   0.46301   0.86736   0.00000  Uiso   1.00
H724   H     0.52014   0.50316   0.86770   0.00000  Uiso   1.00
O725   O     0.51098   0.43115   0.83232   0.00000  Uiso   1.00
C726   C     0.40725   0.33505   0.71617   0.00000  Uiso   1.00
H727   H     0.45094   0.65949   0.73827   0.00000  Uiso   1.00
O728   O     0.40249   0.35767   0.67415   0.00000  Uiso   1.00
C729   C     0.68092   0.59795   0.74657   0.00000  Uiso   1.00
C730   C     0.79708   0.48938   0.99660   0.00000  Uiso   1.00
C731   C     0.77827   0.48065   0.93933   0.00000  Uiso   1.00
C732   C     0.85343   0.47381   0.52030   0.00000  Uiso   1.00
C733   C     0.87795   0.43369   0.99419   0.00000  Uiso   1.00
C734   C     0.84944   0.41457   0.94278   0.00000  Uiso   1.00
C735   C     0.81132   0.44661   0.91243   0.00000  Uiso   1.00
C736   C     0.88873   0.50084   0.56584   0.00000  Uiso   1.00
C737   C     0.96569   0.44234   0.56493   0.00000  Uiso   1.00
C738   C     0.72611   0.50386   0.91327   0.00000  Uiso   1.00
C739   C     0.68711   0.65098   0.73661   0.00000  Uiso   1.00
C740   C     0.70365   0.50114   0.85437   0.00000  Uiso   1.00
C741   C     0.97688   0.34692   0.74518   0.00000  Uiso   1.00
C742   C     0.98451   0.40167   0.74812   0.00000  Uiso   1.00
C743   C     0.96385   0.49668   0.64611   0.00000  Uiso   1.00
C744   C     0.93391   0.41811   0.51655   0.00000  Uiso   1.00
C745   C     0.94223   0.48285   0.58968   0.00000  Uiso   1.00
C746   C     0.69368   0.53111   0.94446   0.00000  Uiso   1.00
C747   C     0.71036   0.53590   0.50037   0.00000  Uiso   1.00
C748   C     0.76119   0.51492   0.52723   0.00000  Uiso   1.00
H749   H     0.67389   0.42812   0.58393   0.00000  Uiso   1.00
H750   H     0.93711   0.66411   0.75616   0.00000  Uiso   1.00
H751   H     0.82402   0.45502   0.71393   0.00000  Uiso   1.00
H752   H     0.95336   0.38826   0.99624   0.00000  Uiso   1.00
H753   H     0.87544   0.53587   0.58369   0.00000  Uiso   1.00
H754   H     0.98729   0.54837   0.92534   0.00000  Uiso   1.00
H755   H     0.68198   0.55506   0.52266   0.00000  Uiso   1.00
N756   N     0.81160   0.48556   0.73543   0.00000  Uiso   1.00
N757   N     0.85507   0.51444   0.76458   0.00000  Uiso   1.00
O758   O     0.96435   0.57963   0.75358   0.00000  Uiso   1.00
O759   O     0.72408   0.57038   0.74424   0.00000  Uiso   1.00
O760   O     0.98157   0.50691   0.83380   0.00000  Uiso   1.00
O761   O     0.74130   0.49766   0.82446   0.00000  Uiso   1.00
O762   O     0.94258   0.42962   0.75576   0.00000  Uiso   1.00
O763   O     0.70231   0.42037   0.74643   0.00000  Uiso   1.00
O764   O     0.92537   0.50234   0.67554   0.00000  Uiso   1.00
O765   O     0.68510   0.49309   0.66620   0.00000  Uiso   1.00
Zn766  Zn    0.93786   0.50618   0.75624   0.00000  Uiso   1.00
Zn767  Zn    0.72881   0.49382   0.74377   0.00000  Uiso   1.00
C768   C     0.84000   0.56030   0.78925   0.00000  Uiso   1.00
H769   H     0.87420   0.58825   0.81230   0.00000  Uiso   1.00
O770   O     0.87820   0.59152   0.81500   0.00000  Uiso   1.00
H771   H     0.87096   0.38634   0.92222   0.00000  Uiso   1.00
C772   C     0.77128   0.51523   0.58708   0.00000  Uiso   1.00
H773   H     0.79295   0.48407   0.60816   0.00000  Uiso   1.00
O774   O     0.75600   0.55069   0.61333   0.00000  Uiso   1.00
C775   C     0.83720   0.46301   0.86736   0.00000  Uiso   1.00
H776   H     0.85348   0.50316   0.86770   0.00000  Uiso   1.00
O777   O     0.84431   0.43115   0.83232   0.00000  Uiso   1.00
C778   C     0.74058   0.33505   0.71617   0.00000  Uiso   1.00
H779   H     0.78428   0.65949   0.73827   0.00000  Uiso   1.00
O780   O     0.73583   0.35767   0.67415   0.00000  Uiso   1.00
C781   C     0.01426   0.93128   0.74657   0.00000  Uiso   1.00
C782   C     0.13042   0.82271   0.99660   0.00000  Uiso   1.00
C783   C     0.11161   0.81398   0.93933   0.00000  Uiso   1.00
C784   C     0.18676   0.80714   0.52030   0.00000  Uiso   1.00
C785   C     0.21128   0.76702   0.99419   0.00000  Uiso   1.00
C786   C     0.18277   0.74790   0.94278   0.00000  Uiso   1.00
C787   C     0.14466   0.77994   0.91243   0.00000  Uiso   1.00
C788   C     0.22206   0.83417   0.56584   0.00000  Uiso   1.00
C789   C     0.29902   0.77568   0.56493   0.00000  Uiso   1.00
C790   C     0.05945   0.83720   0.91327   0.00000  Uiso   1.00
C791   C     0.02044   0.98431   0.73661   0.00000  Uiso   1.00
C792   C     0.03698   0.83447   0.85437   0.00000  Uiso   1.00
C793   C     0.31021   0.68025   0.74518   0.00000  Uiso   1.00
C794   C     0.31784   0.73500   0.74812   0.00000  Uiso   1.00
C795   C     0.29718   0.83002   0.64611   0.00000  Uiso   1.00
C796   C     0.26725   0.75145   0.51655   0.00000  Uiso   1.00
C797   C     0.27557   0.81619   0.58968   0.00000  Uiso   1.00
C798   C     0.02702   0.86444   0.94446   0.00000  Uiso   1.00
C799   C     0.04369   0.86923   0.50037   0.00000  Uiso   1.00
C800   C     0.09452   0.84825   0.52723   0.00000  Uiso   1.00
H801   H     0.00723   0.76145   0.58393   0.00000  Uiso   1.00
H802   H     0.27045   0.99744   0.75616   0.00000  Uiso   1.00
H803   H     0.15735   0.78836   0.71393   0.00000  Uiso   1.00
H804   H     0.28670   0.72159   0.99624   0.00000  Uiso   1.00
H805   H     0.20878   0.86921   0.58369   0.00000  Uiso   1.00
H806   H     0.32062   0.88171   0.92534   0.00000  Uiso   1.00
H807   H     0.01531   0.88839   0.52266   0.00000  Uiso   1.00
N808   N     0.14493   0.81890   0.73543   0.00000  Uiso   1.00
N809   N     0.18840   0.84777   0.76458   0.00000  Uiso   1.00
O810   O     0.29769   0.91296   0.75358   0.00000  Uiso   1.00
O811   O     0.05742   0.90371   0.74424   0.00000  Uiso   1.00
O812   O     0.31490   0.84024   0.83380   0.00000  Uiso   1.00
O813   O     0.07463   0.83099   0.82446   0.00000  Uiso   1.00
O814   O     0.27592   0.76296   0.75576   0.00000  Uiso   1.00
O815   O     0.03565   0.75371   0.74643   0.00000  Uiso   1.00
O816   O     0.25870   0.83567   0.67554   0.00000  Uiso   1.00
O817   O     0.01843   0.82642   0.66620   0.00000  Uiso   1.00
Zn818  Zn    0.27119   0.83951   0.75624   0.00000  Uiso   1.00
Zn819  Zn    0.06214   0.82716   0.74377   0.00000  Uiso   1.00
C820   C     0.17333   0.89363   0.78925   0.00000  Uiso   1.00
H821   H     0.20754   0.92159   0.81230   0.00000  Uiso   1.00
O822   O     0.21154   0.92486   0.81500   0.00000  Uiso   1.00
H823   H     0.20429   0.71968   0.92222   0.00000  Uiso   1.00
C824   C     0.10461   0.84856   0.58708   0.00000  Uiso   1.00
H825   H     0.12629   0.81741   0.60816   0.00000  Uiso   1.00
O826   O     0.08934   0.88402   0.61333   0.00000  Uiso   1.00
C827   C     0.17053   0.79634   0.86736   0.00000  Uiso   1.00
H828   H     0.18681   0.83649   0.86770   0.00000  Uiso   1.00
O829   O     0.17764   0.76448   0.83232   0.00000  Uiso   1.00
C830   C     0.07392   0.66838   0.71617   0.00000  Uiso   1.00
H831   H     0.11761   0.99282   0.73827   0.00000  Uiso   1.00
O832   O     0.06916   0.69101   0.67415   0.00000  Uiso   1.00
C833   C     0.34759   0.93128   0.74657   0.00000  Uiso   1.00
C834   C     0.46375   0.82271   0.99660   0.00000  Uiso   1.00
C835   C     0.44494   0.81398   0.93933   0.00000  Uiso   1.00
C836   C     0.52010   0.80714   0.52030   0.00000  Uiso   1.00
C837   C     0.54461   0.76702   0.99419   0.00000  Uiso   1.00
C838   C     0.51610   0.74790   0.94278   0.00000  Uiso   1.00
C839   C     0.47799   0.77994   0.91243   0.00000  Uiso   1.00
C840   C     0.55539   0.83417   0.56584   0.00000  Uiso   1.00
C841   C     0.63235   0.77568   0.56493   0.00000  Uiso   1.00
C842   C     0.39278   0.83720   0.91327   0.00000  Uiso   1.00
C843   C     0.35378   0.98431   0.73661   0.00000  Uiso   1.00
C844   C     0.37031   0.83447   0.85437   0.00000  Uiso   1.00
C845   C     0.64355   0.68025   0.74518   0.00000  Uiso   1.00
C846   C     0.65117   0.73500   0.74812   0.00000  Uiso   1.00
C847   C     0.63052   0.83002   0.64611   0.00000  Uiso   1.00
C848   C     0.60058   0.75145   0.51655   0.00000  Uiso   1.00
C849   C     0.60890   0.81619   0.58968   0.00000  Uiso   1.00
C850   C     0.36035   0.86444   0.94446   0.00000  Uiso   1.00
C851   C     0.37703   0.86923   0.50037   0.00000  Uiso   1.00
C852   C     0.42786   0.84825   0.52723   0.00000  Uiso   1.00
H853   H     0.34056   0.76145   0.58393   0.00000  Uiso   1.00
H854   H     0.60378   0.99744   0.75616   0.00000  Uiso   1.00
H855   H     0.49069   0.78836   0.71393   0.00000  Uiso   1.00
H856   H     0.62003   0.72159   0.99624   0.00000  Uiso   1.00
H857   H     0.54211   0.86921   0.58369   0.00000  Uiso   1.00
H858   H     0.65395   0.88171   0.92534   0.00000  Uiso   1.00
H859   H     0.34865   0.88839   0.52266   0.00000  Uiso   1.00
N860   N     0.47827   0.81890   0.73543   0.00000  Uiso   1.00
N861   N     0.52173   0.84777   0.76458   0.00000  Uiso   1.00
O862   O     0.63102   0.91296   0.75358   0.00000  Uiso   1.00
O863   O     0.39075   0.90371   0.74424   0.00000  Uiso   1.00
O864   O     0.64823   0.84024   0.83380   0.00000  Uiso   1.00
O865   O     0.40796   0.83099   0.82446   0.00000  Uiso   1.00
O866   O     0.60925   0.76296   0.75576   0.00000  Uiso   1.00
O867   O     0.36898   0.75371   0.74643   0.00000  Uiso   1.00
O868   O     0.59204   0.83567   0.67554   0.00000  Uiso   1.00
O869   O     0.35177   0.82642   0.66620   0.00000  Uiso   1.00
Zn870  Zn    0.60453   0.83951   0.75624   0.00000  Uiso   1.00
Zn871  Zn    0.39547   0.82716   0.74377   0.00000  Uiso   1.00
C872   C     0.50667   0.89363   0.78925   0.00000  Uiso   1.00
H873   H     0.54087   0.92159   0.81230   0.00000  Uiso   1.00
O874   O     0.54487   0.92486   0.81500   0.00000  Uiso   1.00
H875   H     0.53762   0.71968   0.92222   0.00000  Uiso   1.00
C876   C     0.43795   0.84856   0.58708   0.00000  Uiso   1.00
H877   H     0.45962   0.81741   0.60816   0.00000  Uiso   1.00
O878   O     0.42267   0.88402   0.61333   0.00000  Uiso   1.00
C879   C     0.50386   0.79634   0.86736   0.00000  Uiso   1.00
H880   H     0.52014   0.83649   0.86770   0.00000  Uiso   1.00
O881   O     0.51098   0.76448   0.83232   0.00000  Uiso   1.00
C882   C     0.40725   0.66838   0.71617   0.00000  Uiso   1.00
H883   H     0.45094   0.99282   0.73827   0.00000  Uiso   1.00
O884   O     0.40249   0.69101   0.67415   0.00000  Uiso   1.00
C885   C     0.68092   0.93128   0.74657   0.00000  Uiso   1.00
C886   C     0.79708   0.82271   0.99660   0.00000  Uiso   1.00
C887   C     0.77827   0.81398   0.93933   0.00000  Uiso   1.00
C888   C     0.85343   0.80714   0.52030   0.00000  Uiso   1.00
C889   C     0.87795   0.76702   0.99419   0.00000  Uiso   1.00
C890   C     0.84944   0.74790   0.94278   0.00000  Uiso   1.00
C891   C     0.81132   0.77994   0.91243   0.00000  Uiso   1.00
C892   C     0.88873   0.83417   0.56584   0.00000  Uiso   1.00
C893   C     0.96569   0.77568   0.56493   0.00000  Uiso   1.00
C894   C     0.72611   0.83720   0.91327   0.00000  Uiso   1.00
C895   C     0.68711   0.98431   0.73661   0.00000  Uiso   1.00
C896   C     0.70365   0.83447   0.85437   0.00000  Uiso   1.00
C897   C     0.97688   0.68025   0.74518   0.00000  Uiso   1.00
C898   C     0.98451   0.73500   0.74812   0.00000  Uiso   1.00
C899   C     0.96385   0.83002   0.64611   0.00000  Uiso   1.00
C900   C     0.93391   0.75145   0.51655   0.00000  Uiso   1.00
C901   C     0.94223   0.81619   0.58968   0.00000  Uiso   1.00
C902   C     0.69368   0.86444   0.94446   0.00000  Uiso   1.00
C903   C     0.71036   0.86923   0.50037   0.00000  Uiso   1.00
C904   C     0.76119   0.84825   0.52723   0.00000  Uiso   1.00
H905   H     0.67389   0.76145   0.58393   0.00000  Uiso   1.00
H906   H     0.93711   0.99744   0.75616   0.00000  Uiso   1.00
H907   H     0.82402   0.78836   0.71393   0.00000  Uiso   1.00
H908   H     0.95336   0.72159   0.99624   0.00000  Uiso   1.00
H909   H     0.87544   0.86921   0.58369   0.00000  Uiso   1.00
H910   H     0.98729   0.88171   0.92534   0.00000  Uiso   1.00
H911   H     0.68198   0.88839   0.52266   0.00000  Uiso   1.00
N912   N     0.81160   0.81890   0.73543   0.00000  Uiso   1.00
N913   N     0.85507   0.84777   0.76458   0.00000  Uiso   1.00
O914   O     0.96435   0.91296   0.75358   0.00000  Uiso   1.00
O915   O     0.72408   0.90371   0.74424   0.00000  Uiso   1.00
O916   O     0.98157   0.84024   0.83380   0.00000  Uiso   1.00
O917   O     0.74130   0.83099   0.82446   0.00000  Uiso   1.00
O918   O     0.94258   0.76296   0.75576   0.00000  Uiso   1.00
O919   O     0.70231   0.75371   0.74643   0.00000  Uiso   1.00
O920   O     0.92537   0.83567   0.67554   0.00000  Uiso   1.00
O921   O     0.68510   0.82642   0.66620   0.00000  Uiso   1.00
Zn922  Zn    0.93786   0.83951   0.75624   0.00000  Uiso   1.00
Zn923  Zn    0.72881   0.82716   0.74377   0.00000  Uiso   1.00
C924   C     0.84000   0.89363   0.78925   0.00000  Uiso   1.00
H925   H     0.87420   0.92159   0.81230   0.00000  Uiso   1.00
O926   O     0.87820   0.92486   0.81500   0.00000  Uiso   1.00
H927   H     0.87096   0.71968   0.92222   0.00000  Uiso   1.00
C928   C     0.77128   0.84856   0.58708   0.00000  Uiso   1.00
H929   H     0.79295   0.81741   0.60816   0.00000  Uiso   1.00
O930   O     0.75600   0.88402   0.61333   0.00000  Uiso   1.00
C931   C     0.83720   0.79634   0.86736   0.00000  Uiso   1.00
H932   H     0.85348   0.83649   0.86770   0.00000  Uiso   1.00
O933   O     0.84431   0.76448   0.83232   0.00000  Uiso   1.00
C934   C     0.74058   0.66838   0.71617   0.00000  Uiso   1.00
H935   H     0.78428   0.99282   0.73827   0.00000  Uiso   1.00
O936   O     0.73583   0.69101   0.67415   0.00000  Uiso   1.00
loop_
_geom_bond_atom_site_label_1
_geom_bond_atom_site_label_2
_geom_bond_distance
_geom_bond_site_symmetry_2
_ccdc_geom_bond_type
C1     O31     1.282   .     A
C1     C11     1.412   .     S
C1     O134    1.281   1_455 S
C2     C3      1.421   .     A
C2     C472    1.417   .     S
C2     C488    1.428   .     S
C3     C10     1.439   .     A
C3     C7      1.445   .     A
C4     C8      1.389   .     A
C4     C470    1.417   1_554 S
C4     C473    1.418   1_554 S
C5     C6      1.377   .     A
C5     C472    1.418   .     S
C5     C484    1.402   .     S
C6     C7      1.392   .     A
C6     H43     1.085   .     S
C7     C47     1.468   .     S
C8     C17     1.386   .     A
C8     H25     1.085   .     S
C9     C16     1.382   .     A
C9     C17     1.395   .     A
C9     H73     1.082   .     S
C10    C12     1.465   .     S
C10    C18     1.401   .     A
C11    C273    1.354   1_455 S
C11    C206    1.503   .     S
C12    O33     1.282   .     A
C12    O136    1.308   1_455 S
C13    C14     1.413   .     S
C13    C375    1.354   1_545 S
C13    H334    1.089   1_545 S
C14    O34     1.296   .     A
C14    O87     1.269   .     S
C15    O36     1.295   .     A
C15    C17     1.426   .     S
C15    O89     1.278   .     S
C16    C473    1.402   1_554 S
C16    H492    1.083   1_554 S
C18    C487    1.380   .     S
C18    H130    1.085   1_455 S
C19    H27     1.085   .     S
C19    C20     1.393   .     A
C19    C486    1.380   1_554 S
C20    C44     1.480   .     S
C20    C470    1.428   1_554 S
H21    C113    1.082   1_455 S
H22    C169    1.089   .     S
H23    N28     1.029   .     S
H24    C484    1.083   .     S
H26    C70     1.085   .     S
N28    N29     1.286   .     D
N28    Zn39    2.013   .     S
N29    Zn38    2.013   .     S
N29    C40     1.413   .     S
O30    Zn38    1.970   .     S
O30    C53     1.281   .     S
O31    Zn39    1.992   .     S
O32    Zn38    2.005   .     S
O32    C64     1.308   .     S
O33    Zn39    1.994   .     S
O34    Zn38    1.992   .     S
O35    Zn39    1.970   .     S
O35    C118    1.269   1_455 S
O36    Zn38    1.994   .     S
O37    Zn39    2.005   .     S
O37    C119    1.278   1_455 S
C40    H41     1.087   .     S
C40    O42     1.214   .     D
C44    H45     1.083   .     S
C44    O46     1.222   .     D
C47    H48     1.082   .     S
C47    O49     1.224   .     D
C50    O52     1.227   .     D
C50    C323    1.503   1_545 S
C50    H363    1.098   1_545 S
H51    C206    1.098   .     S
C53    O83     1.282   .     A
C53    C63     1.412   .     S
C54    C55     1.421   .     A
C54    C524    1.417   .     S
C54    C540    1.428   .     S
C55    C62     1.439   .     A
C55    C59     1.445   .     A
C56    C60     1.389   .     A
C56    C522    1.417   1_554 S
C56    C525    1.418   1_554 S
C57    C58     1.377   .     A
C57    C524    1.418   .     S
C57    C536    1.402   .     S
C58    C59     1.392   .     A
C58    H95     1.085   .     S
C59    C99     1.468   .     S
C60    C69     1.386   .     A
C60    H77     1.085   .     S
C61    C68     1.382   .     A
C61    C69     1.395   .     A
C61    H125    1.082   .     S
C62    C64     1.465   .     S
C62    C70     1.401   .     A
C63    C169    1.354   .     S
C63    C258    1.503   .     S
C64    O85     1.282   .     A
C65    C66     1.413   .     S
C65    C427    1.354   1_545 S
C65    H386    1.089   1_545 S
C66    O86     1.296   .     A
C66    O139    1.269   .     S
C67    O88     1.295   .     A
C67    C69     1.426   .     S
C67    O141    1.278   .     S
C68    C525    1.402   1_554 S
C68    H544    1.083   1_554 S
C70    C539    1.380   .     S
C71    H79     1.085   .     S
C71    C72     1.393   .     A
C71    C538    1.380   1_554 S
C72    C96     1.480   .     S
C72    C522    1.428   1_554 S
H74    C221    1.089   .     S
H75    N80     1.029   .     S
H76    C536    1.083   .     S
H78    C122    1.085   .     S
N80    N81     1.286   .     D
N80    Zn91    2.013   .     S
N81    Zn90    2.013   .     S
N81    C92     1.413   .     S
O82    Zn90    1.970   .     S
O82    C105    1.281   .     S
O83    Zn91    1.992   .     S
O84    Zn90    2.005   .     S
O84    C116    1.308   .     S
O85    Zn91    1.994   .     S
O86    Zn90    1.992   .     S
O87    Zn91    1.970   .     S
O88    Zn90    1.994   .     S
O89    Zn91    2.005   .     S
C92    H93     1.087   .     S
C92    O94     1.214   .     D
C96    H97     1.083   .     S
C96    O98     1.222   .     D
C99    H100    1.082   .     S
C99    O101    1.224   .     D
C102   O104    1.227   .     D
C102   C375    1.503   1_545 S
C102   H415    1.098   1_545 S
H103   C258    1.098   .     S
C105   O135    1.282   .     A
C105   C115    1.412   .     S
C106   C107    1.421   .     A
C106   C576    1.417   .     S
C106   C592    1.428   .     S
C107   C114    1.439   .     A
C107   C111    1.445   .     A
C108   C112    1.389   .     A
C108   C574    1.417   1_554 S
C108   C577    1.418   1_554 S
C109   C110    1.377   .     A
C109   C576    1.418   .     S
C109   C588    1.402   .     S
C110   C111    1.392   .     A
C110   H147    1.085   .     S
C111   C151    1.468   .     S
C112   C121    1.386   .     A
C112   H129    1.085   .     S
C113   C120    1.382   .     A
C113   C121    1.395   .     A
C113   H21     1.082   1_655 S
C114   C116    1.465   .     S
C114   C122    1.401   .     A
C115   C221    1.354   .     S
C115   C310    1.503   .     S
C116   O137    1.282   .     A
C117   C118    1.413   .     S
C117   C323    1.354   1_645 S
C117   H438    1.089   1_545 S
C118   O138    1.296   .     A
C118   O35     1.269   1_655 S
C119   O140    1.295   .     A
C119   C121    1.426   .     S
C119   O37     1.278   1_655 S
C120   C577    1.402   1_554 S
C120   H596    1.083   1_554 S
C122   C591    1.380   .     S
C123   H131    1.085   .     S
C123   C124    1.393   .     A
C123   C590    1.380   1_554 S
C124   C148    1.480   .     S
C124   C574    1.428   1_554 S
H126   C273    1.089   .     S
H127   N132    1.029   .     S
H128   C588    1.083   .     S
H130   C18     1.085   1_655 S
N132   N133    1.286   .     D
N132   Zn143   2.013   .     S
N133   Zn142   2.013   .     S
N133   C144    1.413   .     S
O134   Zn142   1.970   .     S
O134   C1      1.281   1_655 S
O135   Zn143   1.992   .     S
O136   Zn142   2.005   .     S
O136   C12     1.308   1_655 S
O137   Zn143   1.994   .     S
O138   Zn142   1.992   .     S
O139   Zn143   1.970   .     S
O140   Zn142   1.994   .     S
O141   Zn143   2.005   .     S
C144   H145    1.087   .     S
C144   O146    1.214   .     D
C148   H149    1.083   .     S
C148   O150    1.222   .     D
C151   H152    1.082   .     S
C151   O153    1.224   .     D
C154   O156    1.227   .     D
C154   C427    1.503   1_545 S
C154   H467    1.098   1_545 S
H155   C310    1.098   .     S
C157   O187    1.282   .     A
C157   C167    1.412   .     S
C157   O290    1.281   1_455 S
C158   C159    1.421   .     A
C158   C628    1.417   .     S
C158   C644    1.428   .     S
C159   C166    1.439   .     A
C159   C163    1.445   .     A
C160   C164    1.389   .     A
C160   C626    1.417   1_554 S
C160   C629    1.418   1_554 S
C161   C162    1.377   .     A
C161   C628    1.418   .     S
C161   C640    1.402   .     S
C162   C163    1.392   .     A
C162   H199    1.085   .     S
C163   C203    1.468   .     S
C164   C173    1.386   .     A
C164   H181    1.085   .     S
C165   C172    1.382   .     A
C165   C173    1.395   .     A
C165   H229    1.082   .     S
C166   C168    1.465   .     S
C166   C174    1.401   .     A
C167   C429    1.354   1_455 S
C167   C362    1.503   .     S
C168   O189    1.282   .     A
C168   O292    1.308   1_455 S
C169   C170    1.413   .     S
C170   O190    1.296   .     A
C170   O243    1.269   .     S
C171   O192    1.295   .     A
C171   C173    1.426   .     S
C171   O245    1.278   .     S
C172   C629    1.402   1_554 S
C172   H648    1.083   1_554 S
C174   C643    1.380   .     S
C174   H286    1.085   1_455 S
C175   H183    1.085   .     S
C175   C176    1.393   .     A
C175   C642    1.380   1_554 S
C176   C200    1.480   .     S
C176   C626    1.428   1_554 S
H177   C269    1.082   1_455 S
H178   C325    1.089   .     S
H179   N184    1.029   .     S
H180   C640    1.083   .     S
H182   C226    1.085   .     S
N184   N185    1.286   .     D
N184   Zn195   2.013   .     S
N185   Zn194   2.013   .     S
N185   C196    1.413   .     S
O186   Zn194   1.970   .     S
O186   C209    1.281   .     S
O187   Zn195   1.992   .     S
O188   Zn194   2.005   .     S
O188   C220    1.308   .     S
O189   Zn195   1.994   .     S
O190   Zn194   1.992   .     S
O191   Zn195   1.970   .     S
O191   C274    1.269   1_455 S
O192   Zn194   1.994   .     S
O193   Zn195   2.005   .     S
O193   C275    1.278   1_455 S
C196   H197    1.087   .     S
C196   O198    1.214   .     D
C200   H201    1.083   .     S
C200   O202    1.222   .     D
C203   H204    1.082   .     S
C203   O205    1.224   .     D
C206   O208    1.227   .     D
H207   C362    1.098   .     S
C209   O239    1.282   .     A
C209   C219    1.412   .     S
C210   C211    1.421   .     A
C210   C680    1.417   .     S
C210   C696    1.428   .     S
C211   C218    1.439   .     A
C211   C215    1.445   .     A
C212   C216    1.389   .     A
C212   C678    1.417   1_554 S
C212   C681    1.418   1_554 S
C213   C214    1.377   .     A
C213   C680    1.418   .     S
C213   C692    1.402   .     S
C214   C215    1.392   .     A
C214   H251    1.085   .     S
C215   C255    1.468   .     S
C216   C225    1.386   .     A
C216   H233    1.085   .     S
C217   C224    1.382   .     A
C217   C225    1.395   .     A
C217   H281    1.082   .     S
C218   C220    1.465   .     S
C218   C226    1.401   .     A
C219   C325    1.354   .     S
C219   C414    1.503   .     S
C220   O241    1.282   .     A
C221   C222    1.413   .     S
C222   O242    1.296   .     A
C222   O295    1.269   .     S
C223   O244    1.295   .     A
C223   C225    1.426   .     S
C223   O297    1.278   .     S
C224   C681    1.402   1_554 S
C224   H700    1.083   1_554 S
C226   C695    1.380   .     S
C227   H235    1.085   .     S
C227   C228    1.393   .     A
C227   C694    1.380   1_554 S
C228   C252    1.480   .     S
C228   C678    1.428   1_554 S
H230   C377    1.089   .     S
H231   N236    1.029   .     S
H232   C692    1.083   .     S
H234   C278    1.085   .     S
N236   N237    1.286   .     D
N236   Zn247   2.013   .     S
N237   Zn246   2.013   .     S
N237   C248    1.413   .     S
O238   Zn246   1.970   .     S
O238   C261    1.281   .     S
O239   Zn247   1.992   .     S
O240   Zn246   2.005   .     S
O240   C272    1.308   .     S
O241   Zn247   1.994   .     S
O242   Zn246   1.992   .     S
O243   Zn247   1.970   .     S
O244   Zn246   1.994   .     S
O245   Zn247   2.005   .     S
C248   H249    1.087   .     S
C248   O250    1.214   .     D
C252   H253    1.083   .     S
C252   O254    1.222   .     D
C255   H256    1.082   .     S
C255   O257    1.224   .     D
C258   O260    1.227   .     D
H259   C414    1.098   .     S
C261   O291    1.282   .     A
C261   C271    1.412   .     S
C262   C263    1.421   .     A
C262   C732    1.417   .     S
C262   C748    1.428   .     S
C263   C270    1.439   .     A
C263   C267    1.445   .     A
C264   C268    1.389   .     A
C264   C730    1.417   1_554 S
C264   C733    1.418   1_554 S
C265   C266    1.377   .     A
C265   C732    1.418   .     S
C265   C744    1.402   .     S
C266   C267    1.392   .     A
C266   H303    1.085   .     S
C267   C307    1.468   .     S
C268   C277    1.386   .     A
C268   H285    1.085   .     S
C269   C276    1.382   .     A
C269   C277    1.395   .     A
C269   H177    1.082   1_655 S
C270   C272    1.465   .     S
C270   C278    1.401   .     A
C271   C377    1.354   .     S
C271   C466    1.503   .     S
C272   O293    1.282   .     A
C273   C274    1.413   .     S
C273   C11     1.354   1_655 S
C274   O294    1.296   .     A
C274   O191    1.269   1_655 S
C275   O296    1.295   .     A
C275   C277    1.426   .     S
C275   O193    1.278   1_655 S
C276   C733    1.402   1_554 S
C276   H752    1.083   1_554 S
C278   C747    1.380   .     S
C279   H287    1.085   .     S
C279   C280    1.393   .     A
C279   C746    1.380   1_554 S
C280   C304    1.480   .     S
C280   C730    1.428   1_554 S
H282   C429    1.089   .     S
H283   N288    1.029   .     S
H284   C744    1.083   .     S
H286   C174    1.085   1_655 S
N288   N289    1.286   .     D
N288   Zn299   2.013   .     S
N289   Zn298   2.013   .     S
N289   C300    1.413   .     S
O290   Zn298   1.970   .     S
O290   C157    1.281   1_655 S
O291   Zn299   1.992   .     S
O292   Zn298   2.005   .     S
O292   C168    1.308   1_655 S
O293   Zn299   1.994   .     S
O294   Zn298   1.992   .     S
O295   Zn299   1.970   .     S
O296   Zn298   1.994   .     S
O297   Zn299   2.005   .     S
C300   H301    1.087   .     S
C300   O302    1.214   .     D
C304   H305    1.083   .     S
C304   O306    1.222   .     D
C307   H308    1.082   .     S
C307   O309    1.224   .     D
C310   O312    1.227   .     D
H311   C466    1.098   .     S
C313   O343    1.282   .     A
C313   C323    1.412   .     S
C313   O446    1.281   1_455 S
C314   C315    1.421   .     A
C314   C784    1.417   .     S
C314   C800    1.428   .     S
C315   C322    1.439   .     A
C315   C319    1.445   .     A
C316   C320    1.389   .     A
C316   C782    1.417   1_554 S
C316   C785    1.418   1_554 S
C317   C318    1.377   .     A
C317   C784    1.418   .     S
C317   C796    1.402   .     S
C318   C319    1.392   .     A
C318   H355    1.085   .     S
C319   C359    1.468   .     S
C320   C329    1.386   .     A
C320   H337    1.085   .     S
C321   C328    1.382   .     A
C321   C329    1.395   .     A
C321   H385    1.082   .     S
C322   C324    1.465   .     S
C322   C330    1.401   .     A
C323   C117    1.354   1_465 S
C323   C50     1.503   1_565 S
C324   O345    1.282   .     A
C324   O448    1.308   1_455 S
C325   C326    1.413   .     S
C326   O346    1.296   .     A
C326   O399    1.269   .     S
C327   O348    1.295   .     A
C327   C329    1.426   .     S
C327   O401    1.278   .     S
C328   C785    1.402   1_554 S
C328   H804    1.083   1_554 S
C330   C799    1.380   .     S
C330   H442    1.085   1_455 S
C331   H339    1.085   .     S
C331   C332    1.393   .     A
C331   C798    1.380   1_554 S
C332   C356    1.480   .     S
C332   C782    1.428   1_554 S
H333   C425    1.082   1_455 S
H334   C13     1.089   1_565 S
H335   N340    1.029   .     S
H336   C796    1.083   .     S
H338   C382    1.085   .     S
N340   N341    1.286   .     D
N340   Zn351   2.013   .     S
N341   Zn350   2.013   .     S
N341   C352    1.413   .     S
O342   Zn350   1.970   .     S
O342   C365    1.281   .     S
O343   Zn351   1.992   .     S
O344   Zn350   2.005   .     S
O344   C376    1.308   .     S
O345   Zn351   1.994   .     S
O346   Zn350   1.992   .     S
O347   Zn351   1.970   .     S
O347   C430    1.269   1_455 S
O348   Zn350   1.994   .     S
O349   Zn351   2.005   .     S
O349   C431    1.278   1_455 S
C352   H353    1.087   .     S
C352   O354    1.214   .     D
C356   H357    1.083   .     S
C356   O358    1.222   .     D
C359   H360    1.082   .     S
C359   O361    1.224   .     D
C362   O364    1.227   .     D
H363   C50     1.098   1_565 S
C365   O395    1.282   .     A
C365   C375    1.412   .     S
C366   C367    1.421   .     A
C366   C836    1.417   .     S
C366   C852    1.428   .     S
C367   C374    1.439   .     A
C367   C371    1.445   .     A
C368   C372    1.389   .     A
C368   C834    1.417   1_554 S
C368   C837    1.418   1_554 S
C369   C370    1.377   .     A
C369   C836    1.418   .     S
C369   C848    1.402   .     S
C370   C371    1.392   .     A
C370   H407    1.085   .     S
C371   C411    1.468   .     S
C372   C381    1.386   .     A
C372   H389    1.085   .     S
C373   C380    1.382   .     A
C373   C381    1.395   .     A
C373   H437    1.082   .     S
C374   C376    1.465   .     S
C374   C382    1.401   .     A
C375   C13     1.354   1_565 S
C375   C102    1.503   1_565 S
C376   O397    1.282   .     A
C377   C378    1.413   .     S
C378   O398    1.296   .     A
C378   O451    1.269   .     S
C379   O400    1.295   .     A
C379   C381    1.426   .     S
C379   O453    1.278   .     S
C380   C837    1.402   1_554 S
C380   H856    1.083   1_554 S
C382   C851    1.380   .     S
C383   H391    1.085   .     S
C383   C384    1.393   .     A
C383   C850    1.380   1_554 S
C384   C408    1.480   .     S
C384   C834    1.428   1_554 S
H386   C65     1.089   1_565 S
H387   N392    1.029   .     S
H388   C848    1.083   .     S
H390   C434    1.085   .     S
N392   N393    1.286   .     D
N392   Zn403   2.013   .     S
N393   Zn402   2.013   .     S
N393   C404    1.413   .     S
O394   Zn402   1.970   .     S
O394   C417    1.281   .     S
O395   Zn403   1.992   .     S
O396   Zn402   2.005   .     S
O396   C428    1.308   .     S
O397   Zn403   1.994   .     S
O398   Zn402   1.992   .     S
O399   Zn403   1.970   .     S
O400   Zn402   1.994   .     S
O401   Zn403   2.005   .     S
C404   H405    1.087   .     S
C404   O406    1.214   .     D
C408   H409    1.083   .     S
C408   O410    1.222   .     D
C411   H412    1.082   .     S
C411   O413    1.224   .     D
C414   O416    1.227   .     D
H415   C102    1.098   1_565 S
C417   O447    1.282   .     A
C417   C427    1.412   .     S
C418   C419    1.421   .     A
C418   C888    1.417   .     S
C418   C904    1.428   .     S
C419   C426    1.439   .     A
C419   C423    1.445   .     A
C420   C424    1.389   .     A
C420   C886    1.417   1_554 S
C420   C889    1.418   1_554 S
C421   C422    1.377   .     A
C421   C888    1.418   .     S
C421   C900    1.402   .     S
C422   C423    1.392   .     A
C422   H459    1.085   .     S
C423   C463    1.468   .     S
C424   C433    1.386   .     A
C424   H441    1.085   .     S
C425   C432    1.382   .     A
C425   C433    1.395   .     A
C425   H333    1.082   1_655 S
C426   C428    1.465   .     S
C426   C434    1.401   .     A
C427   C65     1.354   1_565 S
C427   C154    1.503   1_565 S
C428   O449    1.282   .     A
C429   C430    1.413   .     S
C429   C167    1.354   1_655 S
C430   O450    1.296   .     A
C430   O347    1.269   1_655 S
C431   O452    1.295   .     A
C431   C433    1.426   .     S
C431   O349    1.278   1_655 S
C432   C889    1.402   1_554 S
C432   H908    1.083   1_554 S
C434   C903    1.380   .     S
C435   H443    1.085   .     S
C435   C436    1.393   .     A
C435   C902    1.380   1_554 S
C436   C460    1.480   .     S
C436   C886    1.428   1_554 S
H438   C117    1.089   1_565 S
H439   N444    1.029   .     S
H440   C900    1.083   .     S
H442   C330    1.085   1_655 S
N444   N445    1.286   .     D
N444   Zn455   2.013   .     S
N445   Zn454   2.013   .     S
N445   C456    1.413   .     S
O446   Zn454   1.970   .     S
O446   C313    1.281   1_655 S
O447   Zn455   1.992   .     S
O448   Zn454   2.005   .     S
O448   C324    1.308   1_655 S
O449   Zn455   1.994   .     S
O450   Zn454   1.992   .     S
O451   Zn455   1.970   .     S
O452   Zn454   1.994   .     S
O453   Zn455   2.005   .     S
C456   H457    1.087   .     S
C456   O458    1.214   .     D
C460   H461    1.083   .     S
C460   O462    1.222   .     D
C463   H464    1.082   .     S
C463   O465    1.224   .     D
C466   O468    1.227   .     D
H467   C154    1.098   1_565 S
C469   O499    1.282   .     A
C469   C479    1.412   .     S
C469   O602    1.281   1_455 S
C470   C471    1.421   .     A
C470   C4      1.417   1_556 S
C470   C20     1.428   1_556 S
C471   C478    1.439   .     A
C471   C475    1.445   .     A
C472   C476    1.389   .     A
C473   C474    1.377   .     A
C473   C4      1.418   1_556 S
C473   C16     1.402   1_556 S
C474   C475    1.392   .     A
C474   H511    1.085   .     S
C475   C515    1.468   .     S
C476   C485    1.386   .     A
C476   H493    1.085   .     S
C477   C484    1.382   .     A
C477   C485    1.395   .     A
C477   H541    1.082   .     S
C478   C480    1.465   .     S
C478   C486    1.401   .     A
C479   C741    1.354   1_455 S
C479   C674    1.503   .     S
C480   O501    1.282   .     A
C480   O604    1.308   1_455 S
C481   C482    1.413   .     S
C481   C843    1.354   1_545 S
C481   H802    1.089   1_545 S
C482   O502    1.296   .     A
C482   O555    1.269   .     S
C483   O504    1.295   .     A
C483   C485    1.426   .     S
C483   O557    1.278   .     S
C486   C19     1.380   1_556 S
C486   H598    1.085   1_455 S
C487   H495    1.085   .     S
C487   C488    1.393   .     A
C488   C512    1.480   .     S
H489   C581    1.082   1_455 S
H490   C637    1.089   .     S
H491   N496    1.029   .     S
H492   C16     1.083   1_556 S
H494   C538    1.085   .     S
N496   N497    1.286   .     D
N496   Zn507   2.013   .     S
N497   Zn506   2.013   .     S
N497   C508    1.413   .     S
O498   Zn506   1.970   .     S
O498   C521    1.281   .     S
O499   Zn507   1.992   .     S
O500   Zn506   2.005   .     S
O500   C532    1.308   .     S
O501   Zn507   1.994   .     S
O502   Zn506   1.992   .     S
O503   Zn507   1.970   .     S
O503   C586    1.269   1_455 S
O504   Zn506   1.994   .     S
O505   Zn507   2.005   .     S
O505   C587    1.278   1_455 S
C508   H509    1.087   .     S
C508   O510    1.214   .     D
C512   H513    1.083   .     S
C512   O514    1.222   .     D
C515   H516    1.082   .     S
C515   O517    1.224   .     D
C518   O520    1.227   .     D
C518   C791    1.503   1_545 S
C518   H831    1.098   1_545 S
H519   C674    1.098   .     S
C521   O551    1.282   .     A
C521   C531    1.412   .     S
C522   C523    1.421   .     A
C522   C56     1.417   1_556 S
C522   C72     1.428   1_556 S
C523   C530    1.439   .     A
C523   C527    1.445   .     A
C524   C528    1.389   .     A
C525   C526    1.377   .     A
C525   C56     1.418   1_556 S
C525   C68     1.402   1_556 S
C526   C527    1.392   .     A
C526   H563    1.085   .     S
C527   C567    1.468   .     S
C528   C537    1.386   .     A
C528   H545    1.085   .     S
C529   C536    1.382   .     A
C529   C537    1.395   .     A
C529   H593    1.082   .     S
C530   C532    1.465   .     S
C530   C538    1.401   .     A
C531   C637    1.354   .     S
C531   C726    1.503   .     S
C532   O553    1.282   .     A
C533   C534    1.413   .     S
C533   C895    1.354   1_545 S
C533   H854    1.089   1_545 S
C534   O554    1.296   .     A
C534   O607    1.269   .     S
C535   O556    1.295   .     A
C535   C537    1.426   .     S
C535   O609    1.278   .     S
C538   C71     1.380   1_556 S
C539   H547    1.085   .     S
C539   C540    1.393   .     A
C540   C564    1.480   .     S
H542   C689    1.089   .     S
H543   N548    1.029   .     S
H544   C68     1.083   1_556 S
H546   C590    1.085   .     S
N548   N549    1.286   .     D
N548   Zn559   2.013   .     S
N549   Zn558   2.013   .     S
N549   C560    1.413   .     S
O550   Zn558   1.970   .     S
O550   C573    1.281   .     S
O551   Zn559   1.992   .     S
O552   Zn558   2.005   .     S
O552   C584    1.308   .     S
O553   Zn559   1.994   .     S
O554   Zn558   1.992   .     S
O555   Zn559   1.970   .     S
O556   Zn558   1.994   .     S
O557   Zn559   2.005   .     S
C560   H561    1.087   .     S
C560   O562    1.214   .     D
C564   H565    1.083   .     S
C564   O566    1.222   .     D
C567   H568    1.082   .     S
C567   O569    1.224   .     D
C570   O572    1.227   .     D
C570   C843    1.503   1_545 S
C570   H883    1.098   1_545 S
H571   C726    1.098   .     S
C573   O603    1.282   .     A
C573   C583    1.412   .     S
C574   C575    1.421   .     A
C574   C108    1.417   1_556 S
C574   C124    1.428   1_556 S
C575   C582    1.439   .     A
C575   C579    1.445   .     A
C576   C580    1.389   .     A
C577   C578    1.377   .     A
C577   C108    1.418   1_556 S
C577   C120    1.402   1_556 S
C578   C579    1.392   .     A
C578   H615    1.085   .     S
C579   C619    1.468   .     S
C580   C589    1.386   .     A
C580   H597    1.085   .     S
C581   C588    1.382   .     A
C581   C589    1.395   .     A
C581   H489    1.082   1_655 S
C582   C584    1.465   .     S
C582   C590    1.401   .     A
C583   C689    1.354   .     S
C583   C778    1.503   .     S
C584   O605    1.282   .     A
C585   C586    1.413   .     S
C585   C791    1.354   1_645 S
C585   H906    1.089   1_545 S
C586   O606    1.296   .     A
C586   O503    1.269   1_655 S
C587   O608    1.295   .     A
C587   C589    1.426   .     S
C587   O505    1.278   1_655 S
C590   C123    1.380   1_556 S
C591   H599    1.085   .     S
C591   C592    1.393   .     A
C592   C616    1.480   .     S
H594   C741    1.089   .     S
H595   N600    1.029   .     S
H596   C120    1.083   1_556 S
H598   C486    1.085   1_655 S
N600   N601    1.286   .     D
N600   Zn611   2.013   .     S
N601   Zn610   2.013   .     S
N601   C612    1.413   .     S
O602   Zn610   1.970   .     S
O602   C469    1.281   1_655 S
O603   Zn611   1.992   .     S
O604   Zn610   2.005   .     S
O604   C480    1.308   1_655 S
O605   Zn611   1.994   .     S
O606   Zn610   1.992   .     S
O607   Zn611   1.970   .     S
O608   Zn610   1.994   .     S
O609   Zn611   2.005   .     S
C612   H613    1.087   .     S
C612   O614    1.214   .     D
C616   H617    1.083   .     S
C616   O618    1.222   .     D
C619   H620    1.082   .     S
C619   O621    1.224   .     D
C622   O624    1.227   .     D
C622   C895    1.503   1_545 S
C622   H935    1.098   1_545 S
H623   C778    1.098   .     S
C625   O655    1.282   .     A
C625   C635    1.412   .     S
C625   O758    1.281   1_455 S
C626   C627    1.421   .     A
C626   C160    1.417   1_556 S
C626   C176    1.428   1_556 S
C627   C634    1.439   .     A
C627   C631    1.445   .     A
C628   C632    1.389   .     A
C629   C630    1.377   .     A
C629   C160    1.418   1_556 S
C629   C172    1.402   1_556 S
C630   C631    1.392   .     A
C630   H667    1.085   .     S
C631   C671    1.468   .     S
C632   C641    1.386   .     A
C632   H649    1.085   .     S
C633   C640    1.382   .     A
C633   C641    1.395   .     A
C633   H697    1.082   .     S
C634   C636    1.465   .     S
C634   C642    1.401   .     A
C635   C897    1.354   1_455 S
C635   C830    1.503   .     S
C636   O657    1.282   .     A
C636   O760    1.308   1_455 S
C637   C638    1.413   .     S
C638   O658    1.296   .     A
C638   O711    1.269   .     S
C639   O660    1.295   .     A
C639   C641    1.426   .     S
C639   O713    1.278   .     S
C642   C175    1.380   1_556 S
C642   H754    1.085   1_455 S
C643   H651    1.085   .     S
C643   C644    1.393   .     A
C644   C668    1.480   .     S
H645   C737    1.082   1_455 S
H646   C793    1.089   .     S
H647   N652    1.029   .     S
H648   C172    1.083   1_556 S
H650   C694    1.085   .     S
N652   N653    1.286   .     D
N652   Zn663   2.013   .     S
N653   Zn662   2.013   .     S
N653   C664    1.413   .     S
O654   Zn662   1.970   .     S
O654   C677    1.281   .     S
O655   Zn663   1.992   .     S
O656   Zn662   2.005   .     S
O656   C688    1.308   .     S
O657   Zn663   1.994   .     S
O658   Zn662   1.992   .     S
O659   Zn663   1.970   .     S
O659   C742    1.269   1_455 S
O660   Zn662   1.994   .     S
O661   Zn663   2.005   .     S
O661   C743    1.278   1_455 S
C664   H665    1.087   .     S
C664   O666    1.214   .     D
C668   H669    1.083   .     S
C668   O670    1.222   .     D
C671   H672    1.082   .     S
C671   O673    1.224   .     D
C674   O676    1.227   .     D
H675   C830    1.098   .     S
C677   O707    1.282   .     A
C677   C687    1.412   .     S
C678   C679    1.421   .     A
C678   C212    1.417   1_556 S
C678   C228    1.428   1_556 S
C679   C686    1.439   .     A
C679   C683    1.445   .     A
C680   C684    1.389   .     A
C681   C682    1.377   .     A
C681   C212    1.418   1_556 S
C681   C224    1.402   1_556 S
C682   C683    1.392   .     A
C682   H719    1.085   .     S
C683   C723    1.468   .     S
C684   C693    1.386   .     A
C684   H701    1.085   .     S
C685   C692    1.382   .     A
C685   C693    1.395   .     A
C685   H749    1.082   .     S
C686   C688    1.465   .     S
C686   C694    1.401   .     A
C687   C793    1.354   .     S
C687   C882    1.503   .     S
C688   O709    1.282   .     A
C689   C690    1.413   .     S
C690   O710    1.296   .     A
C690   O763    1.269   .     S
C691   O712    1.295   .     A
C691   C693    1.426   .     S
C691   O765    1.278   .     S
C694   C227    1.380   1_556 S
C695   H703    1.085   .     S
C695   C696    1.393   .     A
C696   C720    1.480   .     S
H698   C845    1.089   .     S
H699   N704    1.029   .     S
H700   C224    1.083   1_556 S
H702   C746    1.085   .     S
N704   N705    1.286   .     D
N704   Zn715   2.013   .     S
N705   Zn714   2.013   .     S
N705   C716    1.413   .     S
O706   Zn714   1.970   .     S
O706   C729    1.281   .     S
O707   Zn715   1.992   .     S
O708   Zn714   2.005   .     S
O708   C740    1.308   .     S
O709   Zn715   1.994   .     S
O710   Zn714   1.992   .     S
O711   Zn715   1.970   .     S
O712   Zn714   1.994   .     S
O713   Zn715   2.005   .     S
C716   H717    1.087   .     S
C716   O718    1.214   .     D
C720   H721    1.083   .     S
C720   O722    1.222   .     D
C723   H724    1.082   .     S
C723   O725    1.224   .     D
C726   O728    1.227   .     D
H727   C882    1.098   .     S
C729   O759    1.282   .     A
C729   C739    1.412   .     S
C730   C731    1.421   .     A
C730   C264    1.417   1_556 S
C730   C280    1.428   1_556 S
C731   C738    1.439   .     A
C731   C735    1.445   .     A
C732   C736    1.389   .     A
C733   C734    1.377   .     A
C733   C264    1.418   1_556 S
C733   C276    1.402   1_556 S
C734   C735    1.392   .     A
C734   H771    1.085   .     S
C735   C775    1.468   .     S
C736   C745    1.386   .     A
C736   H753    1.085   .     S
C737   C744    1.382   .     A
C737   C745    1.395   .     A
C737   H645    1.082   1_655 S
C738   C740    1.465   .     S
C738   C746    1.401   .     A
C739   C845    1.354   .     S
C739   C934    1.503   .     S
C740   O761    1.282   .     A
C741   C742    1.413   .     S
C741   C479    1.354   1_655 S
C742   O762    1.296   .     A
C742   O659    1.269   1_655 S
C743   O764    1.295   .     A
C743   C745    1.426   .     S
C743   O661    1.278   1_655 S
C746   C279    1.380   1_556 S
C747   H755    1.085   .     S
C747   C748    1.393   .     A
C748   C772    1.480   .     S
H750   C897    1.089   .     S
H751   N756    1.029   .     S
H752   C276    1.083   1_556 S
H754   C642    1.085   1_655 S
N756   N757    1.286   .     D
N756   Zn767   2.013   .     S
N757   Zn766   2.013   .     S
N757   C768    1.413   .     S
O758   Zn766   1.970   .     S
O758   C625    1.281   1_655 S
O759   Zn767   1.992   .     S
O760   Zn766   2.005   .     S
O760   C636    1.308   1_655 S
O761   Zn767   1.994   .     S
O762   Zn766   1.992   .     S
O763   Zn767   1.970   .     S
O764   Zn766   1.994   .     S
O765   Zn767   2.005   .     S
C768   H769    1.087   .     S
C768   O770    1.214   .     D
C772   H773    1.083   .     S
C772   O774    1.222   .     D
C775   H776    1.082   .     S
C775   O777    1.224   .     D
C778   O780    1.227   .     D
H779   C934    1.098   .     S
C781   O811    1.282   .     A
C781   C791    1.412   .     S
C781   O914    1.281   1_455 S
C782   C783    1.421   .     A
C782   C316    1.417   1_556 S
C782   C332    1.428   1_556 S
C783   C790    1.439   .     A
C783   C787    1.445   .     A
C784   C788    1.389   .     A
C785   C786    1.377   .     A
C785   C316    1.418   1_556 S
C785   C328    1.402   1_556 S
C786   C787    1.392   .     A
C786   H823    1.085   .     S
C787   C827    1.468   .     S
C788   C797    1.386   .     A
C788   H805    1.085   .     S
C789   C796    1.382   .     A
C789   C797    1.395   .     A
C789   H853    1.082   .     S
C790   C792    1.465   .     S
C790   C798    1.401   .     A
C791   C585    1.354   1_465 S
C791   C518    1.503   1_565 S
C792   O813    1.282   .     A
C792   O916    1.308   1_455 S
C793   C794    1.413   .     S
C794   O814    1.296   .     A
C794   O867    1.269   .     S
C795   O816    1.295   .     A
C795   C797    1.426   .     S
C795   O869    1.278   .     S
C798   C331    1.380   1_556 S
C798   H910    1.085   1_455 S
C799   H807    1.085   .     S
C799   C800    1.393   .     A
C800   C824    1.480   .     S
H801   C893    1.082   1_455 S
H802   C481    1.089   1_565 S
H803   N808    1.029   .     S
H804   C328    1.083   1_556 S
H806   C850    1.085   .     S
N808   N809    1.286   .     D
N808   Zn819   2.013   .     S
N809   Zn818   2.013   .     S
N809   C820    1.413   .     S
O810   Zn818   1.970   .     S
O810   C833    1.281   .     S
O811   Zn819   1.992   .     S
O812   Zn818   2.005   .     S
O812   C844    1.308   .     S
O813   Zn819   1.994   .     S
O814   Zn818   1.992   .     S
O815   Zn819   1.970   .     S
O815   C898    1.269   1_455 S
O816   Zn818   1.994   .     S
O817   Zn819   2.005   .     S
O817   C899    1.278   1_455 S
C820   H821    1.087   .     S
C820   O822    1.214   .     D
C824   H825    1.083   .     S
C824   O826    1.222   .     D
C827   H828    1.082   .     S
C827   O829    1.224   .     D
C830   O832    1.227   .     D
H831   C518    1.098   1_565 S
C833   O863    1.282   .     A
C833   C843    1.412   .     S
C834   C835    1.421   .     A
C834   C368    1.417   1_556 S
C834   C384    1.428   1_556 S
C835   C842    1.439   .     A
C835   C839    1.445   .     A
C836   C840    1.389   .     A
C837   C838    1.377   .     A
C837   C368    1.418   1_556 S
C837   C380    1.402   1_556 S
C838   C839    1.392   .     A
C838   H875    1.085   .     S
C839   C879    1.468   .     S
C840   C849    1.386   .     A
C840   H857    1.085   .     S
C841   C848    1.382   .     A
C841   C849    1.395   .     A
C841   H905    1.082   .     S
C842   C844    1.465   .     S
C842   C850    1.401   .     A
C843   C481    1.354   1_565 S
C843   C570    1.503   1_565 S
C844   O865    1.282   .     A
C845   C846    1.413   .     S
C846   O866    1.296   .     A
C846   O919    1.269   .     S
C847   O868    1.295   .     A
C847   C849    1.426   .     S
C847   O921    1.278   .     S
C850   C383    1.380   1_556 S
C851   H859    1.085   .     S
C851   C852    1.393   .     A
C852   C876    1.480   .     S
H854   C533    1.089   1_565 S
H855   N860    1.029   .     S
H856   C380    1.083   1_556 S
H858   C902    1.085   .     S
N860   N861    1.286   .     D
N860   Zn871   2.013   .     S
N861   Zn870   2.013   .     S
N861   C872    1.413   .     S
O862   Zn870   1.970   .     S
O862   C885    1.281   .     S
O863   Zn871   1.992   .     S
O864   Zn870   2.005   .     S
O864   C896    1.308   .     S
O865   Zn871   1.994   .     S
O866   Zn870   1.992   .     S
O867   Zn871   1.970   .     S
O868   Zn870   1.994   .     S
O869   Zn871   2.005   .     S
C872   H873    1.087   .     S
C872   O874    1.214   .     D
C876   H877    1.083   .     S
C876   O878    1.222   .     D
C879   H880    1.082   .     S
C879   O881    1.224   .     D
C882   O884    1.227   .     D
H883   C570    1.098   1_565 S
C885   O915    1.282   .     A
C885   C895    1.412   .     S
C886   C887    1.421   .     A
C886   C420    1.417   1_556 S
C886   C436    1.428   1_556 S
C887   C894    1.439   .     A
C887   C891    1.445   .     A
C888   C892    1.389   .     A
C889   C890    1.377   .     A
C889   C420    1.418   1_556 S
C889   C432    1.402   1_556 S
C890   C891    1.392   .     A
C890   H927    1.085   .     S
C891   C931    1.468   .     S
C892   C901    1.386   .     A
C892   H909    1.085   .     S
C893   C900    1.382   .     A
C893   C901    1.395   .     A
C893   H801    1.082   1_655 S
C894   C896    1.465   .     S
C894   C902    1.401   .     A
C895   C533    1.354   1_565 S
C895   C622    1.503   1_565 S
C896   O917    1.282   .     A
C897   C898    1.413   .     S
C897   C635    1.354   1_655 S
C898   O918    1.296   .     A
C898   O815    1.269   1_655 S
C899   O920    1.295   .     A
C899   C901    1.426   .     S
C899   O817    1.278   1_655 S
C902   C435    1.380   1_556 S
C903   H911    1.085   .     S
C903   C904    1.393   .     A
C904   C928    1.480   .     S
H906   C585    1.089   1_565 S
H907   N912    1.029   .     S
H908   C432    1.083   1_556 S
H910   C798    1.085   1_655 S
N912   N913    1.286   .     D
N912   Zn923   2.013   .     S
N913   Zn922   2.013   .     S
N913   C924    1.413   .     S
O914   Zn922   1.970   .     S
O914   C781    1.281   1_655 S
O915   Zn923   1.992   .     S
O916   Zn922   2.005   .     S
O916   C792    1.308   1_655 S
O917   Zn923   1.994   .     S
O918   Zn922   1.992   .     S
O919   Zn923   1.970   .     S
O920   Zn922   1.994   .     S
O921   Zn923   2.005   .     S
C924   H925    1.087   .     S
C924   O926    1.214   .     D
C928   H929    1.083   .     S
C928   O930    1.222   .     D
C931   H932    1.082   .     S
C931   O933    1.224   .     D
C934   O936    1.227   .     D
H935   C622    1.098   1_565 S
