data_str_m2_o1_o18_pcu_sym.43
_audit_creation_date              2020-01-03
_audit_creation_method            'Materials Studio'
_symmetry_space_group_name_H-M    'P1'
_symmetry_Int_Tables_number       1
_symmetry_cell_setting            triclinic
loop_
_symmetry_equiv_pos_as_xyz
  x,y,z
_cell_length_a                    28.5260
_cell_length_b                    32.5020
_cell_length_c                    30.8971
_cell_angle_alpha                 89.8560
_cell_angle_beta                  74.9999
_cell_angle_gamma                 90.0106
loop_
_atom_site_label
_atom_site_type_symbol
_atom_site_fract_x
_atom_site_fract_y
_atom_site_fract_z
_atom_site_U_iso_or_equiv
_atom_site_adp_type
_atom_site_occupancy
O1     O     0.03958   0.10655   0.25000   0.00000  Uiso   1.00
O2     O     0.29375   0.22678   0.25000   0.00000  Uiso   1.00
O3     O     0.29372   0.10654   0.25001   0.00000  Uiso   1.00
O4     O     0.03961   0.22679   0.25000   0.00000  Uiso   1.00
C5     C     0.33331   0.08735   0.25004   0.00000  Uiso   1.00
C6     C     0.00003   0.24599   0.24996   0.00000  Uiso   1.00
O7     O     0.01852   0.16668   0.31492   0.00000  Uiso   1.00
O8     O     0.31481   0.16666   0.18509   0.00000  Uiso   1.00
O9     O     0.27267   0.16667   0.31492   0.00000  Uiso   1.00
O10    O     0.06067   0.16667   0.18508   0.00000  Uiso   1.00
C11    C     0.30640   0.16653   0.33628   0.00000  Uiso   1.00
C12    C     0.02693   0.16680   0.16372   0.00000  Uiso   1.00
Cu13   Cu    0.04689   0.16667   0.25000   0.00000  Uiso   1.00
Cu14   Cu    0.28645   0.16666   0.25000   0.00000  Uiso   1.00
C15    C     0.29217   0.16437   0.38577   0.00000  Uiso   1.00
C16    C     0.04116   0.16895   0.11423   0.00000  Uiso   1.00
C17    C     0.30659   0.14478   0.45697   0.00000  Uiso   1.00
C18    C     0.02673   0.18849   0.04302   0.00000  Uiso   1.00
C19    C     0.32468   0.15258   0.41125   0.00000  Uiso   1.00
C20    C     0.00865   0.18071   0.08875   0.00000  Uiso   1.00
C21    C     0.24320   0.17106   0.40756   0.00000  Uiso   1.00
C22    C     0.09013   0.16227   0.09244   0.00000  Uiso   1.00
C23    C     0.22480   0.16475   0.45395   0.00000  Uiso   1.00
C24    C     0.10853   0.16855   0.04605   0.00000  Uiso   1.00
C25    C     0.25736   0.15040   0.47822   0.00000  Uiso   1.00
C26    C     0.07596   0.18288   0.02177   0.00000  Uiso   1.00
C27    C     0.17492   0.17121   0.47663   0.00000  Uiso   1.00
C28    C     0.15840   0.16208   0.02336   0.00000  Uiso   1.00
C29    C     0.19225   0.14660   0.04570   0.00000  Uiso   1.00
C30    C     0.14107   0.18667   0.45428   0.00000  Uiso   1.00
C31    C     0.24067   0.14131   0.02355   0.00000  Uiso   1.00
C32    C     0.09265   0.19196   0.47644   0.00000  Uiso   1.00
H33    H     0.26528   0.12942   0.04202   0.00000  Uiso   1.00
H34    H     0.06803   0.20383   0.45796   0.00000  Uiso   1.00
H35    H     0.11347   0.15311   0.11299   0.00000  Uiso   1.00
H36    H     0.21988   0.18026   0.38702   0.00000  Uiso   1.00
H37    H     0.33135   0.13444   0.47610   0.00000  Uiso   1.00
H38    H     0.00196   0.19881   0.02389   0.00000  Uiso   1.00
H39    H     0.18281   0.13778   0.08044   0.00000  Uiso   1.00
H40    H     0.15049   0.19547   0.41954   0.00000  Uiso   1.00
C41    C     0.29078   0.02127   0.24981   0.00000  Uiso   1.00
C42    C     0.04255   0.31206   0.25019   0.00000  Uiso   1.00
H43    H     0.25751   0.03727   0.24966   0.00000  Uiso   1.00
H44    H     0.07582   0.29606   0.25034   0.00000  Uiso   1.00
C45    C     0.29081   0.31204   0.24975   0.00000  Uiso   1.00
C46    C     0.04253   0.02129   0.25025   0.00000  Uiso   1.00
H47    H     0.25756   0.29602   0.24954   0.00000  Uiso   1.00
H48    H     0.07577   0.03731   0.25046   0.00000  Uiso   1.00
C49    C     0.00002   0.29060   0.24995   0.00000  Uiso   1.00
C50    C     0.33331   0.04274   0.25005   0.00000  Uiso   1.00
C51    C     0.18378   0.14059   0.27734   0.00000  Uiso   1.00
C52    C     0.14956   0.19274   0.22266   0.00000  Uiso   1.00
H53    H     0.19632   0.11969   0.29923   0.00000  Uiso   1.00
H54    H     0.13701   0.21364   0.20077   0.00000  Uiso   1.00
C55    C     0.13416   0.14059   0.27731   0.00000  Uiso   1.00
C56    C     0.19918   0.19274   0.22269   0.00000  Uiso   1.00
H57    H     0.10928   0.11969   0.29914   0.00000  Uiso   1.00
H58    H     0.22406   0.21364   0.20086   0.00000  Uiso   1.00
N59    N     0.11736   0.16668   0.24999   0.00000  Uiso   1.00
N60    N     0.21597   0.16666   0.25001   0.00000  Uiso   1.00
N61    N     0.29092   0.18545   0.10838   0.00000  Uiso   1.00
O62    O     0.26508   0.15356   0.12555   0.00000  Uiso   1.00
O63    O     0.26885   0.21831   0.09978   0.00000  Uiso   1.00
N64    N     0.04241   0.14783   0.39161   0.00000  Uiso   1.00
O65    O     0.06826   0.17971   0.37445   0.00000  Uiso   1.00
O66    O     0.06446   0.11495   0.40021   0.00000  Uiso   1.00
O67    O     0.37291   0.10655   0.25000   0.00000  Uiso   1.00
O68    O     0.62709   0.22678   0.25000   0.00000  Uiso   1.00
O69    O     0.62706   0.10654   0.25001   0.00000  Uiso   1.00
O70    O     0.37294   0.22679   0.25000   0.00000  Uiso   1.00
C71    C     0.66664   0.08735   0.25004   0.00000  Uiso   1.00
C72    C     0.33336   0.24599   0.24996   0.00000  Uiso   1.00
O73    O     0.35186   0.16668   0.31492   0.00000  Uiso   1.00
O74    O     0.64814   0.16666   0.18509   0.00000  Uiso   1.00
O75    O     0.60600   0.16667   0.31492   0.00000  Uiso   1.00
O76    O     0.39400   0.16667   0.18508   0.00000  Uiso   1.00
C77    C     0.63973   0.16653   0.33628   0.00000  Uiso   1.00
C78    C     0.36027   0.16680   0.16372   0.00000  Uiso   1.00
Cu79   Cu    0.38022   0.16667   0.25000   0.00000  Uiso   1.00
Cu80   Cu    0.61978   0.16666   0.25000   0.00000  Uiso   1.00
C81    C     0.62551   0.16437   0.38577   0.00000  Uiso   1.00
C82    C     0.37449   0.16895   0.11423   0.00000  Uiso   1.00
C83    C     0.63993   0.14478   0.45697   0.00000  Uiso   1.00
C84    C     0.36006   0.18849   0.04302   0.00000  Uiso   1.00
C85    C     0.65801   0.15258   0.41125   0.00000  Uiso   1.00
C86    C     0.34198   0.18071   0.08875   0.00000  Uiso   1.00
C87    C     0.57654   0.17106   0.40756   0.00000  Uiso   1.00
C88    C     0.42347   0.16227   0.09244   0.00000  Uiso   1.00
C89    C     0.55813   0.16475   0.45395   0.00000  Uiso   1.00
C90    C     0.44186   0.16855   0.04605   0.00000  Uiso   1.00
C91    C     0.59070   0.15040   0.47822   0.00000  Uiso   1.00
C92    C     0.40929   0.18288   0.02177   0.00000  Uiso   1.00
C93    C     0.50826   0.17121   0.47663   0.00000  Uiso   1.00
C94    C     0.49173   0.16208   0.02336   0.00000  Uiso   1.00
C95    C     0.52558   0.14660   0.04570   0.00000  Uiso   1.00
C96    C     0.47440   0.18667   0.45428   0.00000  Uiso   1.00
C97    C     0.57400   0.14131   0.02355   0.00000  Uiso   1.00
C98    C     0.42598   0.19196   0.47644   0.00000  Uiso   1.00
H99    H     0.59862   0.12942   0.04202   0.00000  Uiso   1.00
H100   H     0.40136   0.20383   0.45796   0.00000  Uiso   1.00
H101   H     0.44680   0.15311   0.11299   0.00000  Uiso   1.00
H102   H     0.55322   0.18026   0.38702   0.00000  Uiso   1.00
H103   H     0.66468   0.13444   0.47610   0.00000  Uiso   1.00
H104   H     0.33530   0.19881   0.02389   0.00000  Uiso   1.00
H105   H     0.51615   0.13778   0.08044   0.00000  Uiso   1.00
H106   H     0.48383   0.19547   0.41954   0.00000  Uiso   1.00
C107   C     0.62411   0.02127   0.24981   0.00000  Uiso   1.00
C108   C     0.37589   0.31206   0.25019   0.00000  Uiso   1.00
H109   H     0.59085   0.03727   0.24966   0.00000  Uiso   1.00
H110   H     0.40915   0.29606   0.25034   0.00000  Uiso   1.00
C111   C     0.62414   0.31204   0.24975   0.00000  Uiso   1.00
C112   C     0.37586   0.02129   0.25025   0.00000  Uiso   1.00
H113   H     0.59089   0.29602   0.24954   0.00000  Uiso   1.00
H114   H     0.40911   0.03731   0.25046   0.00000  Uiso   1.00
C115   C     0.33336   0.29060   0.24995   0.00000  Uiso   1.00
C116   C     0.66665   0.04274   0.25005   0.00000  Uiso   1.00
C117   C     0.51711   0.14059   0.27734   0.00000  Uiso   1.00
C118   C     0.48289   0.19274   0.22266   0.00000  Uiso   1.00
H119   H     0.52966   0.11969   0.29923   0.00000  Uiso   1.00
H120   H     0.47034   0.21364   0.20077   0.00000  Uiso   1.00
C121   C     0.46749   0.14059   0.27731   0.00000  Uiso   1.00
C122   C     0.53251   0.19274   0.22269   0.00000  Uiso   1.00
H123   H     0.44261   0.11969   0.29914   0.00000  Uiso   1.00
H124   H     0.55739   0.21364   0.20086   0.00000  Uiso   1.00
N125   N     0.45069   0.16668   0.24999   0.00000  Uiso   1.00
N126   N     0.54931   0.16666   0.25001   0.00000  Uiso   1.00
N127   N     0.62425   0.18545   0.10838   0.00000  Uiso   1.00
O128   O     0.59841   0.15356   0.12555   0.00000  Uiso   1.00
O129   O     0.60218   0.21831   0.09978   0.00000  Uiso   1.00
N130   N     0.37574   0.14783   0.39161   0.00000  Uiso   1.00
O131   O     0.40159   0.17971   0.37445   0.00000  Uiso   1.00
O132   O     0.39779   0.11495   0.40021   0.00000  Uiso   1.00
O133   O     0.70625   0.10655   0.25000   0.00000  Uiso   1.00
O134   O     0.96042   0.22678   0.25000   0.00000  Uiso   1.00
O135   O     0.96039   0.10654   0.25001   0.00000  Uiso   1.00
O136   O     0.70628   0.22679   0.25000   0.00000  Uiso   1.00
C137   C     0.99998   0.08735   0.25004   0.00000  Uiso   1.00
C138   C     0.66669   0.24599   0.24996   0.00000  Uiso   1.00
O139   O     0.68519   0.16668   0.31492   0.00000  Uiso   1.00
O140   O     0.98148   0.16666   0.18509   0.00000  Uiso   1.00
O141   O     0.93933   0.16667   0.31492   0.00000  Uiso   1.00
O142   O     0.72733   0.16667   0.18508   0.00000  Uiso   1.00
C143   C     0.97307   0.16653   0.33628   0.00000  Uiso   1.00
C144   C     0.69360   0.16680   0.16372   0.00000  Uiso   1.00
Cu145  Cu    0.71355   0.16667   0.25000   0.00000  Uiso   1.00
Cu146  Cu    0.95311   0.16666   0.25000   0.00000  Uiso   1.00
C147   C     0.95884   0.16437   0.38577   0.00000  Uiso   1.00
C148   C     0.70783   0.16895   0.11423   0.00000  Uiso   1.00
C149   C     0.97326   0.14478   0.45697   0.00000  Uiso   1.00
C150   C     0.69339   0.18849   0.04302   0.00000  Uiso   1.00
C151   C     0.99135   0.15258   0.41125   0.00000  Uiso   1.00
C152   C     0.67531   0.18071   0.08875   0.00000  Uiso   1.00
C153   C     0.90987   0.17106   0.40756   0.00000  Uiso   1.00
C154   C     0.75680   0.16227   0.09244   0.00000  Uiso   1.00
C155   C     0.89146   0.16475   0.45395   0.00000  Uiso   1.00
C156   C     0.77520   0.16855   0.04605   0.00000  Uiso   1.00
C157   C     0.92403   0.15040   0.47822   0.00000  Uiso   1.00
C158   C     0.74262   0.18288   0.02177   0.00000  Uiso   1.00
C159   C     0.84159   0.17121   0.47663   0.00000  Uiso   1.00
C160   C     0.82507   0.16208   0.02336   0.00000  Uiso   1.00
C161   C     0.85891   0.14660   0.04570   0.00000  Uiso   1.00
C162   C     0.80774   0.18667   0.45428   0.00000  Uiso   1.00
C163   C     0.90733   0.14131   0.02355   0.00000  Uiso   1.00
C164   C     0.75931   0.19196   0.47644   0.00000  Uiso   1.00
H165   H     0.93195   0.12942   0.04202   0.00000  Uiso   1.00
H166   H     0.73469   0.20383   0.45796   0.00000  Uiso   1.00
H167   H     0.78013   0.15311   0.11299   0.00000  Uiso   1.00
H168   H     0.88655   0.18026   0.38702   0.00000  Uiso   1.00
H169   H     0.99802   0.13444   0.47610   0.00000  Uiso   1.00
H170   H     0.66863   0.19881   0.02389   0.00000  Uiso   1.00
H171   H     0.84948   0.13778   0.08044   0.00000  Uiso   1.00
H172   H     0.81716   0.19547   0.41954   0.00000  Uiso   1.00
C173   C     0.95745   0.02127   0.24981   0.00000  Uiso   1.00
C174   C     0.70922   0.31206   0.25019   0.00000  Uiso   1.00
H175   H     0.92418   0.03727   0.24966   0.00000  Uiso   1.00
H176   H     0.74249   0.29606   0.25034   0.00000  Uiso   1.00
C177   C     0.95747   0.31204   0.24975   0.00000  Uiso   1.00
C178   C     0.70919   0.02129   0.25025   0.00000  Uiso   1.00
H179   H     0.92423   0.29602   0.24954   0.00000  Uiso   1.00
H180   H     0.74244   0.03731   0.25046   0.00000  Uiso   1.00
C181   C     0.66669   0.29060   0.24995   0.00000  Uiso   1.00
C182   C     0.99998   0.04274   0.25005   0.00000  Uiso   1.00
C183   C     0.85044   0.14059   0.27734   0.00000  Uiso   1.00
C184   C     0.81622   0.19274   0.22266   0.00000  Uiso   1.00
H185   H     0.86299   0.11969   0.29923   0.00000  Uiso   1.00
H186   H     0.80368   0.21364   0.20077   0.00000  Uiso   1.00
C187   C     0.80082   0.14059   0.27731   0.00000  Uiso   1.00
C188   C     0.86584   0.19274   0.22269   0.00000  Uiso   1.00
H189   H     0.77594   0.11969   0.29914   0.00000  Uiso   1.00
H190   H     0.89073   0.21364   0.20086   0.00000  Uiso   1.00
N191   N     0.78403   0.16668   0.24999   0.00000  Uiso   1.00
N192   N     0.88264   0.16666   0.25001   0.00000  Uiso   1.00
N193   N     0.95758   0.18545   0.10838   0.00000  Uiso   1.00
O194   O     0.93174   0.15356   0.12555   0.00000  Uiso   1.00
O195   O     0.93552   0.21831   0.09978   0.00000  Uiso   1.00
N196   N     0.70907   0.14783   0.39161   0.00000  Uiso   1.00
O197   O     0.73493   0.17971   0.37445   0.00000  Uiso   1.00
O198   O     0.73112   0.11495   0.40021   0.00000  Uiso   1.00
O199   O     0.03958   0.43989   0.25000   0.00000  Uiso   1.00
O200   O     0.29375   0.56011   0.25000   0.00000  Uiso   1.00
O201   O     0.29372   0.43988   0.25001   0.00000  Uiso   1.00
O202   O     0.03961   0.56012   0.25000   0.00000  Uiso   1.00
C203   C     0.33331   0.42068   0.25004   0.00000  Uiso   1.00
C204   C     0.00003   0.57932   0.24996   0.00000  Uiso   1.00
O205   O     0.01852   0.50001   0.31492   0.00000  Uiso   1.00
O206   O     0.31481   0.49999   0.18509   0.00000  Uiso   1.00
O207   O     0.27267   0.50000   0.31492   0.00000  Uiso   1.00
O208   O     0.06067   0.50000   0.18508   0.00000  Uiso   1.00
C209   C     0.30640   0.49986   0.33628   0.00000  Uiso   1.00
C210   C     0.02693   0.50014   0.16372   0.00000  Uiso   1.00
Cu211  Cu    0.04689   0.50001   0.25000   0.00000  Uiso   1.00
Cu212  Cu    0.28645   0.49999   0.25000   0.00000  Uiso   1.00
C213   C     0.29217   0.49770   0.38577   0.00000  Uiso   1.00
C214   C     0.04116   0.50228   0.11423   0.00000  Uiso   1.00
C215   C     0.30659   0.47812   0.45697   0.00000  Uiso   1.00
C216   C     0.02673   0.52183   0.04302   0.00000  Uiso   1.00
C217   C     0.32468   0.48592   0.41125   0.00000  Uiso   1.00
C218   C     0.00865   0.51404   0.08875   0.00000  Uiso   1.00
C219   C     0.24320   0.50440   0.40756   0.00000  Uiso   1.00
C220   C     0.09013   0.49560   0.09244   0.00000  Uiso   1.00
C221   C     0.22480   0.49809   0.45395   0.00000  Uiso   1.00
C222   C     0.10853   0.50188   0.04605   0.00000  Uiso   1.00
C223   C     0.25736   0.48373   0.47822   0.00000  Uiso   1.00
C224   C     0.07596   0.51621   0.02177   0.00000  Uiso   1.00
C225   C     0.17492   0.50455   0.47663   0.00000  Uiso   1.00
C226   C     0.15840   0.49541   0.02336   0.00000  Uiso   1.00
C227   C     0.19225   0.47994   0.04570   0.00000  Uiso   1.00
C228   C     0.14107   0.52000   0.45428   0.00000  Uiso   1.00
C229   C     0.24067   0.47464   0.02355   0.00000  Uiso   1.00
C230   C     0.09265   0.52529   0.47644   0.00000  Uiso   1.00
H231   H     0.26528   0.46275   0.04202   0.00000  Uiso   1.00
H232   H     0.06803   0.53716   0.45796   0.00000  Uiso   1.00
H233   H     0.11347   0.48645   0.11299   0.00000  Uiso   1.00
H234   H     0.21988   0.51359   0.38702   0.00000  Uiso   1.00
H235   H     0.33135   0.46778   0.47610   0.00000  Uiso   1.00
H236   H     0.00196   0.53215   0.02389   0.00000  Uiso   1.00
H237   H     0.18281   0.47111   0.08044   0.00000  Uiso   1.00
H238   H     0.15049   0.52880   0.41954   0.00000  Uiso   1.00
C239   C     0.29078   0.35460   0.24981   0.00000  Uiso   1.00
C240   C     0.04255   0.64540   0.25019   0.00000  Uiso   1.00
H241   H     0.25751   0.37061   0.24966   0.00000  Uiso   1.00
H242   H     0.07582   0.62939   0.25034   0.00000  Uiso   1.00
C243   C     0.29081   0.64537   0.24975   0.00000  Uiso   1.00
C244   C     0.04253   0.35463   0.25025   0.00000  Uiso   1.00
H245   H     0.25756   0.62935   0.24954   0.00000  Uiso   1.00
H246   H     0.07577   0.37065   0.25046   0.00000  Uiso   1.00
C247   C     0.00002   0.62393   0.24995   0.00000  Uiso   1.00
C248   C     0.33331   0.37607   0.25005   0.00000  Uiso   1.00
C249   C     0.18378   0.47392   0.27734   0.00000  Uiso   1.00
C250   C     0.14956   0.52608   0.22266   0.00000  Uiso   1.00
H251   H     0.19632   0.45302   0.29923   0.00000  Uiso   1.00
H252   H     0.13701   0.54698   0.20077   0.00000  Uiso   1.00
C253   C     0.13416   0.47392   0.27731   0.00000  Uiso   1.00
C254   C     0.19918   0.52608   0.22269   0.00000  Uiso   1.00
H255   H     0.10928   0.45302   0.29914   0.00000  Uiso   1.00
H256   H     0.22406   0.54698   0.20086   0.00000  Uiso   1.00
N257   N     0.11736   0.50001   0.24999   0.00000  Uiso   1.00
N258   N     0.21597   0.49999   0.25001   0.00000  Uiso   1.00
N259   N     0.29092   0.51878   0.10838   0.00000  Uiso   1.00
O260   O     0.26508   0.48689   0.12555   0.00000  Uiso   1.00
O261   O     0.26885   0.55165   0.09978   0.00000  Uiso   1.00
N262   N     0.04241   0.48116   0.39161   0.00000  Uiso   1.00
O263   O     0.06826   0.51304   0.37445   0.00000  Uiso   1.00
O264   O     0.06446   0.44829   0.40021   0.00000  Uiso   1.00
O265   O     0.37291   0.43989   0.25000   0.00000  Uiso   1.00
O266   O     0.62709   0.56011   0.25000   0.00000  Uiso   1.00
O267   O     0.62706   0.43988   0.25001   0.00000  Uiso   1.00
O268   O     0.37294   0.56012   0.25000   0.00000  Uiso   1.00
C269   C     0.66664   0.42068   0.25004   0.00000  Uiso   1.00
C270   C     0.33336   0.57932   0.24996   0.00000  Uiso   1.00
O271   O     0.35186   0.50001   0.31492   0.00000  Uiso   1.00
O272   O     0.64814   0.49999   0.18509   0.00000  Uiso   1.00
O273   O     0.60600   0.50000   0.31492   0.00000  Uiso   1.00
O274   O     0.39400   0.50000   0.18508   0.00000  Uiso   1.00
C275   C     0.63973   0.49986   0.33628   0.00000  Uiso   1.00
C276   C     0.36027   0.50014   0.16372   0.00000  Uiso   1.00
Cu277  Cu    0.38022   0.50001   0.25000   0.00000  Uiso   1.00
Cu278  Cu    0.61978   0.49999   0.25000   0.00000  Uiso   1.00
C279   C     0.62551   0.49770   0.38577   0.00000  Uiso   1.00
C280   C     0.37449   0.50228   0.11423   0.00000  Uiso   1.00
C281   C     0.63993   0.47812   0.45697   0.00000  Uiso   1.00
C282   C     0.36006   0.52183   0.04302   0.00000  Uiso   1.00
C283   C     0.65801   0.48592   0.41125   0.00000  Uiso   1.00
C284   C     0.34198   0.51404   0.08875   0.00000  Uiso   1.00
C285   C     0.57654   0.50440   0.40756   0.00000  Uiso   1.00
C286   C     0.42347   0.49560   0.09244   0.00000  Uiso   1.00
C287   C     0.55813   0.49809   0.45395   0.00000  Uiso   1.00
C288   C     0.44186   0.50188   0.04605   0.00000  Uiso   1.00
C289   C     0.59070   0.48373   0.47822   0.00000  Uiso   1.00
C290   C     0.40929   0.51621   0.02177   0.00000  Uiso   1.00
C291   C     0.50826   0.50455   0.47663   0.00000  Uiso   1.00
C292   C     0.49173   0.49541   0.02336   0.00000  Uiso   1.00
C293   C     0.52558   0.47994   0.04570   0.00000  Uiso   1.00
C294   C     0.47440   0.52000   0.45428   0.00000  Uiso   1.00
C295   C     0.57400   0.47464   0.02355   0.00000  Uiso   1.00
C296   C     0.42598   0.52529   0.47644   0.00000  Uiso   1.00
H297   H     0.59862   0.46275   0.04202   0.00000  Uiso   1.00
H298   H     0.40136   0.53716   0.45796   0.00000  Uiso   1.00
H299   H     0.44680   0.48645   0.11299   0.00000  Uiso   1.00
H300   H     0.55322   0.51359   0.38702   0.00000  Uiso   1.00
H301   H     0.66468   0.46778   0.47610   0.00000  Uiso   1.00
H302   H     0.33530   0.53215   0.02389   0.00000  Uiso   1.00
H303   H     0.51615   0.47111   0.08044   0.00000  Uiso   1.00
H304   H     0.48383   0.52880   0.41954   0.00000  Uiso   1.00
C305   C     0.62411   0.35460   0.24981   0.00000  Uiso   1.00
C306   C     0.37589   0.64540   0.25019   0.00000  Uiso   1.00
H307   H     0.59085   0.37061   0.24966   0.00000  Uiso   1.00
H308   H     0.40915   0.62939   0.25034   0.00000  Uiso   1.00
C309   C     0.62414   0.64537   0.24975   0.00000  Uiso   1.00
C310   C     0.37586   0.35463   0.25025   0.00000  Uiso   1.00
H311   H     0.59089   0.62935   0.24954   0.00000  Uiso   1.00
H312   H     0.40911   0.37065   0.25046   0.00000  Uiso   1.00
C313   C     0.33336   0.62393   0.24995   0.00000  Uiso   1.00
C314   C     0.66665   0.37607   0.25005   0.00000  Uiso   1.00
C315   C     0.51711   0.47392   0.27734   0.00000  Uiso   1.00
C316   C     0.48289   0.52608   0.22266   0.00000  Uiso   1.00
H317   H     0.52966   0.45302   0.29923   0.00000  Uiso   1.00
H318   H     0.47034   0.54698   0.20077   0.00000  Uiso   1.00
C319   C     0.46749   0.47392   0.27731   0.00000  Uiso   1.00
C320   C     0.53251   0.52608   0.22269   0.00000  Uiso   1.00
H321   H     0.44261   0.45302   0.29914   0.00000  Uiso   1.00
H322   H     0.55739   0.54698   0.20086   0.00000  Uiso   1.00
N323   N     0.45069   0.50001   0.24999   0.00000  Uiso   1.00
N324   N     0.54931   0.49999   0.25001   0.00000  Uiso   1.00
N325   N     0.62425   0.51878   0.10838   0.00000  Uiso   1.00
O326   O     0.59841   0.48689   0.12555   0.00000  Uiso   1.00
O327   O     0.60218   0.55165   0.09978   0.00000  Uiso   1.00
N328   N     0.37574   0.48116   0.39161   0.00000  Uiso   1.00
O329   O     0.40159   0.51304   0.37445   0.00000  Uiso   1.00
O330   O     0.39779   0.44829   0.40021   0.00000  Uiso   1.00
O331   O     0.70625   0.43989   0.25000   0.00000  Uiso   1.00
O332   O     0.96042   0.56011   0.25000   0.00000  Uiso   1.00
O333   O     0.96039   0.43988   0.25001   0.00000  Uiso   1.00
O334   O     0.70628   0.56012   0.25000   0.00000  Uiso   1.00
C335   C     0.99998   0.42068   0.25004   0.00000  Uiso   1.00
C336   C     0.66669   0.57932   0.24996   0.00000  Uiso   1.00
O337   O     0.68519   0.50001   0.31492   0.00000  Uiso   1.00
O338   O     0.98148   0.49999   0.18509   0.00000  Uiso   1.00
O339   O     0.93933   0.50000   0.31492   0.00000  Uiso   1.00
O340   O     0.72733   0.50000   0.18508   0.00000  Uiso   1.00
C341   C     0.97307   0.49986   0.33628   0.00000  Uiso   1.00
C342   C     0.69360   0.50014   0.16372   0.00000  Uiso   1.00
Cu343  Cu    0.71355   0.50001   0.25000   0.00000  Uiso   1.00
Cu344  Cu    0.95311   0.49999   0.25000   0.00000  Uiso   1.00
C345   C     0.95884   0.49770   0.38577   0.00000  Uiso   1.00
C346   C     0.70783   0.50228   0.11423   0.00000  Uiso   1.00
C347   C     0.97326   0.47812   0.45697   0.00000  Uiso   1.00
C348   C     0.69339   0.52183   0.04302   0.00000  Uiso   1.00
C349   C     0.99135   0.48592   0.41125   0.00000  Uiso   1.00
C350   C     0.67531   0.51404   0.08875   0.00000  Uiso   1.00
C351   C     0.90987   0.50440   0.40756   0.00000  Uiso   1.00
C352   C     0.75680   0.49560   0.09244   0.00000  Uiso   1.00
C353   C     0.89146   0.49809   0.45395   0.00000  Uiso   1.00
C354   C     0.77520   0.50188   0.04605   0.00000  Uiso   1.00
C355   C     0.92403   0.48373   0.47822   0.00000  Uiso   1.00
C356   C     0.74262   0.51621   0.02177   0.00000  Uiso   1.00
C357   C     0.84159   0.50455   0.47663   0.00000  Uiso   1.00
C358   C     0.82507   0.49541   0.02336   0.00000  Uiso   1.00
C359   C     0.85891   0.47994   0.04570   0.00000  Uiso   1.00
C360   C     0.80774   0.52000   0.45428   0.00000  Uiso   1.00
C361   C     0.90733   0.47464   0.02355   0.00000  Uiso   1.00
C362   C     0.75931   0.52529   0.47644   0.00000  Uiso   1.00
H363   H     0.93195   0.46275   0.04202   0.00000  Uiso   1.00
H364   H     0.73469   0.53716   0.45796   0.00000  Uiso   1.00
H365   H     0.78013   0.48645   0.11299   0.00000  Uiso   1.00
H366   H     0.88655   0.51359   0.38702   0.00000  Uiso   1.00
H367   H     0.99802   0.46778   0.47610   0.00000  Uiso   1.00
H368   H     0.66863   0.53215   0.02389   0.00000  Uiso   1.00
H369   H     0.84948   0.47111   0.08044   0.00000  Uiso   1.00
H370   H     0.81716   0.52880   0.41954   0.00000  Uiso   1.00
C371   C     0.95745   0.35460   0.24981   0.00000  Uiso   1.00
C372   C     0.70922   0.64540   0.25019   0.00000  Uiso   1.00
H373   H     0.92418   0.37061   0.24966   0.00000  Uiso   1.00
H374   H     0.74249   0.62939   0.25034   0.00000  Uiso   1.00
C375   C     0.95747   0.64537   0.24975   0.00000  Uiso   1.00
C376   C     0.70919   0.35463   0.25025   0.00000  Uiso   1.00
H377   H     0.92423   0.62935   0.24954   0.00000  Uiso   1.00
H378   H     0.74244   0.37065   0.25046   0.00000  Uiso   1.00
C379   C     0.66669   0.62393   0.24995   0.00000  Uiso   1.00
C380   C     0.99998   0.37607   0.25005   0.00000  Uiso   1.00
C381   C     0.85044   0.47392   0.27734   0.00000  Uiso   1.00
C382   C     0.81622   0.52608   0.22266   0.00000  Uiso   1.00
H383   H     0.86299   0.45302   0.29923   0.00000  Uiso   1.00
H384   H     0.80368   0.54698   0.20077   0.00000  Uiso   1.00
C385   C     0.80082   0.47392   0.27731   0.00000  Uiso   1.00
C386   C     0.86584   0.52608   0.22269   0.00000  Uiso   1.00
H387   H     0.77594   0.45302   0.29914   0.00000  Uiso   1.00
H388   H     0.89073   0.54698   0.20086   0.00000  Uiso   1.00
N389   N     0.78403   0.50001   0.24999   0.00000  Uiso   1.00
N390   N     0.88264   0.49999   0.25001   0.00000  Uiso   1.00
N391   N     0.95758   0.51878   0.10838   0.00000  Uiso   1.00
O392   O     0.93174   0.48689   0.12555   0.00000  Uiso   1.00
O393   O     0.93552   0.55165   0.09978   0.00000  Uiso   1.00
N394   N     0.70907   0.48116   0.39161   0.00000  Uiso   1.00
O395   O     0.73493   0.51304   0.37445   0.00000  Uiso   1.00
O396   O     0.73112   0.44829   0.40021   0.00000  Uiso   1.00
O397   O     0.03958   0.77322   0.25000   0.00000  Uiso   1.00
O398   O     0.29375   0.89345   0.25000   0.00000  Uiso   1.00
O399   O     0.29372   0.77321   0.25001   0.00000  Uiso   1.00
O400   O     0.03961   0.89346   0.25000   0.00000  Uiso   1.00
C401   C     0.33331   0.75401   0.25004   0.00000  Uiso   1.00
C402   C     0.00003   0.91265   0.24996   0.00000  Uiso   1.00
O403   O     0.01852   0.83334   0.31492   0.00000  Uiso   1.00
O404   O     0.31481   0.83332   0.18509   0.00000  Uiso   1.00
O405   O     0.27267   0.83333   0.31492   0.00000  Uiso   1.00
O406   O     0.06067   0.83333   0.18508   0.00000  Uiso   1.00
C407   C     0.30640   0.83319   0.33628   0.00000  Uiso   1.00
C408   C     0.02693   0.83347   0.16372   0.00000  Uiso   1.00
Cu409  Cu    0.04689   0.83334   0.25000   0.00000  Uiso   1.00
Cu410  Cu    0.28645   0.83333   0.25000   0.00000  Uiso   1.00
C411   C     0.29217   0.83103   0.38577   0.00000  Uiso   1.00
C412   C     0.04116   0.83562   0.11423   0.00000  Uiso   1.00
C413   C     0.30659   0.81145   0.45697   0.00000  Uiso   1.00
C414   C     0.02673   0.85516   0.04302   0.00000  Uiso   1.00
C415   C     0.32468   0.81925   0.41125   0.00000  Uiso   1.00
C416   C     0.00865   0.84738   0.08875   0.00000  Uiso   1.00
C417   C     0.24320   0.83773   0.40756   0.00000  Uiso   1.00
C418   C     0.09013   0.82893   0.09244   0.00000  Uiso   1.00
C419   C     0.22480   0.83142   0.45395   0.00000  Uiso   1.00
C420   C     0.10853   0.83521   0.04605   0.00000  Uiso   1.00
C421   C     0.25736   0.81707   0.47822   0.00000  Uiso   1.00
C422   C     0.07596   0.84955   0.02177   0.00000  Uiso   1.00
C423   C     0.17492   0.83788   0.47663   0.00000  Uiso   1.00
C424   C     0.15840   0.82874   0.02336   0.00000  Uiso   1.00
C425   C     0.19225   0.81327   0.04570   0.00000  Uiso   1.00
C426   C     0.14107   0.85333   0.45428   0.00000  Uiso   1.00
C427   C     0.24067   0.80797   0.02355   0.00000  Uiso   1.00
C428   C     0.09265   0.85863   0.47644   0.00000  Uiso   1.00
H429   H     0.26528   0.79609   0.04202   0.00000  Uiso   1.00
H430   H     0.06803   0.87050   0.45796   0.00000  Uiso   1.00
H431   H     0.11347   0.81978   0.11299   0.00000  Uiso   1.00
H432   H     0.21988   0.84693   0.38702   0.00000  Uiso   1.00
H433   H     0.33135   0.80111   0.47610   0.00000  Uiso   1.00
H434   H     0.00196   0.86548   0.02389   0.00000  Uiso   1.00
H435   H     0.18281   0.80445   0.08044   0.00000  Uiso   1.00
H436   H     0.15049   0.86213   0.41954   0.00000  Uiso   1.00
C437   C     0.29078   0.68794   0.24981   0.00000  Uiso   1.00
C438   C     0.04255   0.97873   0.25019   0.00000  Uiso   1.00
H439   H     0.25751   0.70394   0.24966   0.00000  Uiso   1.00
H440   H     0.07582   0.96273   0.25034   0.00000  Uiso   1.00
C441   C     0.29081   0.97871   0.24975   0.00000  Uiso   1.00
C442   C     0.04253   0.68796   0.25025   0.00000  Uiso   1.00
H443   H     0.25756   0.96268   0.24954   0.00000  Uiso   1.00
H444   H     0.07577   0.70398   0.25046   0.00000  Uiso   1.00
C445   C     0.00002   0.95726   0.24995   0.00000  Uiso   1.00
C446   C     0.33331   0.70940   0.25005   0.00000  Uiso   1.00
C447   C     0.18378   0.80726   0.27734   0.00000  Uiso   1.00
C448   C     0.14956   0.85941   0.22266   0.00000  Uiso   1.00
H449   H     0.19632   0.78636   0.29923   0.00000  Uiso   1.00
H450   H     0.13701   0.88031   0.20077   0.00000  Uiso   1.00
C451   C     0.13416   0.80726   0.27731   0.00000  Uiso   1.00
C452   C     0.19918   0.85941   0.22269   0.00000  Uiso   1.00
H453   H     0.10928   0.78635   0.29914   0.00000  Uiso   1.00
H454   H     0.22406   0.88031   0.20086   0.00000  Uiso   1.00
N455   N     0.11736   0.83334   0.24999   0.00000  Uiso   1.00
N456   N     0.21597   0.83332   0.25001   0.00000  Uiso   1.00
N457   N     0.29092   0.85212   0.10838   0.00000  Uiso   1.00
O458   O     0.26508   0.82023   0.12555   0.00000  Uiso   1.00
O459   O     0.26885   0.88498   0.09978   0.00000  Uiso   1.00
N460   N     0.04241   0.81449   0.39161   0.00000  Uiso   1.00
O461   O     0.06826   0.84638   0.37445   0.00000  Uiso   1.00
O462   O     0.06446   0.78162   0.40021   0.00000  Uiso   1.00
O463   O     0.37291   0.77322   0.25000   0.00000  Uiso   1.00
O464   O     0.62709   0.89345   0.25000   0.00000  Uiso   1.00
O465   O     0.62706   0.77321   0.25001   0.00000  Uiso   1.00
O466   O     0.37294   0.89346   0.25000   0.00000  Uiso   1.00
C467   C     0.66664   0.75401   0.25004   0.00000  Uiso   1.00
C468   C     0.33336   0.91265   0.24996   0.00000  Uiso   1.00
O469   O     0.35186   0.83334   0.31492   0.00000  Uiso   1.00
O470   O     0.64814   0.83332   0.18509   0.00000  Uiso   1.00
O471   O     0.60600   0.83333   0.31492   0.00000  Uiso   1.00
O472   O     0.39400   0.83333   0.18508   0.00000  Uiso   1.00
C473   C     0.63973   0.83319   0.33628   0.00000  Uiso   1.00
C474   C     0.36027   0.83347   0.16372   0.00000  Uiso   1.00
Cu475  Cu    0.38022   0.83334   0.25000   0.00000  Uiso   1.00
Cu476  Cu    0.61978   0.83333   0.25000   0.00000  Uiso   1.00
C477   C     0.62551   0.83103   0.38577   0.00000  Uiso   1.00
C478   C     0.37449   0.83562   0.11423   0.00000  Uiso   1.00
C479   C     0.63993   0.81145   0.45697   0.00000  Uiso   1.00
C480   C     0.36006   0.85516   0.04302   0.00000  Uiso   1.00
C481   C     0.65801   0.81925   0.41125   0.00000  Uiso   1.00
C482   C     0.34198   0.84738   0.08875   0.00000  Uiso   1.00
C483   C     0.57654   0.83773   0.40756   0.00000  Uiso   1.00
C484   C     0.42347   0.82893   0.09244   0.00000  Uiso   1.00
C485   C     0.55813   0.83142   0.45395   0.00000  Uiso   1.00
C486   C     0.44186   0.83521   0.04605   0.00000  Uiso   1.00
C487   C     0.59070   0.81707   0.47822   0.00000  Uiso   1.00
C488   C     0.40929   0.84955   0.02177   0.00000  Uiso   1.00
C489   C     0.50826   0.83788   0.47663   0.00000  Uiso   1.00
C490   C     0.49173   0.82874   0.02336   0.00000  Uiso   1.00
C491   C     0.52558   0.81327   0.04570   0.00000  Uiso   1.00
C492   C     0.47440   0.85333   0.45428   0.00000  Uiso   1.00
C493   C     0.57400   0.80797   0.02355   0.00000  Uiso   1.00
C494   C     0.42598   0.85863   0.47644   0.00000  Uiso   1.00
H495   H     0.59862   0.79609   0.04202   0.00000  Uiso   1.00
H496   H     0.40136   0.87050   0.45796   0.00000  Uiso   1.00
H497   H     0.44680   0.81978   0.11299   0.00000  Uiso   1.00
H498   H     0.55322   0.84693   0.38702   0.00000  Uiso   1.00
H499   H     0.66468   0.80111   0.47610   0.00000  Uiso   1.00
H500   H     0.33530   0.86548   0.02389   0.00000  Uiso   1.00
H501   H     0.51615   0.80445   0.08044   0.00000  Uiso   1.00
H502   H     0.48383   0.86213   0.41954   0.00000  Uiso   1.00
C503   C     0.62411   0.68794   0.24981   0.00000  Uiso   1.00
C504   C     0.37589   0.97873   0.25019   0.00000  Uiso   1.00
H505   H     0.59085   0.70394   0.24966   0.00000  Uiso   1.00
H506   H     0.40915   0.96273   0.25034   0.00000  Uiso   1.00
C507   C     0.62414   0.97871   0.24975   0.00000  Uiso   1.00
C508   C     0.37586   0.68796   0.25025   0.00000  Uiso   1.00
H509   H     0.59089   0.96268   0.24954   0.00000  Uiso   1.00
H510   H     0.40911   0.70398   0.25046   0.00000  Uiso   1.00
C511   C     0.33336   0.95726   0.24995   0.00000  Uiso   1.00
C512   C     0.66665   0.70940   0.25005   0.00000  Uiso   1.00
C513   C     0.51711   0.80726   0.27734   0.00000  Uiso   1.00
C514   C     0.48289   0.85941   0.22266   0.00000  Uiso   1.00
H515   H     0.52966   0.78636   0.29923   0.00000  Uiso   1.00
H516   H     0.47034   0.88031   0.20077   0.00000  Uiso   1.00
C517   C     0.46749   0.80726   0.27731   0.00000  Uiso   1.00
C518   C     0.53251   0.85941   0.22269   0.00000  Uiso   1.00
H519   H     0.44261   0.78635   0.29914   0.00000  Uiso   1.00
H520   H     0.55739   0.88031   0.20086   0.00000  Uiso   1.00
N521   N     0.45069   0.83334   0.24999   0.00000  Uiso   1.00
N522   N     0.54931   0.83332   0.25001   0.00000  Uiso   1.00
N523   N     0.62425   0.85212   0.10838   0.00000  Uiso   1.00
O524   O     0.59841   0.82023   0.12555   0.00000  Uiso   1.00
O525   O     0.60218   0.88498   0.09978   0.00000  Uiso   1.00
N526   N     0.37574   0.81449   0.39161   0.00000  Uiso   1.00
O527   O     0.40159   0.84638   0.37445   0.00000  Uiso   1.00
O528   O     0.39779   0.78162   0.40021   0.00000  Uiso   1.00
O529   O     0.70625   0.77322   0.25000   0.00000  Uiso   1.00
O530   O     0.96042   0.89345   0.25000   0.00000  Uiso   1.00
O531   O     0.96039   0.77321   0.25001   0.00000  Uiso   1.00
O532   O     0.70628   0.89346   0.25000   0.00000  Uiso   1.00
C533   C     0.99998   0.75401   0.25004   0.00000  Uiso   1.00
C534   C     0.66669   0.91265   0.24996   0.00000  Uiso   1.00
O535   O     0.68519   0.83334   0.31492   0.00000  Uiso   1.00
O536   O     0.98148   0.83332   0.18509   0.00000  Uiso   1.00
O537   O     0.93933   0.83333   0.31492   0.00000  Uiso   1.00
O538   O     0.72733   0.83333   0.18508   0.00000  Uiso   1.00
C539   C     0.97307   0.83319   0.33628   0.00000  Uiso   1.00
C540   C     0.69360   0.83347   0.16372   0.00000  Uiso   1.00
Cu541  Cu    0.71355   0.83334   0.25000   0.00000  Uiso   1.00
Cu542  Cu    0.95311   0.83333   0.25000   0.00000  Uiso   1.00
C543   C     0.95884   0.83103   0.38577   0.00000  Uiso   1.00
C544   C     0.70783   0.83562   0.11423   0.00000  Uiso   1.00
C545   C     0.97326   0.81145   0.45697   0.00000  Uiso   1.00
C546   C     0.69339   0.85516   0.04302   0.00000  Uiso   1.00
C547   C     0.99135   0.81925   0.41125   0.00000  Uiso   1.00
C548   C     0.67531   0.84738   0.08875   0.00000  Uiso   1.00
C549   C     0.90987   0.83773   0.40756   0.00000  Uiso   1.00
C550   C     0.75680   0.82893   0.09244   0.00000  Uiso   1.00
C551   C     0.89146   0.83142   0.45395   0.00000  Uiso   1.00
C552   C     0.77520   0.83521   0.04605   0.00000  Uiso   1.00
C553   C     0.92403   0.81707   0.47822   0.00000  Uiso   1.00
C554   C     0.74262   0.84955   0.02177   0.00000  Uiso   1.00
C555   C     0.84159   0.83788   0.47663   0.00000  Uiso   1.00
C556   C     0.82507   0.82874   0.02336   0.00000  Uiso   1.00
C557   C     0.85891   0.81327   0.04570   0.00000  Uiso   1.00
C558   C     0.80774   0.85333   0.45428   0.00000  Uiso   1.00
C559   C     0.90733   0.80797   0.02355   0.00000  Uiso   1.00
C560   C     0.75931   0.85863   0.47644   0.00000  Uiso   1.00
H561   H     0.93195   0.79609   0.04202   0.00000  Uiso   1.00
H562   H     0.73469   0.87050   0.45796   0.00000  Uiso   1.00
H563   H     0.78013   0.81978   0.11299   0.00000  Uiso   1.00
H564   H     0.88655   0.84693   0.38702   0.00000  Uiso   1.00
H565   H     0.99802   0.80111   0.47610   0.00000  Uiso   1.00
H566   H     0.66863   0.86548   0.02389   0.00000  Uiso   1.00
H567   H     0.84948   0.80445   0.08044   0.00000  Uiso   1.00
H568   H     0.81716   0.86213   0.41954   0.00000  Uiso   1.00
C569   C     0.95745   0.68794   0.24981   0.00000  Uiso   1.00
C570   C     0.70922   0.97873   0.25019   0.00000  Uiso   1.00
H571   H     0.92418   0.70394   0.24966   0.00000  Uiso   1.00
H572   H     0.74249   0.96273   0.25034   0.00000  Uiso   1.00
C573   C     0.95747   0.97871   0.24975   0.00000  Uiso   1.00
C574   C     0.70919   0.68796   0.25025   0.00000  Uiso   1.00
H575   H     0.92423   0.96268   0.24954   0.00000  Uiso   1.00
H576   H     0.74244   0.70398   0.25046   0.00000  Uiso   1.00
C577   C     0.66669   0.95726   0.24995   0.00000  Uiso   1.00
C578   C     0.99998   0.70940   0.25005   0.00000  Uiso   1.00
C579   C     0.85044   0.80726   0.27734   0.00000  Uiso   1.00
C580   C     0.81622   0.85941   0.22266   0.00000  Uiso   1.00
H581   H     0.86299   0.78636   0.29923   0.00000  Uiso   1.00
H582   H     0.80368   0.88031   0.20077   0.00000  Uiso   1.00
C583   C     0.80082   0.80726   0.27731   0.00000  Uiso   1.00
C584   C     0.86584   0.85941   0.22269   0.00000  Uiso   1.00
H585   H     0.77594   0.78635   0.29914   0.00000  Uiso   1.00
H586   H     0.89073   0.88031   0.20086   0.00000  Uiso   1.00
N587   N     0.78403   0.83334   0.24999   0.00000  Uiso   1.00
N588   N     0.88264   0.83332   0.25001   0.00000  Uiso   1.00
N589   N     0.95758   0.85212   0.10838   0.00000  Uiso   1.00
O590   O     0.93174   0.82023   0.12555   0.00000  Uiso   1.00
O591   O     0.93552   0.88498   0.09978   0.00000  Uiso   1.00
N592   N     0.70907   0.81449   0.39161   0.00000  Uiso   1.00
O593   O     0.73493   0.84638   0.37445   0.00000  Uiso   1.00
O594   O     0.73112   0.78162   0.40021   0.00000  Uiso   1.00
O595   O     0.03958   0.10655   0.75000   0.00000  Uiso   1.00
O596   O     0.29375   0.22678   0.75000   0.00000  Uiso   1.00
O597   O     0.29372   0.10654   0.75001   0.00000  Uiso   1.00
O598   O     0.03961   0.22679   0.75000   0.00000  Uiso   1.00
C599   C     0.33331   0.08735   0.75004   0.00000  Uiso   1.00
C600   C     0.00003   0.24599   0.74996   0.00000  Uiso   1.00
O601   O     0.01852   0.16668   0.81492   0.00000  Uiso   1.00
O602   O     0.31481   0.16666   0.68509   0.00000  Uiso   1.00
O603   O     0.27267   0.16667   0.81492   0.00000  Uiso   1.00
O604   O     0.06067   0.16667   0.68508   0.00000  Uiso   1.00
C605   C     0.30640   0.16653   0.83628   0.00000  Uiso   1.00
C606   C     0.02693   0.16680   0.66372   0.00000  Uiso   1.00
Cu607  Cu    0.04689   0.16667   0.75000   0.00000  Uiso   1.00
Cu608  Cu    0.28645   0.16666   0.75000   0.00000  Uiso   1.00
C609   C     0.29217   0.16437   0.88577   0.00000  Uiso   1.00
C610   C     0.04116   0.16895   0.61423   0.00000  Uiso   1.00
C611   C     0.30659   0.14478   0.95697   0.00000  Uiso   1.00
C612   C     0.02673   0.18849   0.54302   0.00000  Uiso   1.00
C613   C     0.32468   0.15258   0.91125   0.00000  Uiso   1.00
C614   C     0.00865   0.18071   0.58875   0.00000  Uiso   1.00
C615   C     0.24320   0.17106   0.90756   0.00000  Uiso   1.00
C616   C     0.09013   0.16227   0.59244   0.00000  Uiso   1.00
C617   C     0.22480   0.16475   0.95395   0.00000  Uiso   1.00
C618   C     0.10853   0.16855   0.54605   0.00000  Uiso   1.00
C619   C     0.25736   0.15040   0.97822   0.00000  Uiso   1.00
C620   C     0.07596   0.18288   0.52177   0.00000  Uiso   1.00
C621   C     0.17492   0.17121   0.97663   0.00000  Uiso   1.00
C622   C     0.15840   0.16208   0.52336   0.00000  Uiso   1.00
C623   C     0.19225   0.14660   0.54570   0.00000  Uiso   1.00
C624   C     0.14107   0.18667   0.95428   0.00000  Uiso   1.00
C625   C     0.24067   0.14131   0.52355   0.00000  Uiso   1.00
C626   C     0.09265   0.19196   0.97644   0.00000  Uiso   1.00
H627   H     0.26528   0.12942   0.54202   0.00000  Uiso   1.00
H628   H     0.06803   0.20383   0.95796   0.00000  Uiso   1.00
H629   H     0.11347   0.15311   0.61299   0.00000  Uiso   1.00
H630   H     0.21988   0.18026   0.88702   0.00000  Uiso   1.00
H631   H     0.33135   0.13444   0.97610   0.00000  Uiso   1.00
H632   H     0.00196   0.19881   0.52389   0.00000  Uiso   1.00
H633   H     0.18281   0.13778   0.58044   0.00000  Uiso   1.00
H634   H     0.15049   0.19547   0.91954   0.00000  Uiso   1.00
C635   C     0.29078   0.02127   0.74981   0.00000  Uiso   1.00
C636   C     0.04255   0.31206   0.75019   0.00000  Uiso   1.00
H637   H     0.25751   0.03727   0.74966   0.00000  Uiso   1.00
H638   H     0.07582   0.29606   0.75034   0.00000  Uiso   1.00
C639   C     0.29081   0.31204   0.74975   0.00000  Uiso   1.00
C640   C     0.04253   0.02129   0.75025   0.00000  Uiso   1.00
H641   H     0.25756   0.29602   0.74954   0.00000  Uiso   1.00
H642   H     0.07577   0.03731   0.75046   0.00000  Uiso   1.00
C643   C     0.00002   0.29060   0.74995   0.00000  Uiso   1.00
C644   C     0.33331   0.04274   0.75005   0.00000  Uiso   1.00
C645   C     0.18378   0.14059   0.77734   0.00000  Uiso   1.00
C646   C     0.14956   0.19274   0.72266   0.00000  Uiso   1.00
H647   H     0.19632   0.11969   0.79923   0.00000  Uiso   1.00
H648   H     0.13701   0.21364   0.70077   0.00000  Uiso   1.00
C649   C     0.13416   0.14059   0.77731   0.00000  Uiso   1.00
C650   C     0.19918   0.19274   0.72269   0.00000  Uiso   1.00
H651   H     0.10928   0.11969   0.79914   0.00000  Uiso   1.00
H652   H     0.22406   0.21364   0.70086   0.00000  Uiso   1.00
N653   N     0.11736   0.16668   0.74999   0.00000  Uiso   1.00
N654   N     0.21597   0.16666   0.75001   0.00000  Uiso   1.00
N655   N     0.29092   0.18545   0.60838   0.00000  Uiso   1.00
O656   O     0.26508   0.15356   0.62555   0.00000  Uiso   1.00
O657   O     0.26885   0.21831   0.59978   0.00000  Uiso   1.00
N658   N     0.04241   0.14783   0.89161   0.00000  Uiso   1.00
O659   O     0.06826   0.17971   0.87445   0.00000  Uiso   1.00
O660   O     0.06446   0.11495   0.90021   0.00000  Uiso   1.00
O661   O     0.37291   0.10655   0.75000   0.00000  Uiso   1.00
O662   O     0.62709   0.22678   0.75000   0.00000  Uiso   1.00
O663   O     0.62706   0.10654   0.75001   0.00000  Uiso   1.00
O664   O     0.37294   0.22679   0.75000   0.00000  Uiso   1.00
C665   C     0.66664   0.08735   0.75004   0.00000  Uiso   1.00
C666   C     0.33336   0.24599   0.74996   0.00000  Uiso   1.00
O667   O     0.35186   0.16668   0.81492   0.00000  Uiso   1.00
O668   O     0.64814   0.16666   0.68509   0.00000  Uiso   1.00
O669   O     0.60600   0.16667   0.81492   0.00000  Uiso   1.00
O670   O     0.39400   0.16667   0.68508   0.00000  Uiso   1.00
C671   C     0.63973   0.16653   0.83628   0.00000  Uiso   1.00
C672   C     0.36027   0.16680   0.66372   0.00000  Uiso   1.00
Cu673  Cu    0.38022   0.16667   0.75000   0.00000  Uiso   1.00
Cu674  Cu    0.61978   0.16666   0.75000   0.00000  Uiso   1.00
C675   C     0.62551   0.16437   0.88577   0.00000  Uiso   1.00
C676   C     0.37449   0.16895   0.61423   0.00000  Uiso   1.00
C677   C     0.63993   0.14478   0.95697   0.00000  Uiso   1.00
C678   C     0.36006   0.18849   0.54302   0.00000  Uiso   1.00
C679   C     0.65801   0.15258   0.91125   0.00000  Uiso   1.00
C680   C     0.34198   0.18071   0.58875   0.00000  Uiso   1.00
C681   C     0.57654   0.17106   0.90756   0.00000  Uiso   1.00
C682   C     0.42347   0.16227   0.59244   0.00000  Uiso   1.00
C683   C     0.55813   0.16475   0.95395   0.00000  Uiso   1.00
C684   C     0.44186   0.16855   0.54605   0.00000  Uiso   1.00
C685   C     0.59070   0.15040   0.97822   0.00000  Uiso   1.00
C686   C     0.40929   0.18288   0.52177   0.00000  Uiso   1.00
C687   C     0.50826   0.17121   0.97663   0.00000  Uiso   1.00
C688   C     0.49173   0.16208   0.52336   0.00000  Uiso   1.00
C689   C     0.52558   0.14660   0.54570   0.00000  Uiso   1.00
C690   C     0.47440   0.18667   0.95428   0.00000  Uiso   1.00
C691   C     0.57400   0.14131   0.52355   0.00000  Uiso   1.00
C692   C     0.42598   0.19196   0.97644   0.00000  Uiso   1.00
H693   H     0.59862   0.12942   0.54202   0.00000  Uiso   1.00
H694   H     0.40136   0.20383   0.95796   0.00000  Uiso   1.00
H695   H     0.44680   0.15311   0.61299   0.00000  Uiso   1.00
H696   H     0.55322   0.18026   0.88702   0.00000  Uiso   1.00
H697   H     0.66468   0.13444   0.97610   0.00000  Uiso   1.00
H698   H     0.33530   0.19881   0.52389   0.00000  Uiso   1.00
H699   H     0.51615   0.13778   0.58044   0.00000  Uiso   1.00
H700   H     0.48383   0.19547   0.91954   0.00000  Uiso   1.00
C701   C     0.62411   0.02127   0.74981   0.00000  Uiso   1.00
C702   C     0.37589   0.31206   0.75019   0.00000  Uiso   1.00
H703   H     0.59085   0.03727   0.74966   0.00000  Uiso   1.00
H704   H     0.40915   0.29606   0.75034   0.00000  Uiso   1.00
C705   C     0.62414   0.31204   0.74975   0.00000  Uiso   1.00
C706   C     0.37586   0.02129   0.75025   0.00000  Uiso   1.00
H707   H     0.59089   0.29602   0.74954   0.00000  Uiso   1.00
H708   H     0.40911   0.03731   0.75046   0.00000  Uiso   1.00
C709   C     0.33336   0.29060   0.74995   0.00000  Uiso   1.00
C710   C     0.66665   0.04274   0.75005   0.00000  Uiso   1.00
C711   C     0.51711   0.14059   0.77734   0.00000  Uiso   1.00
C712   C     0.48289   0.19274   0.72266   0.00000  Uiso   1.00
H713   H     0.52966   0.11969   0.79923   0.00000  Uiso   1.00
H714   H     0.47034   0.21364   0.70077   0.00000  Uiso   1.00
C715   C     0.46749   0.14059   0.77731   0.00000  Uiso   1.00
C716   C     0.53251   0.19274   0.72269   0.00000  Uiso   1.00
H717   H     0.44261   0.11969   0.79914   0.00000  Uiso   1.00
H718   H     0.55739   0.21364   0.70086   0.00000  Uiso   1.00
N719   N     0.45069   0.16668   0.74999   0.00000  Uiso   1.00
N720   N     0.54931   0.16666   0.75001   0.00000  Uiso   1.00
N721   N     0.62425   0.18545   0.60838   0.00000  Uiso   1.00
O722   O     0.59841   0.15356   0.62555   0.00000  Uiso   1.00
O723   O     0.60218   0.21831   0.59978   0.00000  Uiso   1.00
N724   N     0.37574   0.14783   0.89161   0.00000  Uiso   1.00
O725   O     0.40159   0.17971   0.87445   0.00000  Uiso   1.00
O726   O     0.39779   0.11495   0.90021   0.00000  Uiso   1.00
O727   O     0.70625   0.10655   0.75000   0.00000  Uiso   1.00
O728   O     0.96042   0.22678   0.75000   0.00000  Uiso   1.00
O729   O     0.96039   0.10654   0.75001   0.00000  Uiso   1.00
O730   O     0.70628   0.22679   0.75000   0.00000  Uiso   1.00
C731   C     0.99998   0.08735   0.75004   0.00000  Uiso   1.00
C732   C     0.66669   0.24599   0.74996   0.00000  Uiso   1.00
O733   O     0.68519   0.16668   0.81492   0.00000  Uiso   1.00
O734   O     0.98148   0.16666   0.68509   0.00000  Uiso   1.00
O735   O     0.93933   0.16667   0.81492   0.00000  Uiso   1.00
O736   O     0.72733   0.16667   0.68508   0.00000  Uiso   1.00
C737   C     0.97307   0.16653   0.83628   0.00000  Uiso   1.00
C738   C     0.69360   0.16680   0.66372   0.00000  Uiso   1.00
Cu739  Cu    0.71355   0.16667   0.75000   0.00000  Uiso   1.00
Cu740  Cu    0.95311   0.16666   0.75000   0.00000  Uiso   1.00
C741   C     0.95884   0.16437   0.88577   0.00000  Uiso   1.00
C742   C     0.70783   0.16895   0.61423   0.00000  Uiso   1.00
C743   C     0.97326   0.14478   0.95697   0.00000  Uiso   1.00
C744   C     0.69339   0.18849   0.54302   0.00000  Uiso   1.00
C745   C     0.99135   0.15258   0.91125   0.00000  Uiso   1.00
C746   C     0.67531   0.18071   0.58875   0.00000  Uiso   1.00
C747   C     0.90987   0.17106   0.90756   0.00000  Uiso   1.00
C748   C     0.75680   0.16227   0.59244   0.00000  Uiso   1.00
C749   C     0.89146   0.16475   0.95395   0.00000  Uiso   1.00
C750   C     0.77520   0.16855   0.54605   0.00000  Uiso   1.00
C751   C     0.92403   0.15040   0.97822   0.00000  Uiso   1.00
C752   C     0.74262   0.18288   0.52177   0.00000  Uiso   1.00
C753   C     0.84159   0.17121   0.97663   0.00000  Uiso   1.00
C754   C     0.82507   0.16208   0.52336   0.00000  Uiso   1.00
C755   C     0.85891   0.14660   0.54570   0.00000  Uiso   1.00
C756   C     0.80774   0.18667   0.95428   0.00000  Uiso   1.00
C757   C     0.90733   0.14131   0.52355   0.00000  Uiso   1.00
C758   C     0.75931   0.19196   0.97644   0.00000  Uiso   1.00
H759   H     0.93195   0.12942   0.54202   0.00000  Uiso   1.00
H760   H     0.73469   0.20383   0.95796   0.00000  Uiso   1.00
H761   H     0.78013   0.15311   0.61299   0.00000  Uiso   1.00
H762   H     0.88655   0.18026   0.88702   0.00000  Uiso   1.00
H763   H     0.99802   0.13444   0.97610   0.00000  Uiso   1.00
H764   H     0.66863   0.19881   0.52389   0.00000  Uiso   1.00
H765   H     0.84948   0.13778   0.58044   0.00000  Uiso   1.00
H766   H     0.81716   0.19547   0.91954   0.00000  Uiso   1.00
C767   C     0.95745   0.02127   0.74981   0.00000  Uiso   1.00
C768   C     0.70922   0.31206   0.75019   0.00000  Uiso   1.00
H769   H     0.92418   0.03727   0.74966   0.00000  Uiso   1.00
H770   H     0.74249   0.29606   0.75034   0.00000  Uiso   1.00
C771   C     0.95747   0.31204   0.74975   0.00000  Uiso   1.00
C772   C     0.70919   0.02129   0.75025   0.00000  Uiso   1.00
H773   H     0.92423   0.29602   0.74954   0.00000  Uiso   1.00
H774   H     0.74244   0.03731   0.75046   0.00000  Uiso   1.00
C775   C     0.66669   0.29060   0.74995   0.00000  Uiso   1.00
C776   C     0.99998   0.04274   0.75005   0.00000  Uiso   1.00
C777   C     0.85044   0.14059   0.77734   0.00000  Uiso   1.00
C778   C     0.81622   0.19274   0.72266   0.00000  Uiso   1.00
H779   H     0.86299   0.11969   0.79923   0.00000  Uiso   1.00
H780   H     0.80368   0.21364   0.70077   0.00000  Uiso   1.00
C781   C     0.80082   0.14059   0.77731   0.00000  Uiso   1.00
C782   C     0.86584   0.19274   0.72269   0.00000  Uiso   1.00
H783   H     0.77594   0.11969   0.79914   0.00000  Uiso   1.00
H784   H     0.89073   0.21364   0.70086   0.00000  Uiso   1.00
N785   N     0.78403   0.16668   0.74999   0.00000  Uiso   1.00
N786   N     0.88264   0.16666   0.75001   0.00000  Uiso   1.00
N787   N     0.95758   0.18545   0.60838   0.00000  Uiso   1.00
O788   O     0.93174   0.15356   0.62555   0.00000  Uiso   1.00
O789   O     0.93552   0.21831   0.59978   0.00000  Uiso   1.00
N790   N     0.70907   0.14783   0.89161   0.00000  Uiso   1.00
O791   O     0.73493   0.17971   0.87445   0.00000  Uiso   1.00
O792   O     0.73112   0.11495   0.90021   0.00000  Uiso   1.00
O793   O     0.03958   0.43989   0.75000   0.00000  Uiso   1.00
O794   O     0.29375   0.56011   0.75000   0.00000  Uiso   1.00
O795   O     0.29372   0.43988   0.75001   0.00000  Uiso   1.00
O796   O     0.03961   0.56012   0.75000   0.00000  Uiso   1.00
C797   C     0.33331   0.42068   0.75004   0.00000  Uiso   1.00
C798   C     0.00003   0.57932   0.74996   0.00000  Uiso   1.00
O799   O     0.01852   0.50001   0.81492   0.00000  Uiso   1.00
O800   O     0.31481   0.49999   0.68509   0.00000  Uiso   1.00
O801   O     0.27267   0.50000   0.81492   0.00000  Uiso   1.00
O802   O     0.06067   0.50000   0.68508   0.00000  Uiso   1.00
C803   C     0.30640   0.49986   0.83628   0.00000  Uiso   1.00
C804   C     0.02693   0.50014   0.66372   0.00000  Uiso   1.00
Cu805  Cu    0.04689   0.50001   0.75000   0.00000  Uiso   1.00
Cu806  Cu    0.28645   0.49999   0.75000   0.00000  Uiso   1.00
C807   C     0.29217   0.49770   0.88577   0.00000  Uiso   1.00
C808   C     0.04116   0.50228   0.61423   0.00000  Uiso   1.00
C809   C     0.30659   0.47812   0.95697   0.00000  Uiso   1.00
C810   C     0.02673   0.52183   0.54302   0.00000  Uiso   1.00
C811   C     0.32468   0.48592   0.91125   0.00000  Uiso   1.00
C812   C     0.00865   0.51404   0.58875   0.00000  Uiso   1.00
C813   C     0.24320   0.50440   0.90756   0.00000  Uiso   1.00
C814   C     0.09013   0.49560   0.59244   0.00000  Uiso   1.00
C815   C     0.22480   0.49809   0.95395   0.00000  Uiso   1.00
C816   C     0.10853   0.50188   0.54605   0.00000  Uiso   1.00
C817   C     0.25736   0.48373   0.97822   0.00000  Uiso   1.00
C818   C     0.07596   0.51621   0.52177   0.00000  Uiso   1.00
C819   C     0.17492   0.50455   0.97663   0.00000  Uiso   1.00
C820   C     0.15840   0.49541   0.52336   0.00000  Uiso   1.00
C821   C     0.19225   0.47994   0.54570   0.00000  Uiso   1.00
C822   C     0.14107   0.52000   0.95428   0.00000  Uiso   1.00
C823   C     0.24067   0.47464   0.52355   0.00000  Uiso   1.00
C824   C     0.09265   0.52529   0.97644   0.00000  Uiso   1.00
H825   H     0.26528   0.46275   0.54202   0.00000  Uiso   1.00
H826   H     0.06803   0.53716   0.95796   0.00000  Uiso   1.00
H827   H     0.11347   0.48645   0.61299   0.00000  Uiso   1.00
H828   H     0.21988   0.51359   0.88702   0.00000  Uiso   1.00
H829   H     0.33135   0.46778   0.97610   0.00000  Uiso   1.00
H830   H     0.00196   0.53215   0.52389   0.00000  Uiso   1.00
H831   H     0.18281   0.47111   0.58044   0.00000  Uiso   1.00
H832   H     0.15049   0.52880   0.91954   0.00000  Uiso   1.00
C833   C     0.29078   0.35460   0.74981   0.00000  Uiso   1.00
C834   C     0.04255   0.64540   0.75019   0.00000  Uiso   1.00
H835   H     0.25751   0.37061   0.74966   0.00000  Uiso   1.00
H836   H     0.07582   0.62939   0.75034   0.00000  Uiso   1.00
C837   C     0.29081   0.64537   0.74975   0.00000  Uiso   1.00
C838   C     0.04253   0.35463   0.75025   0.00000  Uiso   1.00
H839   H     0.25756   0.62935   0.74954   0.00000  Uiso   1.00
H840   H     0.07577   0.37065   0.75046   0.00000  Uiso   1.00
C841   C     0.00002   0.62393   0.74995   0.00000  Uiso   1.00
C842   C     0.33331   0.37607   0.75005   0.00000  Uiso   1.00
C843   C     0.18378   0.47392   0.77734   0.00000  Uiso   1.00
C844   C     0.14956   0.52608   0.72266   0.00000  Uiso   1.00
H845   H     0.19632   0.45302   0.79923   0.00000  Uiso   1.00
H846   H     0.13701   0.54698   0.70077   0.00000  Uiso   1.00
C847   C     0.13416   0.47392   0.77731   0.00000  Uiso   1.00
C848   C     0.19918   0.52608   0.72269   0.00000  Uiso   1.00
H849   H     0.10928   0.45302   0.79914   0.00000  Uiso   1.00
H850   H     0.22406   0.54698   0.70086   0.00000  Uiso   1.00
N851   N     0.11736   0.50001   0.74999   0.00000  Uiso   1.00
N852   N     0.21597   0.49999   0.75001   0.00000  Uiso   1.00
N853   N     0.29092   0.51878   0.60838   0.00000  Uiso   1.00
O854   O     0.26508   0.48689   0.62555   0.00000  Uiso   1.00
O855   O     0.26885   0.55165   0.59978   0.00000  Uiso   1.00
N856   N     0.04241   0.48116   0.89161   0.00000  Uiso   1.00
O857   O     0.06826   0.51304   0.87445   0.00000  Uiso   1.00
O858   O     0.06446   0.44829   0.90021   0.00000  Uiso   1.00
O859   O     0.37291   0.43989   0.75000   0.00000  Uiso   1.00
O860   O     0.62709   0.56011   0.75000   0.00000  Uiso   1.00
O861   O     0.62706   0.43988   0.75001   0.00000  Uiso   1.00
O862   O     0.37294   0.56012   0.75000   0.00000  Uiso   1.00
C863   C     0.66664   0.42068   0.75004   0.00000  Uiso   1.00
C864   C     0.33336   0.57932   0.74996   0.00000  Uiso   1.00
O865   O     0.35186   0.50001   0.81492   0.00000  Uiso   1.00
O866   O     0.64814   0.49999   0.68509   0.00000  Uiso   1.00
O867   O     0.60600   0.50000   0.81492   0.00000  Uiso   1.00
O868   O     0.39400   0.50000   0.68508   0.00000  Uiso   1.00
C869   C     0.63973   0.49986   0.83628   0.00000  Uiso   1.00
C870   C     0.36027   0.50014   0.66372   0.00000  Uiso   1.00
Cu871  Cu    0.38022   0.50001   0.75000   0.00000  Uiso   1.00
Cu872  Cu    0.61978   0.49999   0.75000   0.00000  Uiso   1.00
C873   C     0.62551   0.49770   0.88577   0.00000  Uiso   1.00
C874   C     0.37449   0.50228   0.61423   0.00000  Uiso   1.00
C875   C     0.63993   0.47812   0.95697   0.00000  Uiso   1.00
C876   C     0.36006   0.52183   0.54302   0.00000  Uiso   1.00
C877   C     0.65801   0.48592   0.91125   0.00000  Uiso   1.00
C878   C     0.34198   0.51404   0.58875   0.00000  Uiso   1.00
C879   C     0.57654   0.50440   0.90756   0.00000  Uiso   1.00
C880   C     0.42347   0.49560   0.59244   0.00000  Uiso   1.00
C881   C     0.55813   0.49809   0.95395   0.00000  Uiso   1.00
C882   C     0.44186   0.50188   0.54605   0.00000  Uiso   1.00
C883   C     0.59070   0.48373   0.97822   0.00000  Uiso   1.00
C884   C     0.40929   0.51621   0.52177   0.00000  Uiso   1.00
C885   C     0.50826   0.50455   0.97663   0.00000  Uiso   1.00
C886   C     0.49173   0.49541   0.52336   0.00000  Uiso   1.00
C887   C     0.52558   0.47994   0.54570   0.00000  Uiso   1.00
C888   C     0.47440   0.52000   0.95428   0.00000  Uiso   1.00
C889   C     0.57400   0.47464   0.52355   0.00000  Uiso   1.00
C890   C     0.42598   0.52529   0.97644   0.00000  Uiso   1.00
H891   H     0.59862   0.46275   0.54202   0.00000  Uiso   1.00
H892   H     0.40136   0.53716   0.95796   0.00000  Uiso   1.00
H893   H     0.44680   0.48645   0.61299   0.00000  Uiso   1.00
H894   H     0.55322   0.51359   0.88702   0.00000  Uiso   1.00
H895   H     0.66468   0.46778   0.97610   0.00000  Uiso   1.00
H896   H     0.33530   0.53215   0.52389   0.00000  Uiso   1.00
H897   H     0.51615   0.47111   0.58044   0.00000  Uiso   1.00
H898   H     0.48383   0.52880   0.91954   0.00000  Uiso   1.00
C899   C     0.62411   0.35460   0.74981   0.00000  Uiso   1.00
C900   C     0.37589   0.64540   0.75019   0.00000  Uiso   1.00
H901   H     0.59085   0.37061   0.74966   0.00000  Uiso   1.00
H902   H     0.40915   0.62939   0.75034   0.00000  Uiso   1.00
C903   C     0.62414   0.64537   0.74975   0.00000  Uiso   1.00
C904   C     0.37586   0.35463   0.75025   0.00000  Uiso   1.00
H905   H     0.59089   0.62935   0.74954   0.00000  Uiso   1.00
H906   H     0.40911   0.37065   0.75046   0.00000  Uiso   1.00
C907   C     0.33336   0.62393   0.74995   0.00000  Uiso   1.00
C908   C     0.66665   0.37607   0.75005   0.00000  Uiso   1.00
C909   C     0.51711   0.47392   0.77734   0.00000  Uiso   1.00
C910   C     0.48289   0.52608   0.72266   0.00000  Uiso   1.00
H911   H     0.52966   0.45302   0.79923   0.00000  Uiso   1.00
H912   H     0.47034   0.54698   0.70077   0.00000  Uiso   1.00
C913   C     0.46749   0.47392   0.77731   0.00000  Uiso   1.00
C914   C     0.53251   0.52608   0.72269   0.00000  Uiso   1.00
H915   H     0.44261   0.45302   0.79914   0.00000  Uiso   1.00
H916   H     0.55739   0.54698   0.70086   0.00000  Uiso   1.00
N917   N     0.45069   0.50001   0.74999   0.00000  Uiso   1.00
N918   N     0.54931   0.49999   0.75001   0.00000  Uiso   1.00
N919   N     0.62425   0.51878   0.60838   0.00000  Uiso   1.00
O920   O     0.59841   0.48689   0.62555   0.00000  Uiso   1.00
O921   O     0.60218   0.55165   0.59978   0.00000  Uiso   1.00
N922   N     0.37574   0.48116   0.89161   0.00000  Uiso   1.00
O923   O     0.40159   0.51304   0.87445   0.00000  Uiso   1.00
O924   O     0.39779   0.44829   0.90021   0.00000  Uiso   1.00
O925   O     0.70625   0.43989   0.75000   0.00000  Uiso   1.00
O926   O     0.96042   0.56011   0.75000   0.00000  Uiso   1.00
O927   O     0.96039   0.43988   0.75001   0.00000  Uiso   1.00
O928   O     0.70628   0.56012   0.75000   0.00000  Uiso   1.00
C929   C     0.99998   0.42068   0.75004   0.00000  Uiso   1.00
C930   C     0.66669   0.57932   0.74996   0.00000  Uiso   1.00
O931   O     0.68519   0.50001   0.81492   0.00000  Uiso   1.00
O932   O     0.98148   0.49999   0.68509   0.00000  Uiso   1.00
O933   O     0.93933   0.50000   0.81492   0.00000  Uiso   1.00
O934   O     0.72733   0.50000   0.68508   0.00000  Uiso   1.00
C935   C     0.97307   0.49986   0.83628   0.00000  Uiso   1.00
C936   C     0.69360   0.50014   0.66372   0.00000  Uiso   1.00
Cu937  Cu    0.71355   0.50001   0.75000   0.00000  Uiso   1.00
Cu938  Cu    0.95311   0.49999   0.75000   0.00000  Uiso   1.00
C939   C     0.95884   0.49770   0.88577   0.00000  Uiso   1.00
C940   C     0.70783   0.50228   0.61423   0.00000  Uiso   1.00
C941   C     0.97326   0.47812   0.95697   0.00000  Uiso   1.00
C942   C     0.69339   0.52183   0.54302   0.00000  Uiso   1.00
C943   C     0.99135   0.48592   0.91125   0.00000  Uiso   1.00
C944   C     0.67531   0.51404   0.58875   0.00000  Uiso   1.00
C945   C     0.90987   0.50440   0.90756   0.00000  Uiso   1.00
C946   C     0.75680   0.49560   0.59244   0.00000  Uiso   1.00
C947   C     0.89146   0.49809   0.95395   0.00000  Uiso   1.00
C948   C     0.77520   0.50188   0.54605   0.00000  Uiso   1.00
C949   C     0.92403   0.48373   0.97822   0.00000  Uiso   1.00
C950   C     0.74262   0.51621   0.52177   0.00000  Uiso   1.00
C951   C     0.84159   0.50455   0.97663   0.00000  Uiso   1.00
C952   C     0.82507   0.49541   0.52336   0.00000  Uiso   1.00
C953   C     0.85891   0.47994   0.54570   0.00000  Uiso   1.00
C954   C     0.80774   0.52000   0.95428   0.00000  Uiso   1.00
C955   C     0.90733   0.47464   0.52355   0.00000  Uiso   1.00
C956   C     0.75931   0.52529   0.97644   0.00000  Uiso   1.00
H957   H     0.93195   0.46275   0.54202   0.00000  Uiso   1.00
H958   H     0.73469   0.53716   0.95796   0.00000  Uiso   1.00
H959   H     0.78013   0.48645   0.61299   0.00000  Uiso   1.00
H960   H     0.88655   0.51359   0.88702   0.00000  Uiso   1.00
H961   H     0.99802   0.46778   0.97610   0.00000  Uiso   1.00
H962   H     0.66863   0.53215   0.52389   0.00000  Uiso   1.00
H963   H     0.84948   0.47111   0.58044   0.00000  Uiso   1.00
H964   H     0.81716   0.52880   0.91954   0.00000  Uiso   1.00
C965   C     0.95745   0.35460   0.74981   0.00000  Uiso   1.00
C966   C     0.70922   0.64540   0.75019   0.00000  Uiso   1.00
H967   H     0.92418   0.37061   0.74966   0.00000  Uiso   1.00
H968   H     0.74249   0.62939   0.75034   0.00000  Uiso   1.00
C969   C     0.95747   0.64537   0.74975   0.00000  Uiso   1.00
C970   C     0.70919   0.35463   0.75025   0.00000  Uiso   1.00
H971   H     0.92423   0.62935   0.74954   0.00000  Uiso   1.00
H972   H     0.74244   0.37065   0.75046   0.00000  Uiso   1.00
C973   C     0.66669   0.62393   0.74995   0.00000  Uiso   1.00
C974   C     0.99998   0.37607   0.75005   0.00000  Uiso   1.00
C975   C     0.85044   0.47392   0.77734   0.00000  Uiso   1.00
C976   C     0.81622   0.52608   0.72266   0.00000  Uiso   1.00
H977   H     0.86299   0.45302   0.79923   0.00000  Uiso   1.00
H978   H     0.80368   0.54698   0.70077   0.00000  Uiso   1.00
C979   C     0.80082   0.47392   0.77731   0.00000  Uiso   1.00
C980   C     0.86584   0.52608   0.72269   0.00000  Uiso   1.00
H981   H     0.77594   0.45302   0.79914   0.00000  Uiso   1.00
H982   H     0.89073   0.54698   0.70086   0.00000  Uiso   1.00
N983   N     0.78403   0.50001   0.74999   0.00000  Uiso   1.00
N984   N     0.88264   0.49999   0.75001   0.00000  Uiso   1.00
N985   N     0.95758   0.51878   0.60838   0.00000  Uiso   1.00
O986   O     0.93174   0.48689   0.62555   0.00000  Uiso   1.00
O987   O     0.93552   0.55165   0.59978   0.00000  Uiso   1.00
N988   N     0.70907   0.48116   0.89161   0.00000  Uiso   1.00
O989   O     0.73493   0.51304   0.87445   0.00000  Uiso   1.00
O990   O     0.73112   0.44829   0.90021   0.00000  Uiso   1.00
O991   O     0.03958   0.77322   0.75000   0.00000  Uiso   1.00
O992   O     0.29375   0.89345   0.75000   0.00000  Uiso   1.00
O993   O     0.29372   0.77321   0.75001   0.00000  Uiso   1.00
O994   O     0.03961   0.89346   0.75000   0.00000  Uiso   1.00
C995   C     0.33331   0.75401   0.75004   0.00000  Uiso   1.00
C996   C     0.00003   0.91265   0.74996   0.00000  Uiso   1.00
O997   O     0.01852   0.83334   0.81492   0.00000  Uiso   1.00
O998   O     0.31481   0.83332   0.68509   0.00000  Uiso   1.00
O999   O     0.27267   0.83333   0.81492   0.00000  Uiso   1.00
O1000  O     0.06067   0.83333   0.68508   0.00000  Uiso   1.00
C1001  C     0.30640   0.83319   0.83628   0.00000  Uiso   1.00
C1002  C     0.02693   0.83347   0.66372   0.00000  Uiso   1.00
Cu1003 Cu    0.04689   0.83334   0.75000   0.00000  Uiso   1.00
Cu1004 Cu    0.28645   0.83333   0.75000   0.00000  Uiso   1.00
C1005  C     0.29217   0.83103   0.88577   0.00000  Uiso   1.00
C1006  C     0.04116   0.83562   0.61423   0.00000  Uiso   1.00
C1007  C     0.30659   0.81145   0.95697   0.00000  Uiso   1.00
C1008  C     0.02673   0.85516   0.54302   0.00000  Uiso   1.00
C1009  C     0.32468   0.81925   0.91125   0.00000  Uiso   1.00
C1010  C     0.00865   0.84738   0.58875   0.00000  Uiso   1.00
C1011  C     0.24320   0.83773   0.90756   0.00000  Uiso   1.00
C1012  C     0.09013   0.82893   0.59244   0.00000  Uiso   1.00
C1013  C     0.22480   0.83142   0.95395   0.00000  Uiso   1.00
C1014  C     0.10853   0.83521   0.54605   0.00000  Uiso   1.00
C1015  C     0.25736   0.81707   0.97822   0.00000  Uiso   1.00
C1016  C     0.07596   0.84955   0.52177   0.00000  Uiso   1.00
C1017  C     0.17492   0.83788   0.97663   0.00000  Uiso   1.00
C1018  C     0.15840   0.82874   0.52336   0.00000  Uiso   1.00
C1019  C     0.19225   0.81327   0.54570   0.00000  Uiso   1.00
C1020  C     0.14107   0.85333   0.95428   0.00000  Uiso   1.00
C1021  C     0.24067   0.80797   0.52355   0.00000  Uiso   1.00
C1022  C     0.09265   0.85863   0.97644   0.00000  Uiso   1.00
H1023  H     0.26528   0.79609   0.54202   0.00000  Uiso   1.00
H1024  H     0.06803   0.87050   0.95796   0.00000  Uiso   1.00
H1025  H     0.11347   0.81978   0.61299   0.00000  Uiso   1.00
H1026  H     0.21988   0.84693   0.88702   0.00000  Uiso   1.00
H1027  H     0.33135   0.80111   0.97610   0.00000  Uiso   1.00
H1028  H     0.00196   0.86548   0.52389   0.00000  Uiso   1.00
H1029  H     0.18281   0.80445   0.58044   0.00000  Uiso   1.00
H1030  H     0.15049   0.86213   0.91954   0.00000  Uiso   1.00
C1031  C     0.29078   0.68794   0.74981   0.00000  Uiso   1.00
C1032  C     0.04255   0.97873   0.75019   0.00000  Uiso   1.00
H1033  H     0.25751   0.70394   0.74966   0.00000  Uiso   1.00
H1034  H     0.07582   0.96273   0.75034   0.00000  Uiso   1.00
C1035  C     0.29081   0.97871   0.74975   0.00000  Uiso   1.00
C1036  C     0.04253   0.68796   0.75025   0.00000  Uiso   1.00
H1037  H     0.25756   0.96268   0.74954   0.00000  Uiso   1.00
H1038  H     0.07577   0.70398   0.75046   0.00000  Uiso   1.00
C1039  C     0.00002   0.95726   0.74995   0.00000  Uiso   1.00
C1040  C     0.33331   0.70940   0.75005   0.00000  Uiso   1.00
C1041  C     0.18378   0.80726   0.77734   0.00000  Uiso   1.00
C1042  C     0.14956   0.85941   0.72266   0.00000  Uiso   1.00
H1043  H     0.19632   0.78636   0.79923   0.00000  Uiso   1.00
H1044  H     0.13701   0.88031   0.70077   0.00000  Uiso   1.00
C1045  C     0.13416   0.80726   0.77731   0.00000  Uiso   1.00
C1046  C     0.19918   0.85941   0.72269   0.00000  Uiso   1.00
H1047  H     0.10928   0.78635   0.79914   0.00000  Uiso   1.00
H1048  H     0.22406   0.88031   0.70086   0.00000  Uiso   1.00
N1049  N     0.11736   0.83334   0.74999   0.00000  Uiso   1.00
N1050  N     0.21597   0.83332   0.75001   0.00000  Uiso   1.00
N1051  N     0.29092   0.85212   0.60838   0.00000  Uiso   1.00
O1052  O     0.26508   0.82023   0.62555   0.00000  Uiso   1.00
O1053  O     0.26885   0.88498   0.59978   0.00000  Uiso   1.00
N1054  N     0.04241   0.81449   0.89161   0.00000  Uiso   1.00
O1055  O     0.06826   0.84638   0.87445   0.00000  Uiso   1.00
O1056  O     0.06446   0.78162   0.90021   0.00000  Uiso   1.00
O1057  O     0.37291   0.77322   0.75000   0.00000  Uiso   1.00
O1058  O     0.62709   0.89345   0.75000   0.00000  Uiso   1.00
O1059  O     0.62706   0.77321   0.75001   0.00000  Uiso   1.00
O1060  O     0.37294   0.89346   0.75000   0.00000  Uiso   1.00
C1061  C     0.66664   0.75401   0.75004   0.00000  Uiso   1.00
C1062  C     0.33336   0.91265   0.74996   0.00000  Uiso   1.00
O1063  O     0.35186   0.83334   0.81492   0.00000  Uiso   1.00
O1064  O     0.64814   0.83332   0.68509   0.00000  Uiso   1.00
O1065  O     0.60600   0.83333   0.81492   0.00000  Uiso   1.00
O1066  O     0.39400   0.83333   0.68508   0.00000  Uiso   1.00
C1067  C     0.63973   0.83319   0.83628   0.00000  Uiso   1.00
C1068  C     0.36027   0.83347   0.66372   0.00000  Uiso   1.00
Cu1069 Cu    0.38022   0.83334   0.75000   0.00000  Uiso   1.00
Cu1070 Cu    0.61978   0.83333   0.75000   0.00000  Uiso   1.00
C1071  C     0.62551   0.83103   0.88577   0.00000  Uiso   1.00
C1072  C     0.37449   0.83562   0.61423   0.00000  Uiso   1.00
C1073  C     0.63993   0.81145   0.95697   0.00000  Uiso   1.00
C1074  C     0.36006   0.85516   0.54302   0.00000  Uiso   1.00
C1075  C     0.65801   0.81925   0.91125   0.00000  Uiso   1.00
C1076  C     0.34198   0.84738   0.58875   0.00000  Uiso   1.00
C1077  C     0.57654   0.83773   0.90756   0.00000  Uiso   1.00
C1078  C     0.42347   0.82893   0.59244   0.00000  Uiso   1.00
C1079  C     0.55813   0.83142   0.95395   0.00000  Uiso   1.00
C1080  C     0.44186   0.83521   0.54605   0.00000  Uiso   1.00
C1081  C     0.59070   0.81707   0.97822   0.00000  Uiso   1.00
C1082  C     0.40929   0.84955   0.52177   0.00000  Uiso   1.00
C1083  C     0.50826   0.83788   0.97663   0.00000  Uiso   1.00
C1084  C     0.49173   0.82874   0.52336   0.00000  Uiso   1.00
C1085  C     0.52558   0.81327   0.54570   0.00000  Uiso   1.00
C1086  C     0.47440   0.85333   0.95428   0.00000  Uiso   1.00
C1087  C     0.57400   0.80797   0.52355   0.00000  Uiso   1.00
C1088  C     0.42598   0.85863   0.97644   0.00000  Uiso   1.00
H1089  H     0.59862   0.79609   0.54202   0.00000  Uiso   1.00
H1090  H     0.40136   0.87050   0.95796   0.00000  Uiso   1.00
H1091  H     0.44680   0.81978   0.61299   0.00000  Uiso   1.00
H1092  H     0.55322   0.84693   0.88702   0.00000  Uiso   1.00
H1093  H     0.66468   0.80111   0.97610   0.00000  Uiso   1.00
H1094  H     0.33530   0.86548   0.52389   0.00000  Uiso   1.00
H1095  H     0.51615   0.80445   0.58044   0.00000  Uiso   1.00
H1096  H     0.48383   0.86213   0.91954   0.00000  Uiso   1.00
C1097  C     0.62411   0.68794   0.74981   0.00000  Uiso   1.00
C1098  C     0.37589   0.97873   0.75019   0.00000  Uiso   1.00
H1099  H     0.59085   0.70394   0.74966   0.00000  Uiso   1.00
H1100  H     0.40915   0.96273   0.75034   0.00000  Uiso   1.00
C1101  C     0.62414   0.97871   0.74975   0.00000  Uiso   1.00
C1102  C     0.37586   0.68796   0.75025   0.00000  Uiso   1.00
H1103  H     0.59089   0.96268   0.74954   0.00000  Uiso   1.00
H1104  H     0.40911   0.70398   0.75046   0.00000  Uiso   1.00
C1105  C     0.33336   0.95726   0.74995   0.00000  Uiso   1.00
C1106  C     0.66665   0.70940   0.75005   0.00000  Uiso   1.00
C1107  C     0.51711   0.80726   0.77734   0.00000  Uiso   1.00
C1108  C     0.48289   0.85941   0.72266   0.00000  Uiso   1.00
H1109  H     0.52966   0.78636   0.79923   0.00000  Uiso   1.00
H1110  H     0.47034   0.88031   0.70077   0.00000  Uiso   1.00
C1111  C     0.46749   0.80726   0.77731   0.00000  Uiso   1.00
C1112  C     0.53251   0.85941   0.72269   0.00000  Uiso   1.00
H1113  H     0.44261   0.78635   0.79914   0.00000  Uiso   1.00
H1114  H     0.55739   0.88031   0.70086   0.00000  Uiso   1.00
N1115  N     0.45069   0.83334   0.74999   0.00000  Uiso   1.00
N1116  N     0.54931   0.83332   0.75001   0.00000  Uiso   1.00
N1117  N     0.62425   0.85212   0.60838   0.00000  Uiso   1.00
O1118  O     0.59841   0.82023   0.62555   0.00000  Uiso   1.00
O1119  O     0.60218   0.88498   0.59978   0.00000  Uiso   1.00
N1120  N     0.37574   0.81449   0.89161   0.00000  Uiso   1.00
O1121  O     0.40159   0.84638   0.87445   0.00000  Uiso   1.00
O1122  O     0.39779   0.78162   0.90021   0.00000  Uiso   1.00
O1123  O     0.70625   0.77322   0.75000   0.00000  Uiso   1.00
O1124  O     0.96042   0.89345   0.75000   0.00000  Uiso   1.00
O1125  O     0.96039   0.77321   0.75001   0.00000  Uiso   1.00
O1126  O     0.70628   0.89346   0.75000   0.00000  Uiso   1.00
C1127  C     0.99998   0.75401   0.75004   0.00000  Uiso   1.00
C1128  C     0.66669   0.91265   0.74996   0.00000  Uiso   1.00
O1129  O     0.68519   0.83334   0.81492   0.00000  Uiso   1.00
O1130  O     0.98148   0.83332   0.68509   0.00000  Uiso   1.00
O1131  O     0.93933   0.83333   0.81492   0.00000  Uiso   1.00
O1132  O     0.72733   0.83333   0.68508   0.00000  Uiso   1.00
C1133  C     0.97307   0.83319   0.83628   0.00000  Uiso   1.00
C1134  C     0.69360   0.83347   0.66372   0.00000  Uiso   1.00
Cu1135 Cu    0.71355   0.83334   0.75000   0.00000  Uiso   1.00
Cu1136 Cu    0.95311   0.83333   0.75000   0.00000  Uiso   1.00
C1137  C     0.95884   0.83103   0.88577   0.00000  Uiso   1.00
C1138  C     0.70783   0.83562   0.61423   0.00000  Uiso   1.00
C1139  C     0.97326   0.81145   0.95697   0.00000  Uiso   1.00
C1140  C     0.69339   0.85516   0.54302   0.00000  Uiso   1.00
C1141  C     0.99135   0.81925   0.91125   0.00000  Uiso   1.00
C1142  C     0.67531   0.84738   0.58875   0.00000  Uiso   1.00
C1143  C     0.90987   0.83773   0.90756   0.00000  Uiso   1.00
C1144  C     0.75680   0.82893   0.59244   0.00000  Uiso   1.00
C1145  C     0.89146   0.83142   0.95395   0.00000  Uiso   1.00
C1146  C     0.77520   0.83521   0.54605   0.00000  Uiso   1.00
C1147  C     0.92403   0.81707   0.97822   0.00000  Uiso   1.00
C1148  C     0.74262   0.84955   0.52177   0.00000  Uiso   1.00
C1149  C     0.84159   0.83788   0.97663   0.00000  Uiso   1.00
C1150  C     0.82507   0.82874   0.52336   0.00000  Uiso   1.00
C1151  C     0.85891   0.81327   0.54570   0.00000  Uiso   1.00
C1152  C     0.80774   0.85333   0.95428   0.00000  Uiso   1.00
C1153  C     0.90733   0.80797   0.52355   0.00000  Uiso   1.00
C1154  C     0.75931   0.85863   0.97644   0.00000  Uiso   1.00
H1155  H     0.93195   0.79609   0.54202   0.00000  Uiso   1.00
H1156  H     0.73469   0.87050   0.95796   0.00000  Uiso   1.00
H1157  H     0.78013   0.81978   0.61299   0.00000  Uiso   1.00
H1158  H     0.88655   0.84693   0.88702   0.00000  Uiso   1.00
H1159  H     0.99802   0.80111   0.97610   0.00000  Uiso   1.00
H1160  H     0.66863   0.86548   0.52389   0.00000  Uiso   1.00
H1161  H     0.84948   0.80445   0.58044   0.00000  Uiso   1.00
H1162  H     0.81716   0.86213   0.91954   0.00000  Uiso   1.00
C1163  C     0.95745   0.68794   0.74981   0.00000  Uiso   1.00
C1164  C     0.70922   0.97873   0.75019   0.00000  Uiso   1.00
H1165  H     0.92418   0.70394   0.74966   0.00000  Uiso   1.00
H1166  H     0.74249   0.96273   0.75034   0.00000  Uiso   1.00
C1167  C     0.95747   0.97871   0.74975   0.00000  Uiso   1.00
C1168  C     0.70919   0.68796   0.75025   0.00000  Uiso   1.00
H1169  H     0.92423   0.96268   0.74954   0.00000  Uiso   1.00
H1170  H     0.74244   0.70398   0.75046   0.00000  Uiso   1.00
C1171  C     0.66669   0.95726   0.74995   0.00000  Uiso   1.00
C1172  C     0.99998   0.70940   0.75005   0.00000  Uiso   1.00
C1173  C     0.85044   0.80726   0.77734   0.00000  Uiso   1.00
C1174  C     0.81622   0.85941   0.72266   0.00000  Uiso   1.00
H1175  H     0.86299   0.78636   0.79923   0.00000  Uiso   1.00
H1176  H     0.80368   0.88031   0.70077   0.00000  Uiso   1.00
C1177  C     0.80082   0.80726   0.77731   0.00000  Uiso   1.00
C1178  C     0.86584   0.85941   0.72269   0.00000  Uiso   1.00
H1179  H     0.77594   0.78635   0.79914   0.00000  Uiso   1.00
H1180  H     0.89073   0.88031   0.70086   0.00000  Uiso   1.00
N1181  N     0.78403   0.83334   0.74999   0.00000  Uiso   1.00
N1182  N     0.88264   0.83332   0.75001   0.00000  Uiso   1.00
N1183  N     0.95758   0.85212   0.60838   0.00000  Uiso   1.00
O1184  O     0.93174   0.82023   0.62555   0.00000  Uiso   1.00
O1185  O     0.93552   0.88498   0.59978   0.00000  Uiso   1.00
N1186  N     0.70907   0.81449   0.89161   0.00000  Uiso   1.00
O1187  O     0.73493   0.84638   0.87445   0.00000  Uiso   1.00
O1188  O     0.73112   0.78162   0.90021   0.00000  Uiso   1.00
loop_
_geom_bond_atom_site_label_1
_geom_bond_atom_site_label_2
_geom_bond_distance
_geom_bond_site_symmetry_2
_ccdc_geom_bond_type
O1     Cu13    1.965   .     S
O1     C137    1.290   1_455 S
O2     Cu14    1.965   .     S
O2     C72     1.290   .     S
O3     Cu14    1.965   .     S
O3     C5      1.290   .     A
O4     C6      1.290   .     A
O4     Cu13    1.965   .     S
C5     C50     1.450   .     S
C5     O67     1.290   .     S
C6     C49     1.450   .     S
C6     O134    1.290   1_455 S
O7     Cu13    1.959   .     S
O7     C143    1.294   1_455 S
O8     Cu14    1.959   .     S
O8     C78     1.294   .     S
O9     Cu14    1.942   .     S
O9     C11     1.300   .     A
O10    C12     1.300   .     A
O10    Cu13    1.942   .     S
C11    C15     1.479   .     S
C11    O73     1.294   .     S
C12    C16     1.479   .     S
C12    O140    1.294   1_455 S
Cu13   N59     2.010   .     S
Cu13   Cu146   2.675   1_455 S
Cu14   N60     2.010   .     S
Cu14   Cu79    2.675   .     S
C15    C21     1.402   .     A
C15    C19     1.415   .     A
C16    C20     1.415   .     A
C16    C22     1.402   .     A
C17    C25     1.400   .     A
C17    H37     1.084   .     S
C17    C19     1.395   .     A
C18    C20     1.395   .     A
C18    C26     1.400   .     A
C18    H38     1.084   .     S
C19    N130    1.434   .     S
C20    N193    1.434   1_455 S
C21    H36     1.073   .     S
C21    C23     1.407   .     A
C22    H35     1.074   .     S
C22    C24     1.407   .     A
C23    C27     1.430   .     A
C23    C25     1.415   .     A
C24    C28     1.430   .     A
C24    C26     1.415   .     A
C25    C625    1.389   .     S
C26    C626    1.389   1_554 S
C27    C30     1.416   .     A
C27    C622    1.428   .     S
C28    C29     1.416   .     A
C28    C621    1.428   1_554 S
C29    H39     1.075   .     S
C29    C31     1.385   .     A
C30    H40     1.075   .     S
C30    C32     1.385   .     A
C31    H33     1.084   .     S
C31    C619    1.389   1_554 S
C32    H34     1.084   .     S
C32    C620    1.389   .     S
C41    C50     1.401   .     A
C41    H43     1.083   .     S
C41    C441    1.383   1_545 S
C42    H44     1.083   .     S
C42    C49     1.401   .     A
C42    C244    1.383   .     S
C45    H47     1.083   .     S
C45    C239    1.383   .     S
C45    C115    1.401   .     S
C46    H48     1.083   .     S
C46    C438    1.383   1_545 S
C46    C182    1.401   1_455 S
C49    C177    1.401   1_455 S
C50    C112    1.401   .     S
C51    C55     1.416   .     A
C51    H53     1.082   .     S
C51    N60     1.367   .     A
C52    N59     1.367   .     A
C52    H54     1.082   .     S
C52    C56     1.416   .     A
C55    N59     1.366   .     A
C55    H57     1.082   .     S
C56    H58     1.082   .     S
C56    N60     1.366   .     A
N61    O62     1.301   .     A
N61    O63     1.301   .     A
N61    C86     1.434   .     S
N64    O65     1.301   .     A
N64    O66     1.301   .     A
N64    C151    1.434   1_455 S
O67    Cu79    1.965   .     S
O68    Cu80    1.965   .     S
O68    C138    1.290   .     S
O69    Cu80    1.965   .     S
O69    C71     1.290   .     A
O70    C72     1.290   .     A
O70    Cu79    1.965   .     S
C71    C116    1.450   .     S
C71    O133    1.290   .     S
C72    C115    1.450   .     S
O73    Cu79    1.959   .     S
O74    Cu80    1.959   .     S
O74    C144    1.294   .     S
O75    Cu80    1.942   .     S
O75    C77     1.300   .     A
O76    C78     1.300   .     A
O76    Cu79    1.942   .     S
C77    C81     1.479   .     S
C77    O139    1.294   .     S
C78    C82     1.479   .     S
Cu79   N125    2.010   .     S
Cu80   N126    2.010   .     S
Cu80   Cu145   2.675   .     S
C81    C87     1.402   .     A
C81    C85     1.415   .     A
C82    C86     1.415   .     A
C82    C88     1.402   .     A
C83    C91     1.400   .     A
C83    H103    1.084   .     S
C83    C85     1.395   .     A
C84    C86     1.395   .     A
C84    C92     1.400   .     A
C84    H104    1.084   .     S
C85    N196    1.434   .     S
C87    H102    1.073   .     S
C87    C89     1.407   .     A
C88    H101    1.074   .     S
C88    C90     1.407   .     A
C89    C93     1.430   .     A
C89    C91     1.415   .     A
C90    C94     1.430   .     A
C90    C92     1.415   .     A
C91    C691    1.389   .     S
C92    C692    1.389   1_554 S
C93    C96     1.416   .     A
C93    C688    1.428   .     S
C94    C95     1.416   .     A
C94    C687    1.428   1_554 S
C95    H105    1.075   .     S
C95    C97     1.385   .     A
C96    H106    1.075   .     S
C96    C98     1.385   .     A
C97    H99     1.084   .     S
C97    C685    1.389   1_554 S
C98    H100    1.084   .     S
C98    C686    1.389   .     S
C107   C116    1.401   .     A
C107   H109    1.083   .     S
C107   C507    1.383   1_545 S
C108   H110    1.083   .     S
C108   C115    1.401   .     A
C108   C310    1.383   .     S
C111   H113    1.083   .     S
C111   C305    1.383   .     S
C111   C181    1.401   .     S
C112   H114    1.083   .     S
C112   C504    1.383   1_545 S
C116   C178    1.401   .     S
C117   C121    1.416   .     A
C117   H119    1.082   .     S
C117   N126    1.367   .     A
C118   N125    1.367   .     A
C118   H120    1.082   .     S
C118   C122    1.416   .     A
C121   N125    1.366   .     A
C121   H123    1.082   .     S
C122   H124    1.082   .     S
C122   N126    1.366   .     A
N127   O128    1.301   .     A
N127   O129    1.301   .     A
N127   C152    1.434   .     S
N130   O131    1.301   .     A
N130   O132    1.301   .     A
O133   Cu145   1.965   .     S
O134   Cu146   1.965   .     S
O134   C6      1.290   1_655 S
O135   Cu146   1.965   .     S
O135   C137    1.290   .     A
O136   C138    1.290   .     A
O136   Cu145   1.965   .     S
C137   C182    1.450   .     S
C137   O1      1.290   1_655 S
C138   C181    1.450   .     S
O139   Cu145   1.959   .     S
O140   Cu146   1.959   .     S
O140   C12     1.294   1_655 S
O141   Cu146   1.942   .     S
O141   C143    1.300   .     A
O142   C144    1.300   .     A
O142   Cu145   1.942   .     S
C143   C147    1.479   .     S
C143   O7      1.294   1_655 S
C144   C148    1.479   .     S
Cu145  N191    2.010   .     S
Cu146  N192    2.010   .     S
Cu146  Cu13    2.675   1_655 S
C147   C153    1.402   .     A
C147   C151    1.415   .     A
C148   C152    1.415   .     A
C148   C154    1.402   .     A
C149   C157    1.400   .     A
C149   H169    1.084   .     S
C149   C151    1.395   .     A
C150   C152    1.395   .     A
C150   C158    1.400   .     A
C150   H170    1.084   .     S
C151   N64     1.434   1_655 S
C153   H168    1.073   .     S
C153   C155    1.407   .     A
C154   H167    1.074   .     S
C154   C156    1.407   .     A
C155   C159    1.430   .     A
C155   C157    1.415   .     A
C156   C160    1.430   .     A
C156   C158    1.415   .     A
C157   C757    1.389   .     S
C158   C758    1.389   1_554 S
C159   C162    1.416   .     A
C159   C754    1.428   .     S
C160   C161    1.416   .     A
C160   C753    1.428   1_554 S
C161   H171    1.075   .     S
C161   C163    1.385   .     A
C162   H172    1.075   .     S
C162   C164    1.385   .     A
C163   H165    1.084   .     S
C163   C751    1.389   1_554 S
C164   H166    1.084   .     S
C164   C752    1.389   .     S
C173   C182    1.401   .     A
C173   H175    1.083   .     S
C173   C573    1.383   1_545 S
C174   H176    1.083   .     S
C174   C181    1.401   .     A
C174   C376    1.383   .     S
C177   H179    1.083   .     S
C177   C371    1.383   .     S
C177   C49     1.401   1_655 S
C178   H180    1.083   .     S
C178   C570    1.383   1_545 S
C182   C46     1.401   1_655 S
C183   C187    1.416   .     A
C183   H185    1.082   .     S
C183   N192    1.367   .     A
C184   N191    1.367   .     A
C184   H186    1.082   .     S
C184   C188    1.416   .     A
C187   N191    1.366   .     A
C187   H189    1.082   .     S
C188   H190    1.082   .     S
C188   N192    1.366   .     A
N193   O194    1.301   .     A
N193   O195    1.301   .     A
N193   C20     1.434   1_655 S
N196   O197    1.301   .     A
N196   O198    1.301   .     A
O199   Cu211   1.965   .     S
O199   C335    1.290   1_455 S
O200   Cu212   1.965   .     S
O200   C270    1.290   .     S
O201   Cu212   1.965   .     S
O201   C203    1.290   .     A
O202   C204    1.290   .     A
O202   Cu211   1.965   .     S
C203   C248    1.450   .     S
C203   O265    1.290   .     S
C204   C247    1.450   .     S
C204   O332    1.290   1_455 S
O205   Cu211   1.959   .     S
O205   C341    1.294   1_455 S
O206   Cu212   1.959   .     S
O206   C276    1.294   .     S
O207   Cu212   1.942   .     S
O207   C209    1.300   .     A
O208   C210    1.300   .     A
O208   Cu211   1.942   .     S
C209   C213    1.479   .     S
C209   O271    1.294   .     S
C210   C214    1.479   .     S
C210   O338    1.294   1_455 S
Cu211  N257    2.010   .     S
Cu211  Cu344   2.675   1_455 S
Cu212  N258    2.010   .     S
Cu212  Cu277   2.675   .     S
C213   C219    1.402   .     A
C213   C217    1.415   .     A
C214   C218    1.415   .     A
C214   C220    1.402   .     A
C215   C223    1.400   .     A
C215   H235    1.084   .     S
C215   C217    1.395   .     A
C216   C218    1.395   .     A
C216   C224    1.400   .     A
C216   H236    1.084   .     S
C217   N328    1.434   .     S
C218   N391    1.434   1_455 S
C219   H234    1.073   .     S
C219   C221    1.407   .     A
C220   H233    1.074   .     S
C220   C222    1.407   .     A
C221   C225    1.430   .     A
C221   C223    1.415   .     A
C222   C226    1.430   .     A
C222   C224    1.415   .     A
C223   C823    1.389   .     S
C224   C824    1.389   1_554 S
C225   C228    1.416   .     A
C225   C820    1.428   .     S
C226   C227    1.416   .     A
C226   C819    1.428   1_554 S
C227   H237    1.075   .     S
C227   C229    1.385   .     A
C228   H238    1.075   .     S
C228   C230    1.385   .     A
C229   H231    1.084   .     S
C229   C817    1.389   1_554 S
C230   H232    1.084   .     S
C230   C818    1.389   .     S
C239   C248    1.401   .     A
C239   H241    1.083   .     S
C240   H242    1.083   .     S
C240   C247    1.401   .     A
C240   C442    1.383   .     S
C243   H245    1.083   .     S
C243   C437    1.383   .     S
C243   C313    1.401   .     S
C244   H246    1.083   .     S
C244   C380    1.401   1_455 S
C247   C375    1.401   1_455 S
C248   C310    1.401   .     S
C249   C253    1.416   .     A
C249   H251    1.082   .     S
C249   N258    1.367   .     A
C250   N257    1.367   .     A
C250   H252    1.082   .     S
C250   C254    1.416   .     A
C253   N257    1.366   .     A
C253   H255    1.082   .     S
C254   H256    1.082   .     S
C254   N258    1.366   .     A
N259   O260    1.301   .     A
N259   O261    1.301   .     A
N259   C284    1.434   .     S
N262   O263    1.301   .     A
N262   O264    1.301   .     A
N262   C349    1.434   1_455 S
O265   Cu277   1.965   .     S
O266   Cu278   1.965   .     S
O266   C336    1.290   .     S
O267   Cu278   1.965   .     S
O267   C269    1.290   .     A
O268   C270    1.290   .     A
O268   Cu277   1.965   .     S
C269   C314    1.450   .     S
C269   O331    1.290   .     S
C270   C313    1.450   .     S
O271   Cu277   1.959   .     S
O272   Cu278   1.959   .     S
O272   C342    1.294   .     S
O273   Cu278   1.942   .     S
O273   C275    1.300   .     A
O274   C276    1.300   .     A
O274   Cu277   1.942   .     S
C275   C279    1.479   .     S
C275   O337    1.294   .     S
C276   C280    1.479   .     S
Cu277  N323    2.010   .     S
Cu278  N324    2.010   .     S
Cu278  Cu343   2.675   .     S
C279   C285    1.402   .     A
C279   C283    1.415   .     A
C280   C284    1.415   .     A
C280   C286    1.402   .     A
C281   C289    1.400   .     A
C281   H301    1.084   .     S
C281   C283    1.395   .     A
C282   C284    1.395   .     A
C282   C290    1.400   .     A
C282   H302    1.084   .     S
C283   N394    1.434   .     S
C285   H300    1.073   .     S
C285   C287    1.407   .     A
C286   H299    1.074   .     S
C286   C288    1.407   .     A
C287   C291    1.430   .     A
C287   C289    1.415   .     A
C288   C292    1.430   .     A
C288   C290    1.415   .     A
C289   C889    1.389   .     S
C290   C890    1.389   1_554 S
C291   C294    1.416   .     A
C291   C886    1.428   .     S
C292   C293    1.416   .     A
C292   C885    1.428   1_554 S
C293   H303    1.075   .     S
C293   C295    1.385   .     A
C294   H304    1.075   .     S
C294   C296    1.385   .     A
C295   H297    1.084   .     S
C295   C883    1.389   1_554 S
C296   H298    1.084   .     S
C296   C884    1.389   .     S
C305   C314    1.401   .     A
C305   H307    1.083   .     S
C306   H308    1.083   .     S
C306   C313    1.401   .     A
C306   C508    1.383   .     S
C309   H311    1.083   .     S
C309   C503    1.383   .     S
C309   C379    1.401   .     S
C310   H312    1.083   .     S
C314   C376    1.401   .     S
C315   C319    1.416   .     A
C315   H317    1.082   .     S
C315   N324    1.367   .     A
C316   N323    1.367   .     A
C316   H318    1.082   .     S
C316   C320    1.416   .     A
C319   N323    1.366   .     A
C319   H321    1.082   .     S
C320   H322    1.082   .     S
C320   N324    1.366   .     A
N325   O326    1.301   .     A
N325   O327    1.301   .     A
N325   C350    1.434   .     S
N328   O329    1.301   .     A
N328   O330    1.301   .     A
O331   Cu343   1.965   .     S
O332   Cu344   1.965   .     S
O332   C204    1.290   1_655 S
O333   Cu344   1.965   .     S
O333   C335    1.290   .     A
O334   C336    1.290   .     A
O334   Cu343   1.965   .     S
C335   C380    1.450   .     S
C335   O199    1.290   1_655 S
C336   C379    1.450   .     S
O337   Cu343   1.959   .     S
O338   Cu344   1.959   .     S
O338   C210    1.294   1_655 S
O339   Cu344   1.942   .     S
O339   C341    1.300   .     A
O340   C342    1.300   .     A
O340   Cu343   1.942   .     S
C341   C345    1.479   .     S
C341   O205    1.294   1_655 S
C342   C346    1.479   .     S
Cu343  N389    2.010   .     S
Cu344  N390    2.010   .     S
Cu344  Cu211   2.675   1_655 S
C345   C351    1.402   .     A
C345   C349    1.415   .     A
C346   C350    1.415   .     A
C346   C352    1.402   .     A
C347   C355    1.400   .     A
C347   H367    1.084   .     S
C347   C349    1.395   .     A
C348   C350    1.395   .     A
C348   C356    1.400   .     A
C348   H368    1.084   .     S
C349   N262    1.434   1_655 S
C351   H366    1.073   .     S
C351   C353    1.407   .     A
C352   H365    1.074   .     S
C352   C354    1.407   .     A
C353   C357    1.430   .     A
C353   C355    1.415   .     A
C354   C358    1.430   .     A
C354   C356    1.415   .     A
C355   C955    1.389   .     S
C356   C956    1.389   1_554 S
C357   C360    1.416   .     A
C357   C952    1.428   .     S
C358   C359    1.416   .     A
C358   C951    1.428   1_554 S
C359   H369    1.075   .     S
C359   C361    1.385   .     A
C360   H370    1.075   .     S
C360   C362    1.385   .     A
C361   H363    1.084   .     S
C361   C949    1.389   1_554 S
C362   H364    1.084   .     S
C362   C950    1.389   .     S
C371   C380    1.401   .     A
C371   H373    1.083   .     S
C372   H374    1.083   .     S
C372   C379    1.401   .     A
C372   C574    1.383   .     S
C375   H377    1.083   .     S
C375   C569    1.383   .     S
C375   C247    1.401   1_655 S
C376   H378    1.083   .     S
C380   C244    1.401   1_655 S
C381   C385    1.416   .     A
C381   H383    1.082   .     S
C381   N390    1.367   .     A
C382   N389    1.367   .     A
C382   H384    1.082   .     S
C382   C386    1.416   .     A
C385   N389    1.366   .     A
C385   H387    1.082   .     S
C386   H388    1.082   .     S
C386   N390    1.366   .     A
N391   O392    1.301   .     A
N391   O393    1.301   .     A
N391   C218    1.434   1_655 S
N394   O395    1.301   .     A
N394   O396    1.301   .     A
O397   Cu409   1.965   .     S
O397   C533    1.290   1_455 S
O398   Cu410   1.965   .     S
O398   C468    1.290   .     S
O399   Cu410   1.965   .     S
O399   C401    1.290   .     A
O400   C402    1.290   .     A
O400   Cu409   1.965   .     S
C401   C446    1.450   .     S
C401   O463    1.290   .     S
C402   C445    1.450   .     S
C402   O530    1.290   1_455 S
O403   Cu409   1.959   .     S
O403   C539    1.294   1_455 S
O404   Cu410   1.959   .     S
O404   C474    1.294   .     S
O405   Cu410   1.942   .     S
O405   C407    1.300   .     A
O406   C408    1.300   .     A
O406   Cu409   1.942   .     S
C407   C411    1.479   .     S
C407   O469    1.294   .     S
C408   C412    1.479   .     S
C408   O536    1.294   1_455 S
Cu409  N455    2.010   .     S
Cu409  Cu542   2.675   1_455 S
Cu410  N456    2.010   .     S
Cu410  Cu475   2.675   .     S
C411   C417    1.402   .     A
C411   C415    1.415   .     A
C412   C416    1.415   .     A
C412   C418    1.402   .     A
C413   C421    1.400   .     A
C413   H433    1.084   .     S
C413   C415    1.395   .     A
C414   C416    1.395   .     A
C414   C422    1.400   .     A
C414   H434    1.084   .     S
C415   N526    1.434   .     S
C416   N589    1.434   1_455 S
C417   H432    1.073   .     S
C417   C419    1.407   .     A
C418   H431    1.074   .     S
C418   C420    1.407   .     A
C419   C423    1.430   .     A
C419   C421    1.415   .     A
C420   C424    1.430   .     A
C420   C422    1.415   .     A
C421   C1021   1.389   .     S
C422   C1022   1.389   1_554 S
C423   C426    1.416   .     A
C423   C1018   1.428   .     S
C424   C425    1.416   .     A
C424   C1017   1.428   1_554 S
C425   H435    1.075   .     S
C425   C427    1.385   .     A
C426   H436    1.075   .     S
C426   C428    1.385   .     A
C427   H429    1.084   .     S
C427   C1015   1.389   1_554 S
C428   H430    1.084   .     S
C428   C1016   1.389   .     S
C437   C446    1.401   .     A
C437   H439    1.083   .     S
C438   H440    1.083   .     S
C438   C445    1.401   .     A
C438   C46     1.383   1_565 S
C441   H443    1.083   .     S
C441   C41     1.383   1_565 S
C441   C511    1.401   .     S
C442   H444    1.083   .     S
C442   C578    1.401   1_455 S
C445   C573    1.401   1_455 S
C446   C508    1.401   .     S
C447   C451    1.416   .     A
C447   H449    1.082   .     S
C447   N456    1.367   .     A
C448   N455    1.367   .     A
C448   H450    1.082   .     S
C448   C452    1.416   .     A
C451   N455    1.366   .     A
C451   H453    1.082   .     S
C452   H454    1.082   .     S
C452   N456    1.366   .     A
N457   O458    1.301   .     A
N457   O459    1.301   .     A
N457   C482    1.434   .     S
N460   O461    1.301   .     A
N460   O462    1.301   .     A
N460   C547    1.434   1_455 S
O463   Cu475   1.965   .     S
O464   Cu476   1.965   .     S
O464   C534    1.290   .     S
O465   Cu476   1.965   .     S
O465   C467    1.290   .     A
O466   C468    1.290   .     A
O466   Cu475   1.965   .     S
C467   C512    1.450   .     S
C467   O529    1.290   .     S
C468   C511    1.450   .     S
O469   Cu475   1.959   .     S
O470   Cu476   1.959   .     S
O470   C540    1.294   .     S
O471   Cu476   1.942   .     S
O471   C473    1.300   .     A
O472   C474    1.300   .     A
O472   Cu475   1.942   .     S
C473   C477    1.479   .     S
C473   O535    1.294   .     S
C474   C478    1.479   .     S
Cu475  N521    2.010   .     S
Cu476  N522    2.010   .     S
Cu476  Cu541   2.675   .     S
C477   C483    1.402   .     A
C477   C481    1.415   .     A
C478   C482    1.415   .     A
C478   C484    1.402   .     A
C479   C487    1.400   .     A
C479   H499    1.084   .     S
C479   C481    1.395   .     A
C480   C482    1.395   .     A
C480   C488    1.400   .     A
C480   H500    1.084   .     S
C481   N592    1.434   .     S
C483   H498    1.073   .     S
C483   C485    1.407   .     A
C484   H497    1.074   .     S
C484   C486    1.407   .     A
C485   C489    1.430   .     A
C485   C487    1.415   .     A
C486   C490    1.430   .     A
C486   C488    1.415   .     A
C487   C1087   1.389   .     S
C488   C1088   1.389   1_554 S
C489   C492    1.416   .     A
C489   C1084   1.428   .     S
C490   C491    1.416   .     A
C490   C1083   1.428   1_554 S
C491   H501    1.075   .     S
C491   C493    1.385   .     A
C492   H502    1.075   .     S
C492   C494    1.385   .     A
C493   H495    1.084   .     S
C493   C1081   1.389   1_554 S
C494   H496    1.084   .     S
C494   C1082   1.389   .     S
C503   C512    1.401   .     A
C503   H505    1.083   .     S
C504   H506    1.083   .     S
C504   C511    1.401   .     A
C504   C112    1.383   1_565 S
C507   H509    1.083   .     S
C507   C107    1.383   1_565 S
C507   C577    1.401   .     S
C508   H510    1.083   .     S
C512   C574    1.401   .     S
C513   C517    1.416   .     A
C513   H515    1.082   .     S
C513   N522    1.367   .     A
C514   N521    1.367   .     A
C514   H516    1.082   .     S
C514   C518    1.416   .     A
C517   N521    1.366   .     A
C517   H519    1.082   .     S
C518   H520    1.082   .     S
C518   N522    1.366   .     A
N523   O524    1.301   .     A
N523   O525    1.301   .     A
N523   C548    1.434   .     S
N526   O527    1.301   .     A
N526   O528    1.301   .     A
O529   Cu541   1.965   .     S
O530   Cu542   1.965   .     S
O530   C402    1.290   1_655 S
O531   Cu542   1.965   .     S
O531   C533    1.290   .     A
O532   C534    1.290   .     A
O532   Cu541   1.965   .     S
C533   C578    1.450   .     S
C533   O397    1.290   1_655 S
C534   C577    1.450   .     S
O535   Cu541   1.959   .     S
O536   Cu542   1.959   .     S
O536   C408    1.294   1_655 S
O537   Cu542   1.942   .     S
O537   C539    1.300   .     A
O538   C540    1.300   .     A
O538   Cu541   1.942   .     S
C539   C543    1.479   .     S
C539   O403    1.294   1_655 S
C540   C544    1.479   .     S
Cu541  N587    2.010   .     S
Cu542  N588    2.010   .     S
Cu542  Cu409   2.675   1_655 S
C543   C549    1.402   .     A
C543   C547    1.415   .     A
C544   C548    1.415   .     A
C544   C550    1.402   .     A
C545   C553    1.400   .     A
C545   H565    1.084   .     S
C545   C547    1.395   .     A
C546   C548    1.395   .     A
C546   C554    1.400   .     A
C546   H566    1.084   .     S
C547   N460    1.434   1_655 S
C549   H564    1.073   .     S
C549   C551    1.407   .     A
C550   H563    1.074   .     S
C550   C552    1.407   .     A
C551   C555    1.430   .     A
C551   C553    1.415   .     A
C552   C556    1.430   .     A
C552   C554    1.415   .     A
C553   C1153   1.389   .     S
C554   C1154   1.389   1_554 S
C555   C558    1.416   .     A
C555   C1150   1.428   .     S
C556   C557    1.416   .     A
C556   C1149   1.428   1_554 S
C557   H567    1.075   .     S
C557   C559    1.385   .     A
C558   H568    1.075   .     S
C558   C560    1.385   .     A
C559   H561    1.084   .     S
C559   C1147   1.389   1_554 S
C560   H562    1.084   .     S
C560   C1148   1.389   .     S
C569   C578    1.401   .     A
C569   H571    1.083   .     S
C570   H572    1.083   .     S
C570   C577    1.401   .     A
C570   C178    1.383   1_565 S
C573   H575    1.083   .     S
C573   C173    1.383   1_565 S
C573   C445    1.401   1_655 S
C574   H576    1.083   .     S
C578   C442    1.401   1_655 S
C579   C583    1.416   .     A
C579   H581    1.082   .     S
C579   N588    1.367   .     A
C580   N587    1.367   .     A
C580   H582    1.082   .     S
C580   C584    1.416   .     A
C583   N587    1.366   .     A
C583   H585    1.082   .     S
C584   H586    1.082   .     S
C584   N588    1.366   .     A
N589   O590    1.301   .     A
N589   O591    1.301   .     A
N589   C416    1.434   1_655 S
N592   O593    1.301   .     A
N592   O594    1.301   .     A
O595   Cu607   1.965   .     S
O595   C731    1.290   1_455 S
O596   Cu608   1.965   .     S
O596   C666    1.290   .     S
O597   Cu608   1.965   .     S
O597   C599    1.290   .     A
O598   C600    1.290   .     A
O598   Cu607   1.965   .     S
C599   C644    1.450   .     S
C599   O661    1.290   .     S
C600   C643    1.450   .     S
C600   O728    1.290   1_455 S
O601   Cu607   1.959   .     S
O601   C737    1.294   1_455 S
O602   Cu608   1.959   .     S
O602   C672    1.294   .     S
O603   Cu608   1.942   .     S
O603   C605    1.300   .     A
O604   C606    1.300   .     A
O604   Cu607   1.942   .     S
C605   C609    1.479   .     S
C605   O667    1.294   .     S
C606   C610    1.479   .     S
C606   O734    1.294   1_455 S
Cu607  N653    2.010   .     S
Cu607  Cu740   2.675   1_455 S
Cu608  N654    2.010   .     S
Cu608  Cu673   2.675   .     S
C609   C615    1.402   .     A
C609   C613    1.415   .     A
C610   C614    1.415   .     A
C610   C616    1.402   .     A
C611   C619    1.400   .     A
C611   H631    1.084   .     S
C611   C613    1.395   .     A
C612   C614    1.395   .     A
C612   C620    1.400   .     A
C612   H632    1.084   .     S
C613   N724    1.434   .     S
C614   N787    1.434   1_455 S
C615   H630    1.073   .     S
C615   C617    1.407   .     A
C616   H629    1.074   .     S
C616   C618    1.407   .     A
C617   C621    1.430   .     A
C617   C619    1.415   .     A
C618   C622    1.430   .     A
C618   C620    1.415   .     A
C619   C31     1.389   1_556 S
C621   C624    1.416   .     A
C621   C28     1.428   1_556 S
C622   C623    1.416   .     A
C623   H633    1.075   .     S
C623   C625    1.385   .     A
C624   H634    1.075   .     S
C624   C626    1.385   .     A
C625   H627    1.084   .     S
C626   H628    1.084   .     S
C626   C26     1.389   1_556 S
C635   C644    1.401   .     A
C635   H637    1.083   .     S
C635   C1035   1.383   1_545 S
C636   H638    1.083   .     S
C636   C643    1.401   .     A
C636   C838    1.383   .     S
C639   H641    1.083   .     S
C639   C833    1.383   .     S
C639   C709    1.401   .     S
C640   H642    1.083   .     S
C640   C1032   1.383   1_545 S
C640   C776    1.401   1_455 S
C643   C771    1.401   1_455 S
C644   C706    1.401   .     S
C645   C649    1.416   .     A
C645   H647    1.082   .     S
C645   N654    1.367   .     A
C646   N653    1.367   .     A
C646   H648    1.082   .     S
C646   C650    1.416   .     A
C649   N653    1.366   .     A
C649   H651    1.082   .     S
C650   H652    1.082   .     S
C650   N654    1.366   .     A
N655   O656    1.301   .     A
N655   O657    1.301   .     A
N655   C680    1.434   .     S
N658   O659    1.301   .     A
N658   O660    1.301   .     A
N658   C745    1.434   1_455 S
O661   Cu673   1.965   .     S
O662   Cu674   1.965   .     S
O662   C732    1.290   .     S
O663   Cu674   1.965   .     S
O663   C665    1.290   .     A
O664   C666    1.290   .     A
O664   Cu673   1.965   .     S
C665   C710    1.450   .     S
C665   O727    1.290   .     S
C666   C709    1.450   .     S
O667   Cu673   1.959   .     S
O668   Cu674   1.959   .     S
O668   C738    1.294   .     S
O669   Cu674   1.942   .     S
O669   C671    1.300   .     A
O670   C672    1.300   .     A
O670   Cu673   1.942   .     S
C671   C675    1.479   .     S
C671   O733    1.294   .     S
C672   C676    1.479   .     S
Cu673  N719    2.010   .     S
Cu674  N720    2.010   .     S
Cu674  Cu739   2.675   .     S
C675   C681    1.402   .     A
C675   C679    1.415   .     A
C676   C680    1.415   .     A
C676   C682    1.402   .     A
C677   C685    1.400   .     A
C677   H697    1.084   .     S
C677   C679    1.395   .     A
C678   C680    1.395   .     A
C678   C686    1.400   .     A
C678   H698    1.084   .     S
C679   N790    1.434   .     S
C681   H696    1.073   .     S
C681   C683    1.407   .     A
C682   H695    1.074   .     S
C682   C684    1.407   .     A
C683   C687    1.430   .     A
C683   C685    1.415   .     A
C684   C688    1.430   .     A
C684   C686    1.415   .     A
C685   C97     1.389   1_556 S
C687   C690    1.416   .     A
C687   C94     1.428   1_556 S
C688   C689    1.416   .     A
C689   H699    1.075   .     S
C689   C691    1.385   .     A
C690   H700    1.075   .     S
C690   C692    1.385   .     A
C691   H693    1.084   .     S
C692   H694    1.084   .     S
C692   C92     1.389   1_556 S
C701   C710    1.401   .     A
C701   H703    1.083   .     S
C701   C1101   1.383   1_545 S
C702   H704    1.083   .     S
C702   C709    1.401   .     A
C702   C904    1.383   .     S
C705   H707    1.083   .     S
C705   C899    1.383   .     S
C705   C775    1.401   .     S
C706   H708    1.083   .     S
C706   C1098   1.383   1_545 S
C710   C772    1.401   .     S
C711   C715    1.416   .     A
C711   H713    1.082   .     S
C711   N720    1.367   .     A
C712   N719    1.367   .     A
C712   H714    1.082   .     S
C712   C716    1.416   .     A
C715   N719    1.366   .     A
C715   H717    1.082   .     S
C716   H718    1.082   .     S
C716   N720    1.366   .     A
N721   O722    1.301   .     A
N721   O723    1.301   .     A
N721   C746    1.434   .     S
N724   O725    1.301   .     A
N724   O726    1.301   .     A
O727   Cu739   1.965   .     S
O728   Cu740   1.965   .     S
O728   C600    1.290   1_655 S
O729   Cu740   1.965   .     S
O729   C731    1.290   .     A
O730   C732    1.290   .     A
O730   Cu739   1.965   .     S
C731   C776    1.450   .     S
C731   O595    1.290   1_655 S
C732   C775    1.450   .     S
O733   Cu739   1.959   .     S
O734   Cu740   1.959   .     S
O734   C606    1.294   1_655 S
O735   Cu740   1.942   .     S
O735   C737    1.300   .     A
O736   C738    1.300   .     A
O736   Cu739   1.942   .     S
C737   C741    1.479   .     S
C737   O601    1.294   1_655 S
C738   C742    1.479   .     S
Cu739  N785    2.010   .     S
Cu740  N786    2.010   .     S
Cu740  Cu607   2.675   1_655 S
C741   C747    1.402   .     A
C741   C745    1.415   .     A
C742   C746    1.415   .     A
C742   C748    1.402   .     A
C743   C751    1.400   .     A
C743   H763    1.084   .     S
C743   C745    1.395   .     A
C744   C746    1.395   .     A
C744   C752    1.400   .     A
C744   H764    1.084   .     S
C745   N658    1.434   1_655 S
C747   H762    1.073   .     S
C747   C749    1.407   .     A
C748   H761    1.074   .     S
C748   C750    1.407   .     A
C749   C753    1.430   .     A
C749   C751    1.415   .     A
C750   C754    1.430   .     A
C750   C752    1.415   .     A
C751   C163    1.389   1_556 S
C753   C756    1.416   .     A
C753   C160    1.428   1_556 S
C754   C755    1.416   .     A
C755   H765    1.075   .     S
C755   C757    1.385   .     A
C756   H766    1.075   .     S
C756   C758    1.385   .     A
C757   H759    1.084   .     S
C758   H760    1.084   .     S
C758   C158    1.389   1_556 S
C767   C776    1.401   .     A
C767   H769    1.083   .     S
C767   C1167   1.383   1_545 S
C768   H770    1.083   .     S
C768   C775    1.401   .     A
C768   C970    1.383   .     S
C771   H773    1.083   .     S
C771   C965    1.383   .     S
C771   C643    1.401   1_655 S
C772   H774    1.083   .     S
C772   C1164   1.383   1_545 S
C776   C640    1.401   1_655 S
C777   C781    1.416   .     A
C777   H779    1.082   .     S
C777   N786    1.367   .     A
C778   N785    1.367   .     A
C778   H780    1.082   .     S
C778   C782    1.416   .     A
C781   N785    1.366   .     A
C781   H783    1.082   .     S
C782   H784    1.082   .     S
C782   N786    1.366   .     A
N787   O788    1.301   .     A
N787   O789    1.301   .     A
N787   C614    1.434   1_655 S
N790   O791    1.301   .     A
N790   O792    1.301   .     A
O793   Cu805   1.965   .     S
O793   C929    1.290   1_455 S
O794   Cu806   1.965   .     S
O794   C864    1.290   .     S
O795   Cu806   1.965   .     S
O795   C797    1.290   .     A
O796   C798    1.290   .     A
O796   Cu805   1.965   .     S
C797   C842    1.450   .     S
C797   O859    1.290   .     S
C798   C841    1.450   .     S
C798   O926    1.290   1_455 S
O799   Cu805   1.959   .     S
O799   C935    1.294   1_455 S
O800   Cu806   1.959   .     S
O800   C870    1.294   .     S
O801   Cu806   1.942   .     S
O801   C803    1.300   .     A
O802   C804    1.300   .     A
O802   Cu805   1.942   .     S
C803   C807    1.479   .     S
C803   O865    1.294   .     S
C804   C808    1.479   .     S
C804   O932    1.294   1_455 S
Cu805  N851    2.010   .     S
Cu805  Cu938   2.675   1_455 S
Cu806  N852    2.010   .     S
Cu806  Cu871   2.675   .     S
C807   C813    1.402   .     A
C807   C811    1.415   .     A
C808   C812    1.415   .     A
C808   C814    1.402   .     A
C809   C817    1.400   .     A
C809   H829    1.084   .     S
C809   C811    1.395   .     A
C810   C812    1.395   .     A
C810   C818    1.400   .     A
C810   H830    1.084   .     S
C811   N922    1.434   .     S
C812   N985    1.434   1_455 S
C813   H828    1.073   .     S
C813   C815    1.407   .     A
C814   H827    1.074   .     S
C814   C816    1.407   .     A
C815   C819    1.430   .     A
C815   C817    1.415   .     A
C816   C820    1.430   .     A
C816   C818    1.415   .     A
C817   C229    1.389   1_556 S
C819   C822    1.416   .     A
C819   C226    1.428   1_556 S
C820   C821    1.416   .     A
C821   H831    1.075   .     S
C821   C823    1.385   .     A
C822   H832    1.075   .     S
C822   C824    1.385   .     A
C823   H825    1.084   .     S
C824   H826    1.084   .     S
C824   C224    1.389   1_556 S
C833   C842    1.401   .     A
C833   H835    1.083   .     S
C834   H836    1.083   .     S
C834   C841    1.401   .     A
C834   C1036   1.383   .     S
C837   H839    1.083   .     S
C837   C1031   1.383   .     S
C837   C907    1.401   .     S
C838   H840    1.083   .     S
C838   C974    1.401   1_455 S
C841   C969    1.401   1_455 S
C842   C904    1.401   .     S
C843   C847    1.416   .     A
C843   H845    1.082   .     S
C843   N852    1.367   .     A
C844   N851    1.367   .     A
C844   H846    1.082   .     S
C844   C848    1.416   .     A
C847   N851    1.366   .     A
C847   H849    1.082   .     S
C848   H850    1.082   .     S
C848   N852    1.366   .     A
N853   O854    1.301   .     A
N853   O855    1.301   .     A
N853   C878    1.434   .     S
N856   O857    1.301   .     A
N856   O858    1.301   .     A
N856   C943    1.434   1_455 S
O859   Cu871   1.965   .     S
O860   Cu872   1.965   .     S
O860   C930    1.290   .     S
O861   Cu872   1.965   .     S
O861   C863    1.290   .     A
O862   C864    1.290   .     A
O862   Cu871   1.965   .     S
C863   C908    1.450   .     S
C863   O925    1.290   .     S
C864   C907    1.450   .     S
O865   Cu871   1.959   .     S
O866   Cu872   1.959   .     S
O866   C936    1.294   .     S
O867   Cu872   1.942   .     S
O867   C869    1.300   .     A
O868   C870    1.300   .     A
O868   Cu871   1.942   .     S
C869   C873    1.479   .     S
C869   O931    1.294   .     S
C870   C874    1.479   .     S
Cu871  N917    2.010   .     S
Cu872  N918    2.010   .     S
Cu872  Cu937   2.675   .     S
C873   C879    1.402   .     A
C873   C877    1.415   .     A
C874   C878    1.415   .     A
C874   C880    1.402   .     A
C875   C883    1.400   .     A
C875   H895    1.084   .     S
C875   C877    1.395   .     A
C876   C878    1.395   .     A
C876   C884    1.400   .     A
C876   H896    1.084   .     S
C877   N988    1.434   .     S
C879   H894    1.073   .     S
C879   C881    1.407   .     A
C880   H893    1.074   .     S
C880   C882    1.407   .     A
C881   C885    1.430   .     A
C881   C883    1.415   .     A
C882   C886    1.430   .     A
C882   C884    1.415   .     A
C883   C295    1.389   1_556 S
C885   C888    1.416   .     A
C885   C292    1.428   1_556 S
C886   C887    1.416   .     A
C887   H897    1.075   .     S
C887   C889    1.385   .     A
C888   H898    1.075   .     S
C888   C890    1.385   .     A
C889   H891    1.084   .     S
C890   H892    1.084   .     S
C890   C290    1.389   1_556 S
C899   C908    1.401   .     A
C899   H901    1.083   .     S
C900   H902    1.083   .     S
C900   C907    1.401   .     A
C900   C1102   1.383   .     S
C903   H905    1.083   .     S
C903   C1097   1.383   .     S
C903   C973    1.401   .     S
C904   H906    1.083   .     S
C908   C970    1.401   .     S
C909   C913    1.416   .     A
C909   H911    1.082   .     S
C909   N918    1.367   .     A
C910   N917    1.367   .     A
C910   H912    1.082   .     S
C910   C914    1.416   .     A
C913   N917    1.366   .     A
C913   H915    1.082   .     S
C914   H916    1.082   .     S
C914   N918    1.366   .     A
N919   O920    1.301   .     A
N919   O921    1.301   .     A
N919   C944    1.434   .     S
N922   O923    1.301   .     A
N922   O924    1.301   .     A
O925   Cu937   1.965   .     S
O926   Cu938   1.965   .     S
O926   C798    1.290   1_655 S
O927   Cu938   1.965   .     S
O927   C929    1.290   .     A
O928   C930    1.290   .     A
O928   Cu937   1.965   .     S
C929   C974    1.450   .     S
C929   O793    1.290   1_655 S
C930   C973    1.450   .     S
O931   Cu937   1.959   .     S
O932   Cu938   1.959   .     S
O932   C804    1.294   1_655 S
O933   Cu938   1.942   .     S
O933   C935    1.300   .     A
O934   C936    1.300   .     A
O934   Cu937   1.942   .     S
C935   C939    1.479   .     S
C935   O799    1.294   1_655 S
C936   C940    1.479   .     S
Cu937  N983    2.010   .     S
Cu938  N984    2.010   .     S
Cu938  Cu805   2.675   1_655 S
C939   C945    1.402   .     A
C939   C943    1.415   .     A
C940   C944    1.415   .     A
C940   C946    1.402   .     A
C941   C949    1.400   .     A
C941   H961    1.084   .     S
C941   C943    1.395   .     A
C942   C944    1.395   .     A
C942   C950    1.400   .     A
C942   H962    1.084   .     S
C943   N856    1.434   1_655 S
C945   H960    1.073   .     S
C945   C947    1.407   .     A
C946   H959    1.074   .     S
C946   C948    1.407   .     A
C947   C951    1.430   .     A
C947   C949    1.415   .     A
C948   C952    1.430   .     A
C948   C950    1.415   .     A
C949   C361    1.389   1_556 S
C951   C954    1.416   .     A
C951   C358    1.428   1_556 S
C952   C953    1.416   .     A
C953   H963    1.075   .     S
C953   C955    1.385   .     A
C954   H964    1.075   .     S
C954   C956    1.385   .     A
C955   H957    1.084   .     S
C956   H958    1.084   .     S
C956   C356    1.389   1_556 S
C965   C974    1.401   .     A
C965   H967    1.083   .     S
C966   H968    1.083   .     S
C966   C973    1.401   .     A
C966   C1168   1.383   .     S
C969   H971    1.083   .     S
C969   C1163   1.383   .     S
C969   C841    1.401   1_655 S
C970   H972    1.083   .     S
C974   C838    1.401   1_655 S
C975   C979    1.416   .     A
C975   H977    1.082   .     S
C975   N984    1.367   .     A
C976   N983    1.367   .     A
C976   H978    1.082   .     S
C976   C980    1.416   .     A
C979   N983    1.366   .     A
C979   H981    1.082   .     S
C980   H982    1.082   .     S
C980   N984    1.366   .     A
N985   O986    1.301   .     A
N985   O987    1.301   .     A
N985   C812    1.434   1_655 S
N988   O989    1.301   .     A
N988   O990    1.301   .     A
O991   Cu1003  1.965   .     S
O991   C1127   1.290   1_455 S
O992   Cu1004  1.965   .     S
O992   C1062   1.290   .     S
O993   Cu1004  1.965   .     S
O993   C995    1.290   .     A
O994   C996    1.290   .     A
O994   Cu1003  1.965   .     S
C995   C1040   1.450   .     S
C995   O1057   1.290   .     S
C996   C1039   1.450   .     S
C996   O1124   1.290   1_455 S
O997   Cu1003  1.959   .     S
O997   C1133   1.294   1_455 S
O998   Cu1004  1.959   .     S
O998   C1068   1.294   .     S
O999   Cu1004  1.942   .     S
O999   C1001   1.300   .     A
O1000  C1002   1.300   .     A
O1000  Cu1003  1.942   .     S
C1001  C1005   1.479   .     S
C1001  O1063   1.294   .     S
C1002  C1006   1.479   .     S
C1002  O1130   1.294   1_455 S
Cu1003 N1049   2.010   .     S
Cu1003 Cu1136  2.675   1_455 S
Cu1004 N1050   2.010   .     S
Cu1004 Cu1069  2.675   .     S
C1005  C1011   1.402   .     A
C1005  C1009   1.415   .     A
C1006  C1010   1.415   .     A
C1006  C1012   1.402   .     A
C1007  C1015   1.400   .     A
C1007  H1027   1.084   .     S
C1007  C1009   1.395   .     A
C1008  C1010   1.395   .     A
C1008  C1016   1.400   .     A
C1008  H1028   1.084   .     S
C1009  N1120   1.434   .     S
C1010  N1183   1.434   1_455 S
C1011  H1026   1.073   .     S
C1011  C1013   1.407   .     A
C1012  H1025   1.074   .     S
C1012  C1014   1.407   .     A
C1013  C1017   1.430   .     A
C1013  C1015   1.415   .     A
C1014  C1018   1.430   .     A
C1014  C1016   1.415   .     A
C1015  C427    1.389   1_556 S
C1017  C1020   1.416   .     A
C1017  C424    1.428   1_556 S
C1018  C1019   1.416   .     A
C1019  H1029   1.075   .     S
C1019  C1021   1.385   .     A
C1020  H1030   1.075   .     S
C1020  C1022   1.385   .     A
C1021  H1023   1.084   .     S
C1022  H1024   1.084   .     S
C1022  C422    1.389   1_556 S
C1031  C1040   1.401   .     A
C1031  H1033   1.083   .     S
C1032  H1034   1.083   .     S
C1032  C1039   1.401   .     A
C1032  C640    1.383   1_565 S
C1035  H1037   1.083   .     S
C1035  C635    1.383   1_565 S
C1035  C1105   1.401   .     S
C1036  H1038   1.083   .     S
C1036  C1172   1.401   1_455 S
C1039  C1167   1.401   1_455 S
C1040  C1102   1.401   .     S
C1041  C1045   1.416   .     A
C1041  H1043   1.082   .     S
C1041  N1050   1.367   .     A
C1042  N1049   1.367   .     A
C1042  H1044   1.082   .     S
C1042  C1046   1.416   .     A
C1045  N1049   1.366   .     A
C1045  H1047   1.082   .     S
C1046  H1048   1.082   .     S
C1046  N1050   1.366   .     A
N1051  O1052   1.301   .     A
N1051  O1053   1.301   .     A
N1051  C1076   1.434   .     S
N1054  O1055   1.301   .     A
N1054  O1056   1.301   .     A
N1054  C1141   1.434   1_455 S
O1057  Cu1069  1.965   .     S
O1058  Cu1070  1.965   .     S
O1058  C1128   1.290   .     S
O1059  Cu1070  1.965   .     S
O1059  C1061   1.290   .     A
O1060  C1062   1.290   .     A
O1060  Cu1069  1.965   .     S
C1061  C1106   1.450   .     S
C1061  O1123   1.290   .     S
C1062  C1105   1.450   .     S
O1063  Cu1069  1.959   .     S
O1064  Cu1070  1.959   .     S
O1064  C1134   1.294   .     S
O1065  Cu1070  1.942   .     S
O1065  C1067   1.300   .     A
O1066  C1068   1.300   .     A
O1066  Cu1069  1.942   .     S
C1067  C1071   1.479   .     S
C1067  O1129   1.294   .     S
C1068  C1072   1.479   .     S
Cu1069 N1115   2.010   .     S
Cu1070 N1116   2.010   .     S
Cu1070 Cu1135  2.675   .     S
C1071  C1077   1.402   .     A
C1071  C1075   1.415   .     A
C1072  C1076   1.415   .     A
C1072  C1078   1.402   .     A
C1073  C1081   1.400   .     A
C1073  H1093   1.084   .     S
C1073  C1075   1.395   .     A
C1074  C1076   1.395   .     A
C1074  C1082   1.400   .     A
C1074  H1094   1.084   .     S
C1075  N1186   1.434   .     S
C1077  H1092   1.073   .     S
C1077  C1079   1.407   .     A
C1078  H1091   1.074   .     S
C1078  C1080   1.407   .     A
C1079  C1083   1.430   .     A
C1079  C1081   1.415   .     A
C1080  C1084   1.430   .     A
C1080  C1082   1.415   .     A
C1081  C493    1.389   1_556 S
C1083  C1086   1.416   .     A
C1083  C490    1.428   1_556 S
C1084  C1085   1.416   .     A
C1085  H1095   1.075   .     S
C1085  C1087   1.385   .     A
C1086  H1096   1.075   .     S
C1086  C1088   1.385   .     A
C1087  H1089   1.084   .     S
C1088  H1090   1.084   .     S
C1088  C488    1.389   1_556 S
C1097  C1106   1.401   .     A
C1097  H1099   1.083   .     S
C1098  H1100   1.083   .     S
C1098  C1105   1.401   .     A
C1098  C706    1.383   1_565 S
C1101  H1103   1.083   .     S
C1101  C701    1.383   1_565 S
C1101  C1171   1.401   .     S
C1102  H1104   1.083   .     S
C1106  C1168   1.401   .     S
C1107  C1111   1.416   .     A
C1107  H1109   1.082   .     S
C1107  N1116   1.367   .     A
C1108  N1115   1.367   .     A
C1108  H1110   1.082   .     S
C1108  C1112   1.416   .     A
C1111  N1115   1.366   .     A
C1111  H1113   1.082   .     S
C1112  H1114   1.082   .     S
C1112  N1116   1.366   .     A
N1117  O1118   1.301   .     A
N1117  O1119   1.301   .     A
N1117  C1142   1.434   .     S
N1120  O1121   1.301   .     A
N1120  O1122   1.301   .     A
O1123  Cu1135  1.965   .     S
O1124  Cu1136  1.965   .     S
O1124  C996    1.290   1_655 S
O1125  Cu1136  1.965   .     S
O1125  C1127   1.290   .     A
O1126  C1128   1.290   .     A
O1126  Cu1135  1.965   .     S
C1127  C1172   1.450   .     S
C1127  O991    1.290   1_655 S
C1128  C1171   1.450   .     S
O1129  Cu1135  1.959   .     S
O1130  Cu1136  1.959   .     S
O1130  C1002   1.294   1_655 S
O1131  Cu1136  1.942   .     S
O1131  C1133   1.300   .     A
O1132  C1134   1.300   .     A
O1132  Cu1135  1.942   .     S
C1133  C1137   1.479   .     S
C1133  O997    1.294   1_655 S
C1134  C1138   1.479   .     S
Cu1135 N1181   2.010   .     S
Cu1136 N1182   2.010   .     S
Cu1136 Cu1003  2.675   1_655 S
C1137  C1143   1.402   .     A
C1137  C1141   1.415   .     A
C1138  C1142   1.415   .     A
C1138  C1144   1.402   .     A
C1139  C1147   1.400   .     A
C1139  H1159   1.084   .     S
C1139  C1141   1.395   .     A
C1140  C1142   1.395   .     A
C1140  C1148   1.400   .     A
C1140  H1160   1.084   .     S
C1141  N1054   1.434   1_655 S
C1143  H1158   1.073   .     S
C1143  C1145   1.407   .     A
C1144  H1157   1.074   .     S
C1144  C1146   1.407   .     A
C1145  C1149   1.430   .     A
C1145  C1147   1.415   .     A
C1146  C1150   1.430   .     A
C1146  C1148   1.415   .     A
C1147  C559    1.389   1_556 S
C1149  C1152   1.416   .     A
C1149  C556    1.428   1_556 S
C1150  C1151   1.416   .     A
C1151  H1161   1.075   .     S
C1151  C1153   1.385   .     A
C1152  H1162   1.075   .     S
C1152  C1154   1.385   .     A
C1153  H1155   1.084   .     S
C1154  H1156   1.084   .     S
C1154  C554    1.389   1_556 S
C1163  C1172   1.401   .     A
C1163  H1165   1.083   .     S
C1164  H1166   1.083   .     S
C1164  C1171   1.401   .     A
C1164  C772    1.383   1_565 S
C1167  H1169   1.083   .     S
C1167  C767    1.383   1_565 S
C1167  C1039   1.401   1_655 S
C1168  H1170   1.083   .     S
C1172  C1036   1.401   1_655 S
C1173  C1177   1.416   .     A
C1173  H1175   1.082   .     S
C1173  N1182   1.367   .     A
C1174  N1181   1.367   .     A
C1174  H1176   1.082   .     S
C1174  C1178   1.416   .     A
C1177  N1181   1.366   .     A
C1177  H1179   1.082   .     S
C1178  H1180   1.082   .     S
C1178  N1182   1.366   .     A
N1183  O1184   1.301   .     A
N1183  O1185   1.301   .     A
N1183  C1010   1.434   1_655 S
N1186  O1187   1.301   .     A
N1186  O1188   1.301   .     A
