data_str_m1_o10_o18_pcu_sym.237
_audit_creation_date              2020-01-03
_audit_creation_method            'Materials Studio'
_symmetry_space_group_name_H-M    'P1'
_symmetry_Int_Tables_number       1
_symmetry_cell_setting            triclinic
loop_
_symmetry_equiv_pos_as_xyz
  x,y,z
_cell_length_a                    32.4920
_cell_length_b                    32.6400
_cell_length_c                    35.7370
_cell_angle_alpha                 98.4205
_cell_angle_beta                  72.9825
_cell_angle_gamma                 98.3590
loop_
_atom_site_label
_atom_site_type_symbol
_atom_site_fract_x
_atom_site_fract_y
_atom_site_fract_z
_atom_site_U_iso_or_equiv
_atom_site_adp_type
_atom_site_occupancy
C1     C     0.05246   0.15995   0.25885   0.00000  Uiso   1.00
C2     C     0.18985   0.12388   0.46139   0.00000  Uiso   1.00
C3     C     0.20892   0.10240   0.48149   0.00000  Uiso   1.00
C4     C     0.28101   0.17360   0.24127   0.00000  Uiso   1.00
C5     C     0.20369   0.11305   0.02176   0.00000  Uiso   1.00
C6     C     0.17755   0.14497   0.04247   0.00000  Uiso   1.00
C7     C     0.22372   0.09176   0.04179   0.00000  Uiso   1.00
C8     C     0.21852   0.10209   0.08193   0.00000  Uiso   1.00
C9     C     0.17853   0.15939   0.08166   0.00000  Uiso   1.00
C10    C     0.32700   0.17632   0.23782   0.00000  Uiso   1.00
C11    C     0.00705   0.15775   0.26235   0.00000  Uiso   1.00
C12    C     0.09592   0.21255   0.42128   0.00000  Uiso   1.00
C13    C     0.17835   0.32168   0.23760   0.00000  Uiso   1.00
C14    C     0.15055   0.01253   0.26378   0.00000  Uiso   1.00
C15    C     0.15623   0.05629   0.25873   0.00000  Uiso   1.00
C16    C     0.17651   0.27764   0.24144   0.00000  Uiso   1.00
C17    C     0.18823   0.14512   0.14411   0.00000  Uiso   1.00
C18    C     0.14548   0.18795   0.35625   0.00000  Uiso   1.00
C19    C     0.13368   0.19442   0.39970   0.00000  Uiso   1.00
C20    C     0.19632   0.13603   0.10170   0.00000  Uiso   1.00
C21    C     0.08312   0.21539   0.46222   0.00000  Uiso   1.00
C22    C     0.08571   0.01894   0.31320   0.00000  Uiso   1.00
C23    C     0.15928   0.18035   0.41985   0.00000  Uiso   1.00
C24    C     0.05305   0.32854   0.34476   0.00000  Uiso   1.00
C25    C     0.19526   0.22965   0.08827   0.00000  Uiso   1.00
C26    C     0.18029   0.27020   0.11167   0.00000  Uiso   1.00
C27    C     0.23004   0.20684   0.40286   0.00000  Uiso   1.00
C28    C     0.27531   0.19768   0.37851   0.00000  Uiso   1.00
C29    C     0.14319   0.17738   0.46090   0.00000  Uiso   1.00
C30    C     0.10612   0.19757   0.48238   0.00000  Uiso   1.00
C31    C     0.16306   0.15528   0.48119   0.00000  Uiso   1.00
C32    C     0.15246   0.16172   0.02289   0.00000  Uiso   1.00
C33    C     0.11465   0.18090   0.04346   0.00000  Uiso   1.00
C34    C     0.09191   0.19837   0.02346   0.00000  Uiso   1.00
F35    F     0.05523   0.21541   0.04472   0.00000  Uiso   1.00
F36    F     0.20837   0.00442   0.20636   0.00000  Uiso   1.00
F37    F     0.23590   0.07955   0.10138   0.00000  Uiso   1.00
F38    F     0.23307   0.07142   0.46122   0.00000  Uiso   1.00
F39    F     0.04704   0.23422   0.48184   0.00000  Uiso   1.00
F40    F     0.07097   0.22744   0.40290   0.00000  Uiso   1.00
F41    F     0.09549   0.17758   0.08227   0.00000  Uiso   1.00
H42    H     0.24257   0.06642   0.02666   0.00000  Uiso   1.00
H43    H     0.20063   0.23235   0.05644   0.00000  Uiso   1.00
H44    H     0.22648   0.22532   0.09349   0.00000  Uiso   1.00
H45    H     0.17519   0.26865   0.14358   0.00000  Uiso   1.00
H46    H     0.20517   0.29657   0.10212   0.00000  Uiso   1.00
H47    H     0.14945   0.27575   0.10672   0.00000  Uiso   1.00
H48    H     0.23045   0.21539   0.43411   0.00000  Uiso   1.00
H49    H     0.22157   0.23375   0.39171   0.00000  Uiso   1.00
H50    H     0.27604   0.18964   0.34705   0.00000  Uiso   1.00
H51    H     0.29881   0.22552   0.38120   0.00000  Uiso   1.00
H52    H     0.28495   0.17118   0.38912   0.00000  Uiso   1.00
H53    H     0.01676   0.19340   0.21519   0.00000  Uiso   1.00
H54    H     0.31799   0.14058   0.28524   0.00000  Uiso   1.00
H55    H     0.19377   0.11300   0.43068   0.00000  Uiso   1.00
H56    H     0.07012   0.02122   0.28974   0.00000  Uiso   1.00
H57    H     0.09432   0.05066   0.32693   0.00000  Uiso   1.00
H58    H     0.06736   0.32609   0.36891   0.00000  Uiso   1.00
H59    H     0.02369   0.01183   0.35704   0.00000  Uiso   1.00
H60    H     0.04362   0.29671   0.33190   0.00000  Uiso   1.00
O61    O     0.16667   0.16667   0.25000   0.00000  Uiso   1.00
O62    O     0.15693   0.12393   0.16625   0.00000  Uiso   1.00
O63    O     0.12687   0.20646   0.33749   0.00000  Uiso   1.00
O64    O     0.21088   0.17493   0.15877   0.00000  Uiso   1.00
O65    O     0.17198   0.16135   0.33749   0.00000  Uiso   1.00
O66    O     0.12286   0.33075   0.29802   0.00000  Uiso   1.00
O67    O     0.16321   0.19653   0.10071   0.00000  Uiso   1.00
O68    O     0.20068   0.17109   0.39924   0.00000  Uiso   1.00
O69    O     0.17849   0.08101   0.27821   0.00000  Uiso   1.00
O70    O     0.14581   0.26136   0.26767   0.00000  Uiso   1.00
O71    O     0.07452   0.13251   0.23607   0.00000  Uiso   1.00
O72    O     0.26785   0.19179   0.21805   0.00000  Uiso   1.00
O73    O     0.06990   0.18960   0.27820   0.00000  Uiso   1.00
O74    O     0.25440   0.15277   0.26767   0.00000  Uiso   1.00
O75    O     0.13800   0.06903   0.23607   0.00000  Uiso   1.00
O76    O     0.20437   0.25527   0.21806   0.00000  Uiso   1.00
Zn77   Zn    0.19244   0.14090   0.28278   0.00000  Uiso   1.00
Zn78   Zn    0.13459   0.12378   0.22258   0.00000  Uiso   1.00
Zn79   Zn    0.21166   0.19664   0.21188   0.00000  Uiso   1.00
Zn80   Zn    0.12798   0.20535   0.28277   0.00000  Uiso   1.00
C81    C     0.38579   0.15995   0.25885   0.00000  Uiso   1.00
C82    C     0.52318   0.12388   0.46139   0.00000  Uiso   1.00
C83    C     0.54226   0.10240   0.48149   0.00000  Uiso   1.00
C84    C     0.61434   0.17360   0.24127   0.00000  Uiso   1.00
C85    C     0.53703   0.11305   0.02176   0.00000  Uiso   1.00
C86    C     0.51088   0.14497   0.04247   0.00000  Uiso   1.00
C87    C     0.55706   0.09176   0.04179   0.00000  Uiso   1.00
C88    C     0.55185   0.10209   0.08193   0.00000  Uiso   1.00
C89    C     0.51187   0.15939   0.08166   0.00000  Uiso   1.00
C90    C     0.66034   0.17632   0.23782   0.00000  Uiso   1.00
C91    C     0.34038   0.15775   0.26235   0.00000  Uiso   1.00
C92    C     0.42926   0.21255   0.42128   0.00000  Uiso   1.00
C93    C     0.51169   0.32168   0.23760   0.00000  Uiso   1.00
C94    C     0.48388   0.01253   0.26378   0.00000  Uiso   1.00
C95    C     0.48956   0.05629   0.25873   0.00000  Uiso   1.00
C96    C     0.50984   0.27764   0.24144   0.00000  Uiso   1.00
C97    C     0.52156   0.14512   0.14411   0.00000  Uiso   1.00
C98    C     0.47881   0.18795   0.35625   0.00000  Uiso   1.00
C99    C     0.46701   0.19442   0.39970   0.00000  Uiso   1.00
C100   C     0.52965   0.13603   0.10170   0.00000  Uiso   1.00
C101   C     0.41645   0.21539   0.46222   0.00000  Uiso   1.00
C102   C     0.41904   0.01894   0.31320   0.00000  Uiso   1.00
C103   C     0.49261   0.18035   0.41985   0.00000  Uiso   1.00
C104   C     0.38639   0.32854   0.34476   0.00000  Uiso   1.00
C105   C     0.52860   0.22965   0.08827   0.00000  Uiso   1.00
C106   C     0.51362   0.27020   0.11167   0.00000  Uiso   1.00
C107   C     0.56337   0.20684   0.40286   0.00000  Uiso   1.00
C108   C     0.60865   0.19768   0.37851   0.00000  Uiso   1.00
C109   C     0.47653   0.17738   0.46090   0.00000  Uiso   1.00
C110   C     0.43945   0.19757   0.48238   0.00000  Uiso   1.00
C111   C     0.49640   0.15528   0.48119   0.00000  Uiso   1.00
C112   C     0.48580   0.16172   0.02289   0.00000  Uiso   1.00
C113   C     0.44798   0.18090   0.04346   0.00000  Uiso   1.00
C114   C     0.42524   0.19837   0.02346   0.00000  Uiso   1.00
F115   F     0.38856   0.21541   0.04472   0.00000  Uiso   1.00
F116   F     0.54171   0.00442   0.20636   0.00000  Uiso   1.00
F117   F     0.56923   0.07955   0.10138   0.00000  Uiso   1.00
F118   F     0.56640   0.07142   0.46122   0.00000  Uiso   1.00
F119   F     0.38038   0.23422   0.48184   0.00000  Uiso   1.00
F120   F     0.40430   0.22744   0.40290   0.00000  Uiso   1.00
F121   F     0.42882   0.17758   0.08227   0.00000  Uiso   1.00
H122   H     0.57591   0.06642   0.02666   0.00000  Uiso   1.00
H123   H     0.53396   0.23235   0.05644   0.00000  Uiso   1.00
H124   H     0.55981   0.22532   0.09349   0.00000  Uiso   1.00
H125   H     0.50852   0.26865   0.14358   0.00000  Uiso   1.00
H126   H     0.53850   0.29657   0.10212   0.00000  Uiso   1.00
H127   H     0.48278   0.27575   0.10672   0.00000  Uiso   1.00
H128   H     0.56378   0.21539   0.43411   0.00000  Uiso   1.00
H129   H     0.55490   0.23375   0.39171   0.00000  Uiso   1.00
H130   H     0.60937   0.18964   0.34705   0.00000  Uiso   1.00
H131   H     0.63214   0.22552   0.38120   0.00000  Uiso   1.00
H132   H     0.61828   0.17118   0.38912   0.00000  Uiso   1.00
H133   H     0.35010   0.19340   0.21519   0.00000  Uiso   1.00
H134   H     0.65132   0.14058   0.28524   0.00000  Uiso   1.00
H135   H     0.52710   0.11300   0.43068   0.00000  Uiso   1.00
H136   H     0.40346   0.02122   0.28974   0.00000  Uiso   1.00
H137   H     0.42765   0.05066   0.32693   0.00000  Uiso   1.00
H138   H     0.40070   0.32609   0.36891   0.00000  Uiso   1.00
H139   H     0.35702   0.01183   0.35704   0.00000  Uiso   1.00
H140   H     0.37695   0.29671   0.33190   0.00000  Uiso   1.00
O141   O     0.50000   0.16667   0.25000   0.00000  Uiso   1.00
O142   O     0.49027   0.12393   0.16625   0.00000  Uiso   1.00
O143   O     0.46020   0.20646   0.33749   0.00000  Uiso   1.00
O144   O     0.54421   0.17493   0.15877   0.00000  Uiso   1.00
O145   O     0.50532   0.16135   0.33749   0.00000  Uiso   1.00
O146   O     0.45619   0.33075   0.29802   0.00000  Uiso   1.00
O147   O     0.49655   0.19653   0.10071   0.00000  Uiso   1.00
O148   O     0.53401   0.17109   0.39924   0.00000  Uiso   1.00
O149   O     0.51182   0.08101   0.27821   0.00000  Uiso   1.00
O150   O     0.47914   0.26136   0.26767   0.00000  Uiso   1.00
O151   O     0.40785   0.13251   0.23607   0.00000  Uiso   1.00
O152   O     0.60119   0.19179   0.21805   0.00000  Uiso   1.00
O153   O     0.40323   0.18960   0.27820   0.00000  Uiso   1.00
O154   O     0.58773   0.15277   0.26767   0.00000  Uiso   1.00
O155   O     0.47133   0.06903   0.23607   0.00000  Uiso   1.00
O156   O     0.53771   0.25527   0.21806   0.00000  Uiso   1.00
Zn157  Zn    0.52577   0.14090   0.28278   0.00000  Uiso   1.00
Zn158  Zn    0.46792   0.12378   0.22258   0.00000  Uiso   1.00
Zn159  Zn    0.54500   0.19664   0.21188   0.00000  Uiso   1.00
Zn160  Zn    0.46131   0.20535   0.28277   0.00000  Uiso   1.00
C161   C     0.71912   0.15995   0.25885   0.00000  Uiso   1.00
C162   C     0.85652   0.12388   0.46139   0.00000  Uiso   1.00
C163   C     0.87559   0.10240   0.48149   0.00000  Uiso   1.00
C164   C     0.94767   0.17360   0.24127   0.00000  Uiso   1.00
C165   C     0.87036   0.11305   0.02176   0.00000  Uiso   1.00
C166   C     0.84421   0.14497   0.04247   0.00000  Uiso   1.00
C167   C     0.89039   0.09176   0.04179   0.00000  Uiso   1.00
C168   C     0.88518   0.10209   0.08193   0.00000  Uiso   1.00
C169   C     0.84520   0.15939   0.08166   0.00000  Uiso   1.00
C170   C     0.99367   0.17632   0.23782   0.00000  Uiso   1.00
C171   C     0.67371   0.15775   0.26235   0.00000  Uiso   1.00
C172   C     0.76259   0.21255   0.42128   0.00000  Uiso   1.00
C173   C     0.84502   0.32168   0.23760   0.00000  Uiso   1.00
C174   C     0.81722   0.01253   0.26378   0.00000  Uiso   1.00
C175   C     0.82290   0.05629   0.25873   0.00000  Uiso   1.00
C176   C     0.84317   0.27764   0.24144   0.00000  Uiso   1.00
C177   C     0.85489   0.14512   0.14411   0.00000  Uiso   1.00
C178   C     0.81214   0.18795   0.35625   0.00000  Uiso   1.00
C179   C     0.80035   0.19442   0.39970   0.00000  Uiso   1.00
C180   C     0.86299   0.13603   0.10170   0.00000  Uiso   1.00
C181   C     0.74978   0.21539   0.46222   0.00000  Uiso   1.00
C182   C     0.75237   0.01894   0.31320   0.00000  Uiso   1.00
C183   C     0.82594   0.18035   0.41985   0.00000  Uiso   1.00
C184   C     0.71972   0.32854   0.34476   0.00000  Uiso   1.00
C185   C     0.86193   0.22965   0.08827   0.00000  Uiso   1.00
C186   C     0.84695   0.27020   0.11167   0.00000  Uiso   1.00
C187   C     0.89670   0.20684   0.40286   0.00000  Uiso   1.00
C188   C     0.94198   0.19768   0.37851   0.00000  Uiso   1.00
C189   C     0.80986   0.17738   0.46090   0.00000  Uiso   1.00
C190   C     0.77279   0.19757   0.48238   0.00000  Uiso   1.00
C191   C     0.82973   0.15528   0.48119   0.00000  Uiso   1.00
C192   C     0.81913   0.16172   0.02289   0.00000  Uiso   1.00
C193   C     0.78131   0.18090   0.04346   0.00000  Uiso   1.00
C194   C     0.75857   0.19837   0.02346   0.00000  Uiso   1.00
F195   F     0.72189   0.21541   0.04472   0.00000  Uiso   1.00
F196   F     0.87504   0.00442   0.20636   0.00000  Uiso   1.00
F197   F     0.90257   0.07955   0.10138   0.00000  Uiso   1.00
F198   F     0.89973   0.07142   0.46122   0.00000  Uiso   1.00
F199   F     0.71371   0.23422   0.48184   0.00000  Uiso   1.00
F200   F     0.73763   0.22744   0.40290   0.00000  Uiso   1.00
F201   F     0.76215   0.17758   0.08227   0.00000  Uiso   1.00
H202   H     0.90924   0.06642   0.02666   0.00000  Uiso   1.00
H203   H     0.86730   0.23235   0.05644   0.00000  Uiso   1.00
H204   H     0.89314   0.22532   0.09349   0.00000  Uiso   1.00
H205   H     0.84186   0.26865   0.14358   0.00000  Uiso   1.00
H206   H     0.87184   0.29657   0.10212   0.00000  Uiso   1.00
H207   H     0.81611   0.27575   0.10672   0.00000  Uiso   1.00
H208   H     0.89711   0.21539   0.43411   0.00000  Uiso   1.00
H209   H     0.88823   0.23375   0.39171   0.00000  Uiso   1.00
H210   H     0.94270   0.18964   0.34705   0.00000  Uiso   1.00
H211   H     0.96547   0.22552   0.38120   0.00000  Uiso   1.00
H212   H     0.95162   0.17118   0.38912   0.00000  Uiso   1.00
H213   H     0.68343   0.19340   0.21519   0.00000  Uiso   1.00
H214   H     0.98465   0.14058   0.28524   0.00000  Uiso   1.00
H215   H     0.86043   0.11300   0.43068   0.00000  Uiso   1.00
H216   H     0.73679   0.02122   0.28974   0.00000  Uiso   1.00
H217   H     0.76098   0.05066   0.32693   0.00000  Uiso   1.00
H218   H     0.73403   0.32609   0.36891   0.00000  Uiso   1.00
H219   H     0.69035   0.01183   0.35704   0.00000  Uiso   1.00
H220   H     0.71028   0.29671   0.33190   0.00000  Uiso   1.00
O221   O     0.83333   0.16667   0.25000   0.00000  Uiso   1.00
O222   O     0.82360   0.12393   0.16625   0.00000  Uiso   1.00
O223   O     0.79354   0.20646   0.33749   0.00000  Uiso   1.00
O224   O     0.87755   0.17493   0.15877   0.00000  Uiso   1.00
O225   O     0.83865   0.16135   0.33749   0.00000  Uiso   1.00
O226   O     0.78952   0.33075   0.29802   0.00000  Uiso   1.00
O227   O     0.82988   0.19653   0.10071   0.00000  Uiso   1.00
O228   O     0.86735   0.17109   0.39924   0.00000  Uiso   1.00
O229   O     0.84515   0.08101   0.27821   0.00000  Uiso   1.00
O230   O     0.81247   0.26136   0.26767   0.00000  Uiso   1.00
O231   O     0.74119   0.13251   0.23607   0.00000  Uiso   1.00
O232   O     0.93452   0.19179   0.21805   0.00000  Uiso   1.00
O233   O     0.73656   0.18960   0.27820   0.00000  Uiso   1.00
O234   O     0.92106   0.15277   0.26767   0.00000  Uiso   1.00
O235   O     0.80467   0.06903   0.23607   0.00000  Uiso   1.00
O236   O     0.87104   0.25527   0.21806   0.00000  Uiso   1.00
Zn237  Zn    0.85910   0.14090   0.28278   0.00000  Uiso   1.00
Zn238  Zn    0.80125   0.12378   0.22258   0.00000  Uiso   1.00
Zn239  Zn    0.87833   0.19664   0.21188   0.00000  Uiso   1.00
Zn240  Zn    0.79465   0.20535   0.28277   0.00000  Uiso   1.00
C241   C     0.05246   0.49328   0.25885   0.00000  Uiso   1.00
C242   C     0.18985   0.45721   0.46139   0.00000  Uiso   1.00
C243   C     0.20892   0.43573   0.48149   0.00000  Uiso   1.00
C244   C     0.28101   0.50694   0.24127   0.00000  Uiso   1.00
C245   C     0.20369   0.44638   0.02176   0.00000  Uiso   1.00
C246   C     0.17755   0.47831   0.04247   0.00000  Uiso   1.00
C247   C     0.22372   0.42509   0.04179   0.00000  Uiso   1.00
C248   C     0.21852   0.43542   0.08193   0.00000  Uiso   1.00
C249   C     0.17853   0.49272   0.08166   0.00000  Uiso   1.00
C250   C     0.32700   0.50965   0.23782   0.00000  Uiso   1.00
C251   C     0.00705   0.49108   0.26235   0.00000  Uiso   1.00
C252   C     0.09592   0.54589   0.42128   0.00000  Uiso   1.00
C253   C     0.17835   0.65502   0.23760   0.00000  Uiso   1.00
C254   C     0.15055   0.34587   0.26378   0.00000  Uiso   1.00
C255   C     0.15623   0.38963   0.25873   0.00000  Uiso   1.00
C256   C     0.17651   0.61098   0.24144   0.00000  Uiso   1.00
C257   C     0.18823   0.47846   0.14411   0.00000  Uiso   1.00
C258   C     0.14548   0.52129   0.35625   0.00000  Uiso   1.00
C259   C     0.13368   0.52775   0.39970   0.00000  Uiso   1.00
C260   C     0.19632   0.46936   0.10170   0.00000  Uiso   1.00
C261   C     0.08312   0.54872   0.46222   0.00000  Uiso   1.00
C262   C     0.08571   0.35227   0.31320   0.00000  Uiso   1.00
C263   C     0.15928   0.51368   0.41985   0.00000  Uiso   1.00
C264   C     0.05305   0.66187   0.34476   0.00000  Uiso   1.00
C265   C     0.19526   0.56298   0.08827   0.00000  Uiso   1.00
C266   C     0.18029   0.60354   0.11167   0.00000  Uiso   1.00
C267   C     0.23004   0.54017   0.40286   0.00000  Uiso   1.00
C268   C     0.27531   0.53101   0.37851   0.00000  Uiso   1.00
C269   C     0.14319   0.51071   0.46090   0.00000  Uiso   1.00
C270   C     0.10612   0.53090   0.48238   0.00000  Uiso   1.00
C271   C     0.16306   0.48861   0.48119   0.00000  Uiso   1.00
C272   C     0.15246   0.49506   0.02289   0.00000  Uiso   1.00
C273   C     0.11465   0.51423   0.04346   0.00000  Uiso   1.00
C274   C     0.09191   0.53171   0.02346   0.00000  Uiso   1.00
F275   F     0.05523   0.54875   0.04472   0.00000  Uiso   1.00
F276   F     0.20837   0.33776   0.20636   0.00000  Uiso   1.00
F277   F     0.23590   0.41288   0.10138   0.00000  Uiso   1.00
F278   F     0.23307   0.40475   0.46122   0.00000  Uiso   1.00
F279   F     0.04704   0.56755   0.48184   0.00000  Uiso   1.00
F280   F     0.07097   0.56077   0.40290   0.00000  Uiso   1.00
F281   F     0.09549   0.51091   0.08227   0.00000  Uiso   1.00
H282   H     0.24257   0.39976   0.02666   0.00000  Uiso   1.00
H283   H     0.20063   0.56568   0.05644   0.00000  Uiso   1.00
H284   H     0.22648   0.55866   0.09349   0.00000  Uiso   1.00
H285   H     0.17519   0.60198   0.14358   0.00000  Uiso   1.00
H286   H     0.20517   0.62990   0.10212   0.00000  Uiso   1.00
H287   H     0.14945   0.60908   0.10672   0.00000  Uiso   1.00
H288   H     0.23045   0.54872   0.43411   0.00000  Uiso   1.00
H289   H     0.22157   0.56708   0.39171   0.00000  Uiso   1.00
H290   H     0.27604   0.52297   0.34705   0.00000  Uiso   1.00
H291   H     0.29881   0.55885   0.38120   0.00000  Uiso   1.00
H292   H     0.28495   0.50451   0.38912   0.00000  Uiso   1.00
H293   H     0.01676   0.52673   0.21519   0.00000  Uiso   1.00
H294   H     0.31799   0.47391   0.28524   0.00000  Uiso   1.00
H295   H     0.19377   0.44633   0.43068   0.00000  Uiso   1.00
H296   H     0.07012   0.35456   0.28974   0.00000  Uiso   1.00
H297   H     0.09432   0.38400   0.32693   0.00000  Uiso   1.00
H298   H     0.06736   0.65942   0.36891   0.00000  Uiso   1.00
H299   H     0.02369   0.34516   0.35704   0.00000  Uiso   1.00
H300   H     0.04362   0.63004   0.33190   0.00000  Uiso   1.00
O301   O     0.16667   0.50000   0.25000   0.00000  Uiso   1.00
O302   O     0.15693   0.45726   0.16625   0.00000  Uiso   1.00
O303   O     0.12687   0.53979   0.33749   0.00000  Uiso   1.00
O304   O     0.21088   0.50826   0.15877   0.00000  Uiso   1.00
O305   O     0.17198   0.49468   0.33749   0.00000  Uiso   1.00
O306   O     0.12286   0.66408   0.29802   0.00000  Uiso   1.00
O307   O     0.16321   0.52986   0.10071   0.00000  Uiso   1.00
O308   O     0.20068   0.50442   0.39924   0.00000  Uiso   1.00
O309   O     0.17849   0.41434   0.27821   0.00000  Uiso   1.00
O310   O     0.14581   0.59469   0.26767   0.00000  Uiso   1.00
O311   O     0.07452   0.46584   0.23607   0.00000  Uiso   1.00
O312   O     0.26785   0.52512   0.21805   0.00000  Uiso   1.00
O313   O     0.06990   0.52293   0.27820   0.00000  Uiso   1.00
O314   O     0.25440   0.48610   0.26767   0.00000  Uiso   1.00
O315   O     0.13800   0.40236   0.23607   0.00000  Uiso   1.00
O316   O     0.20437   0.58860   0.21806   0.00000  Uiso   1.00
Zn317  Zn    0.19244   0.47423   0.28278   0.00000  Uiso   1.00
Zn318  Zn    0.13459   0.45711   0.22258   0.00000  Uiso   1.00
Zn319  Zn    0.21166   0.52997   0.21188   0.00000  Uiso   1.00
Zn320  Zn    0.12798   0.53868   0.28277   0.00000  Uiso   1.00
C321   C     0.38579   0.49328   0.25885   0.00000  Uiso   1.00
C322   C     0.52318   0.45721   0.46139   0.00000  Uiso   1.00
C323   C     0.54226   0.43573   0.48149   0.00000  Uiso   1.00
C324   C     0.61434   0.50694   0.24127   0.00000  Uiso   1.00
C325   C     0.53703   0.44638   0.02176   0.00000  Uiso   1.00
C326   C     0.51088   0.47831   0.04247   0.00000  Uiso   1.00
C327   C     0.55706   0.42509   0.04179   0.00000  Uiso   1.00
C328   C     0.55185   0.43542   0.08193   0.00000  Uiso   1.00
C329   C     0.51187   0.49272   0.08166   0.00000  Uiso   1.00
C330   C     0.66034   0.50965   0.23782   0.00000  Uiso   1.00
C331   C     0.34038   0.49108   0.26235   0.00000  Uiso   1.00
C332   C     0.42926   0.54589   0.42128   0.00000  Uiso   1.00
C333   C     0.51169   0.65502   0.23760   0.00000  Uiso   1.00
C334   C     0.48388   0.34587   0.26378   0.00000  Uiso   1.00
C335   C     0.48956   0.38963   0.25873   0.00000  Uiso   1.00
C336   C     0.50984   0.61098   0.24144   0.00000  Uiso   1.00
C337   C     0.52156   0.47846   0.14411   0.00000  Uiso   1.00
C338   C     0.47881   0.52129   0.35625   0.00000  Uiso   1.00
C339   C     0.46701   0.52775   0.39970   0.00000  Uiso   1.00
C340   C     0.52965   0.46936   0.10170   0.00000  Uiso   1.00
C341   C     0.41645   0.54872   0.46222   0.00000  Uiso   1.00
C342   C     0.41904   0.35227   0.31320   0.00000  Uiso   1.00
C343   C     0.49261   0.51368   0.41985   0.00000  Uiso   1.00
C344   C     0.38639   0.66187   0.34476   0.00000  Uiso   1.00
C345   C     0.52860   0.56298   0.08827   0.00000  Uiso   1.00
C346   C     0.51362   0.60354   0.11167   0.00000  Uiso   1.00
C347   C     0.56337   0.54017   0.40286   0.00000  Uiso   1.00
C348   C     0.60865   0.53101   0.37851   0.00000  Uiso   1.00
C349   C     0.47653   0.51071   0.46090   0.00000  Uiso   1.00
C350   C     0.43945   0.53090   0.48238   0.00000  Uiso   1.00
C351   C     0.49640   0.48861   0.48119   0.00000  Uiso   1.00
C352   C     0.48580   0.49506   0.02289   0.00000  Uiso   1.00
C353   C     0.44798   0.51423   0.04346   0.00000  Uiso   1.00
C354   C     0.42524   0.53171   0.02346   0.00000  Uiso   1.00
F355   F     0.38856   0.54875   0.04472   0.00000  Uiso   1.00
F356   F     0.54171   0.33776   0.20636   0.00000  Uiso   1.00
F357   F     0.56923   0.41288   0.10138   0.00000  Uiso   1.00
F358   F     0.56640   0.40475   0.46122   0.00000  Uiso   1.00
F359   F     0.38038   0.56755   0.48184   0.00000  Uiso   1.00
F360   F     0.40430   0.56077   0.40290   0.00000  Uiso   1.00
F361   F     0.42882   0.51091   0.08227   0.00000  Uiso   1.00
H362   H     0.57591   0.39976   0.02666   0.00000  Uiso   1.00
H363   H     0.53396   0.56568   0.05644   0.00000  Uiso   1.00
H364   H     0.55981   0.55866   0.09349   0.00000  Uiso   1.00
H365   H     0.50852   0.60198   0.14358   0.00000  Uiso   1.00
H366   H     0.53850   0.62990   0.10212   0.00000  Uiso   1.00
H367   H     0.48278   0.60908   0.10672   0.00000  Uiso   1.00
H368   H     0.56378   0.54872   0.43411   0.00000  Uiso   1.00
H369   H     0.55490   0.56708   0.39171   0.00000  Uiso   1.00
H370   H     0.60937   0.52297   0.34705   0.00000  Uiso   1.00
H371   H     0.63214   0.55885   0.38120   0.00000  Uiso   1.00
H372   H     0.61828   0.50451   0.38912   0.00000  Uiso   1.00
H373   H     0.35010   0.52673   0.21519   0.00000  Uiso   1.00
H374   H     0.65132   0.47391   0.28524   0.00000  Uiso   1.00
H375   H     0.52710   0.44633   0.43068   0.00000  Uiso   1.00
H376   H     0.40346   0.35456   0.28974   0.00000  Uiso   1.00
H377   H     0.42765   0.38400   0.32693   0.00000  Uiso   1.00
H378   H     0.40070   0.65942   0.36891   0.00000  Uiso   1.00
H379   H     0.35702   0.34516   0.35704   0.00000  Uiso   1.00
H380   H     0.37695   0.63004   0.33190   0.00000  Uiso   1.00
O381   O     0.50000   0.50000   0.25000   0.00000  Uiso   1.00
O382   O     0.49027   0.45726   0.16625   0.00000  Uiso   1.00
O383   O     0.46020   0.53979   0.33749   0.00000  Uiso   1.00
O384   O     0.54421   0.50826   0.15877   0.00000  Uiso   1.00
O385   O     0.50532   0.49468   0.33749   0.00000  Uiso   1.00
O386   O     0.45619   0.66408   0.29802   0.00000  Uiso   1.00
O387   O     0.49655   0.52986   0.10071   0.00000  Uiso   1.00
O388   O     0.53401   0.50442   0.39924   0.00000  Uiso   1.00
O389   O     0.51182   0.41434   0.27821   0.00000  Uiso   1.00
O390   O     0.47914   0.59469   0.26767   0.00000  Uiso   1.00
O391   O     0.40785   0.46584   0.23607   0.00000  Uiso   1.00
O392   O     0.60119   0.52512   0.21805   0.00000  Uiso   1.00
O393   O     0.40323   0.52293   0.27820   0.00000  Uiso   1.00
O394   O     0.58773   0.48610   0.26767   0.00000  Uiso   1.00
O395   O     0.47133   0.40236   0.23607   0.00000  Uiso   1.00
O396   O     0.53771   0.58860   0.21806   0.00000  Uiso   1.00
Zn397  Zn    0.52577   0.47423   0.28278   0.00000  Uiso   1.00
Zn398  Zn    0.46792   0.45711   0.22258   0.00000  Uiso   1.00
Zn399  Zn    0.54500   0.52997   0.21188   0.00000  Uiso   1.00
Zn400  Zn    0.46131   0.53868   0.28277   0.00000  Uiso   1.00
C401   C     0.71912   0.49328   0.25885   0.00000  Uiso   1.00
C402   C     0.85652   0.45721   0.46139   0.00000  Uiso   1.00
C403   C     0.87559   0.43573   0.48149   0.00000  Uiso   1.00
C404   C     0.94767   0.50694   0.24127   0.00000  Uiso   1.00
C405   C     0.87036   0.44638   0.02176   0.00000  Uiso   1.00
C406   C     0.84421   0.47831   0.04247   0.00000  Uiso   1.00
C407   C     0.89039   0.42509   0.04179   0.00000  Uiso   1.00
C408   C     0.88518   0.43542   0.08193   0.00000  Uiso   1.00
C409   C     0.84520   0.49272   0.08166   0.00000  Uiso   1.00
C410   C     0.99367   0.50965   0.23782   0.00000  Uiso   1.00
C411   C     0.67371   0.49108   0.26235   0.00000  Uiso   1.00
C412   C     0.76259   0.54589   0.42128   0.00000  Uiso   1.00
C413   C     0.84502   0.65502   0.23760   0.00000  Uiso   1.00
C414   C     0.81722   0.34587   0.26378   0.00000  Uiso   1.00
C415   C     0.82290   0.38963   0.25873   0.00000  Uiso   1.00
C416   C     0.84317   0.61098   0.24144   0.00000  Uiso   1.00
C417   C     0.85489   0.47846   0.14411   0.00000  Uiso   1.00
C418   C     0.81214   0.52129   0.35625   0.00000  Uiso   1.00
C419   C     0.80035   0.52775   0.39970   0.00000  Uiso   1.00
C420   C     0.86299   0.46936   0.10170   0.00000  Uiso   1.00
C421   C     0.74978   0.54872   0.46222   0.00000  Uiso   1.00
C422   C     0.75237   0.35227   0.31320   0.00000  Uiso   1.00
C423   C     0.82594   0.51368   0.41985   0.00000  Uiso   1.00
C424   C     0.71972   0.66187   0.34476   0.00000  Uiso   1.00
C425   C     0.86193   0.56298   0.08827   0.00000  Uiso   1.00
C426   C     0.84695   0.60354   0.11167   0.00000  Uiso   1.00
C427   C     0.89670   0.54017   0.40286   0.00000  Uiso   1.00
C428   C     0.94198   0.53101   0.37851   0.00000  Uiso   1.00
C429   C     0.80986   0.51071   0.46090   0.00000  Uiso   1.00
C430   C     0.77279   0.53090   0.48238   0.00000  Uiso   1.00
C431   C     0.82973   0.48861   0.48119   0.00000  Uiso   1.00
C432   C     0.81913   0.49506   0.02289   0.00000  Uiso   1.00
C433   C     0.78131   0.51423   0.04346   0.00000  Uiso   1.00
C434   C     0.75857   0.53171   0.02346   0.00000  Uiso   1.00
F435   F     0.72189   0.54875   0.04472   0.00000  Uiso   1.00
F436   F     0.87504   0.33776   0.20636   0.00000  Uiso   1.00
F437   F     0.90257   0.41288   0.10138   0.00000  Uiso   1.00
F438   F     0.89973   0.40475   0.46122   0.00000  Uiso   1.00
F439   F     0.71371   0.56755   0.48184   0.00000  Uiso   1.00
F440   F     0.73763   0.56077   0.40290   0.00000  Uiso   1.00
F441   F     0.76215   0.51091   0.08227   0.00000  Uiso   1.00
H442   H     0.90924   0.39976   0.02666   0.00000  Uiso   1.00
H443   H     0.86730   0.56568   0.05644   0.00000  Uiso   1.00
H444   H     0.89314   0.55866   0.09349   0.00000  Uiso   1.00
H445   H     0.84186   0.60198   0.14358   0.00000  Uiso   1.00
H446   H     0.87184   0.62990   0.10212   0.00000  Uiso   1.00
H447   H     0.81611   0.60908   0.10672   0.00000  Uiso   1.00
H448   H     0.89711   0.54872   0.43411   0.00000  Uiso   1.00
H449   H     0.88823   0.56708   0.39171   0.00000  Uiso   1.00
H450   H     0.94270   0.52297   0.34705   0.00000  Uiso   1.00
H451   H     0.96547   0.55885   0.38120   0.00000  Uiso   1.00
H452   H     0.95162   0.50451   0.38912   0.00000  Uiso   1.00
H453   H     0.68343   0.52673   0.21519   0.00000  Uiso   1.00
H454   H     0.98465   0.47391   0.28524   0.00000  Uiso   1.00
H455   H     0.86043   0.44633   0.43068   0.00000  Uiso   1.00
H456   H     0.73679   0.35456   0.28974   0.00000  Uiso   1.00
H457   H     0.76098   0.38400   0.32693   0.00000  Uiso   1.00
H458   H     0.73403   0.65942   0.36891   0.00000  Uiso   1.00
H459   H     0.69035   0.34516   0.35704   0.00000  Uiso   1.00
H460   H     0.71028   0.63004   0.33190   0.00000  Uiso   1.00
O461   O     0.83333   0.50000   0.25000   0.00000  Uiso   1.00
O462   O     0.82360   0.45726   0.16625   0.00000  Uiso   1.00
O463   O     0.79354   0.53979   0.33749   0.00000  Uiso   1.00
O464   O     0.87755   0.50826   0.15877   0.00000  Uiso   1.00
O465   O     0.83865   0.49468   0.33749   0.00000  Uiso   1.00
O466   O     0.78952   0.66408   0.29802   0.00000  Uiso   1.00
O467   O     0.82988   0.52986   0.10071   0.00000  Uiso   1.00
O468   O     0.86735   0.50442   0.39924   0.00000  Uiso   1.00
O469   O     0.84515   0.41434   0.27821   0.00000  Uiso   1.00
O470   O     0.81247   0.59469   0.26767   0.00000  Uiso   1.00
O471   O     0.74119   0.46584   0.23607   0.00000  Uiso   1.00
O472   O     0.93452   0.52512   0.21805   0.00000  Uiso   1.00
O473   O     0.73656   0.52293   0.27820   0.00000  Uiso   1.00
O474   O     0.92106   0.48610   0.26767   0.00000  Uiso   1.00
O475   O     0.80467   0.40236   0.23607   0.00000  Uiso   1.00
O476   O     0.87104   0.58860   0.21806   0.00000  Uiso   1.00
Zn477  Zn    0.85910   0.47423   0.28278   0.00000  Uiso   1.00
Zn478  Zn    0.80125   0.45711   0.22258   0.00000  Uiso   1.00
Zn479  Zn    0.87833   0.52997   0.21188   0.00000  Uiso   1.00
Zn480  Zn    0.79465   0.53868   0.28277   0.00000  Uiso   1.00
C481   C     0.05246   0.82662   0.25885   0.00000  Uiso   1.00
C482   C     0.18985   0.79055   0.46139   0.00000  Uiso   1.00
C483   C     0.20892   0.76906   0.48149   0.00000  Uiso   1.00
C484   C     0.28101   0.84027   0.24127   0.00000  Uiso   1.00
C485   C     0.20369   0.77972   0.02176   0.00000  Uiso   1.00
C486   C     0.17755   0.81164   0.04247   0.00000  Uiso   1.00
C487   C     0.22372   0.75843   0.04179   0.00000  Uiso   1.00
C488   C     0.21852   0.76875   0.08193   0.00000  Uiso   1.00
C489   C     0.17853   0.82605   0.08166   0.00000  Uiso   1.00
C490   C     0.32700   0.84299   0.23782   0.00000  Uiso   1.00
C491   C     0.00705   0.82442   0.26235   0.00000  Uiso   1.00
C492   C     0.09592   0.87922   0.42128   0.00000  Uiso   1.00
C493   C     0.17835   0.98835   0.23760   0.00000  Uiso   1.00
C494   C     0.15055   0.67920   0.26378   0.00000  Uiso   1.00
C495   C     0.15623   0.72296   0.25873   0.00000  Uiso   1.00
C496   C     0.17651   0.94431   0.24144   0.00000  Uiso   1.00
C497   C     0.18823   0.81179   0.14411   0.00000  Uiso   1.00
C498   C     0.14548   0.85462   0.35625   0.00000  Uiso   1.00
C499   C     0.13368   0.86109   0.39970   0.00000  Uiso   1.00
C500   C     0.19632   0.80270   0.10170   0.00000  Uiso   1.00
C501   C     0.08312   0.88205   0.46222   0.00000  Uiso   1.00
C502   C     0.08571   0.68561   0.31320   0.00000  Uiso   1.00
C503   C     0.15928   0.84701   0.41985   0.00000  Uiso   1.00
C504   C     0.05305   0.99520   0.34476   0.00000  Uiso   1.00
C505   C     0.19526   0.89632   0.08827   0.00000  Uiso   1.00
C506   C     0.18029   0.93687   0.11167   0.00000  Uiso   1.00
C507   C     0.23004   0.87350   0.40286   0.00000  Uiso   1.00
C508   C     0.27531   0.86434   0.37851   0.00000  Uiso   1.00
C509   C     0.14319   0.84405   0.46090   0.00000  Uiso   1.00
C510   C     0.10612   0.86424   0.48238   0.00000  Uiso   1.00
C511   C     0.16306   0.82195   0.48119   0.00000  Uiso   1.00
C512   C     0.15246   0.82839   0.02289   0.00000  Uiso   1.00
C513   C     0.11465   0.84756   0.04346   0.00000  Uiso   1.00
C514   C     0.09191   0.86504   0.02346   0.00000  Uiso   1.00
F515   F     0.05523   0.88208   0.04472   0.00000  Uiso   1.00
F516   F     0.20837   0.67109   0.20636   0.00000  Uiso   1.00
F517   F     0.23590   0.74622   0.10138   0.00000  Uiso   1.00
F518   F     0.23307   0.73808   0.46122   0.00000  Uiso   1.00
F519   F     0.04704   0.90088   0.48184   0.00000  Uiso   1.00
F520   F     0.07097   0.89411   0.40290   0.00000  Uiso   1.00
F521   F     0.09549   0.84425   0.08227   0.00000  Uiso   1.00
H522   H     0.24257   0.73309   0.02666   0.00000  Uiso   1.00
H523   H     0.20063   0.89901   0.05644   0.00000  Uiso   1.00
H524   H     0.22648   0.89199   0.09349   0.00000  Uiso   1.00
H525   H     0.17519   0.93531   0.14358   0.00000  Uiso   1.00
H526   H     0.20517   0.96324   0.10212   0.00000  Uiso   1.00
H527   H     0.14945   0.94241   0.10672   0.00000  Uiso   1.00
H528   H     0.23045   0.88206   0.43411   0.00000  Uiso   1.00
H529   H     0.22157   0.90042   0.39171   0.00000  Uiso   1.00
H530   H     0.27604   0.85630   0.34705   0.00000  Uiso   1.00
H531   H     0.29881   0.89218   0.38120   0.00000  Uiso   1.00
H532   H     0.28495   0.83785   0.38912   0.00000  Uiso   1.00
H533   H     0.01676   0.86007   0.21519   0.00000  Uiso   1.00
H534   H     0.31799   0.80724   0.28524   0.00000  Uiso   1.00
H535   H     0.19377   0.77967   0.43068   0.00000  Uiso   1.00
H536   H     0.07012   0.68789   0.28974   0.00000  Uiso   1.00
H537   H     0.09432   0.71733   0.32693   0.00000  Uiso   1.00
H538   H     0.06736   0.99275   0.36891   0.00000  Uiso   1.00
H539   H     0.02369   0.67849   0.35704   0.00000  Uiso   1.00
H540   H     0.04362   0.96338   0.33190   0.00000  Uiso   1.00
O541   O     0.16667   0.83333   0.25000   0.00000  Uiso   1.00
O542   O     0.15693   0.79060   0.16625   0.00000  Uiso   1.00
O543   O     0.12687   0.87313   0.33749   0.00000  Uiso   1.00
O544   O     0.21088   0.84159   0.15877   0.00000  Uiso   1.00
O545   O     0.17198   0.82802   0.33749   0.00000  Uiso   1.00
O546   O     0.12286   0.99741   0.29802   0.00000  Uiso   1.00
O547   O     0.16321   0.86320   0.10071   0.00000  Uiso   1.00
O548   O     0.20068   0.83775   0.39924   0.00000  Uiso   1.00
O549   O     0.17849   0.74768   0.27821   0.00000  Uiso   1.00
O550   O     0.14581   0.92803   0.26767   0.00000  Uiso   1.00
O551   O     0.07452   0.79917   0.23607   0.00000  Uiso   1.00
O552   O     0.26785   0.85845   0.21805   0.00000  Uiso   1.00
O553   O     0.06990   0.85627   0.27820   0.00000  Uiso   1.00
O554   O     0.25440   0.81944   0.26767   0.00000  Uiso   1.00
O555   O     0.13800   0.73570   0.23607   0.00000  Uiso   1.00
O556   O     0.20437   0.92193   0.21806   0.00000  Uiso   1.00
Zn557  Zn    0.19244   0.80756   0.28278   0.00000  Uiso   1.00
Zn558  Zn    0.13459   0.79044   0.22258   0.00000  Uiso   1.00
Zn559  Zn    0.21166   0.86331   0.21188   0.00000  Uiso   1.00
Zn560  Zn    0.12798   0.87202   0.28277   0.00000  Uiso   1.00
C561   C     0.38579   0.82662   0.25885   0.00000  Uiso   1.00
C562   C     0.52318   0.79055   0.46139   0.00000  Uiso   1.00
C563   C     0.54226   0.76906   0.48149   0.00000  Uiso   1.00
C564   C     0.61434   0.84027   0.24127   0.00000  Uiso   1.00
C565   C     0.53703   0.77972   0.02176   0.00000  Uiso   1.00
C566   C     0.51088   0.81164   0.04247   0.00000  Uiso   1.00
C567   C     0.55706   0.75843   0.04179   0.00000  Uiso   1.00
C568   C     0.55185   0.76875   0.08193   0.00000  Uiso   1.00
C569   C     0.51187   0.82605   0.08166   0.00000  Uiso   1.00
C570   C     0.66034   0.84299   0.23782   0.00000  Uiso   1.00
C571   C     0.34038   0.82442   0.26235   0.00000  Uiso   1.00
C572   C     0.42926   0.87922   0.42128   0.00000  Uiso   1.00
C573   C     0.51169   0.98835   0.23760   0.00000  Uiso   1.00
C574   C     0.48388   0.67920   0.26378   0.00000  Uiso   1.00
C575   C     0.48956   0.72296   0.25873   0.00000  Uiso   1.00
C576   C     0.50984   0.94431   0.24144   0.00000  Uiso   1.00
C577   C     0.52156   0.81179   0.14411   0.00000  Uiso   1.00
C578   C     0.47881   0.85462   0.35625   0.00000  Uiso   1.00
C579   C     0.46701   0.86109   0.39970   0.00000  Uiso   1.00
C580   C     0.52965   0.80270   0.10170   0.00000  Uiso   1.00
C581   C     0.41645   0.88205   0.46222   0.00000  Uiso   1.00
C582   C     0.41904   0.68561   0.31320   0.00000  Uiso   1.00
C583   C     0.49261   0.84701   0.41985   0.00000  Uiso   1.00
C584   C     0.38639   0.99520   0.34476   0.00000  Uiso   1.00
C585   C     0.52860   0.89632   0.08827   0.00000  Uiso   1.00
C586   C     0.51362   0.93687   0.11167   0.00000  Uiso   1.00
C587   C     0.56337   0.87350   0.40286   0.00000  Uiso   1.00
C588   C     0.60865   0.86434   0.37851   0.00000  Uiso   1.00
C589   C     0.47653   0.84405   0.46090   0.00000  Uiso   1.00
C590   C     0.43945   0.86424   0.48238   0.00000  Uiso   1.00
C591   C     0.49640   0.82195   0.48119   0.00000  Uiso   1.00
C592   C     0.48580   0.82839   0.02289   0.00000  Uiso   1.00
C593   C     0.44798   0.84756   0.04346   0.00000  Uiso   1.00
C594   C     0.42524   0.86504   0.02346   0.00000  Uiso   1.00
F595   F     0.38856   0.88208   0.04472   0.00000  Uiso   1.00
F596   F     0.54171   0.67109   0.20636   0.00000  Uiso   1.00
F597   F     0.56923   0.74622   0.10138   0.00000  Uiso   1.00
F598   F     0.56640   0.73808   0.46122   0.00000  Uiso   1.00
F599   F     0.38038   0.90088   0.48184   0.00000  Uiso   1.00
F600   F     0.40430   0.89411   0.40290   0.00000  Uiso   1.00
F601   F     0.42882   0.84425   0.08227   0.00000  Uiso   1.00
H602   H     0.57591   0.73309   0.02666   0.00000  Uiso   1.00
H603   H     0.53396   0.89901   0.05644   0.00000  Uiso   1.00
H604   H     0.55981   0.89199   0.09349   0.00000  Uiso   1.00
H605   H     0.50852   0.93531   0.14358   0.00000  Uiso   1.00
H606   H     0.53850   0.96324   0.10212   0.00000  Uiso   1.00
H607   H     0.48278   0.94241   0.10672   0.00000  Uiso   1.00
H608   H     0.56378   0.88206   0.43411   0.00000  Uiso   1.00
H609   H     0.55490   0.90042   0.39171   0.00000  Uiso   1.00
H610   H     0.60937   0.85630   0.34705   0.00000  Uiso   1.00
H611   H     0.63214   0.89218   0.38120   0.00000  Uiso   1.00
H612   H     0.61828   0.83785   0.38912   0.00000  Uiso   1.00
H613   H     0.35010   0.86007   0.21519   0.00000  Uiso   1.00
H614   H     0.65132   0.80724   0.28524   0.00000  Uiso   1.00
H615   H     0.52710   0.77967   0.43068   0.00000  Uiso   1.00
H616   H     0.40346   0.68789   0.28974   0.00000  Uiso   1.00
H617   H     0.42765   0.71733   0.32693   0.00000  Uiso   1.00
H618   H     0.40070   0.99275   0.36891   0.00000  Uiso   1.00
H619   H     0.35702   0.67849   0.35704   0.00000  Uiso   1.00
H620   H     0.37695   0.96338   0.33190   0.00000  Uiso   1.00
O621   O     0.50000   0.83333   0.25000   0.00000  Uiso   1.00
O622   O     0.49027   0.79060   0.16625   0.00000  Uiso   1.00
O623   O     0.46020   0.87313   0.33749   0.00000  Uiso   1.00
O624   O     0.54421   0.84159   0.15877   0.00000  Uiso   1.00
O625   O     0.50532   0.82802   0.33749   0.00000  Uiso   1.00
O626   O     0.45619   0.99741   0.29802   0.00000  Uiso   1.00
O627   O     0.49655   0.86320   0.10071   0.00000  Uiso   1.00
O628   O     0.53401   0.83775   0.39924   0.00000  Uiso   1.00
O629   O     0.51182   0.74768   0.27821   0.00000  Uiso   1.00
O630   O     0.47914   0.92803   0.26767   0.00000  Uiso   1.00
O631   O     0.40785   0.79917   0.23607   0.00000  Uiso   1.00
O632   O     0.60119   0.85845   0.21805   0.00000  Uiso   1.00
O633   O     0.40323   0.85627   0.27820   0.00000  Uiso   1.00
O634   O     0.58773   0.81944   0.26767   0.00000  Uiso   1.00
O635   O     0.47133   0.73570   0.23607   0.00000  Uiso   1.00
O636   O     0.53771   0.92193   0.21806   0.00000  Uiso   1.00
Zn637  Zn    0.52577   0.80756   0.28278   0.00000  Uiso   1.00
Zn638  Zn    0.46792   0.79044   0.22258   0.00000  Uiso   1.00
Zn639  Zn    0.54500   0.86331   0.21188   0.00000  Uiso   1.00
Zn640  Zn    0.46131   0.87202   0.28277   0.00000  Uiso   1.00
C641   C     0.71912   0.82662   0.25885   0.00000  Uiso   1.00
C642   C     0.85652   0.79055   0.46139   0.00000  Uiso   1.00
C643   C     0.87559   0.76906   0.48149   0.00000  Uiso   1.00
C644   C     0.94767   0.84027   0.24127   0.00000  Uiso   1.00
C645   C     0.87036   0.77972   0.02176   0.00000  Uiso   1.00
C646   C     0.84421   0.81164   0.04247   0.00000  Uiso   1.00
C647   C     0.89039   0.75843   0.04179   0.00000  Uiso   1.00
C648   C     0.88518   0.76875   0.08193   0.00000  Uiso   1.00
C649   C     0.84520   0.82605   0.08166   0.00000  Uiso   1.00
C650   C     0.99367   0.84299   0.23782   0.00000  Uiso   1.00
C651   C     0.67371   0.82442   0.26235   0.00000  Uiso   1.00
C652   C     0.76259   0.87922   0.42128   0.00000  Uiso   1.00
C653   C     0.84502   0.98835   0.23760   0.00000  Uiso   1.00
C654   C     0.81722   0.67920   0.26378   0.00000  Uiso   1.00
C655   C     0.82290   0.72296   0.25873   0.00000  Uiso   1.00
C656   C     0.84317   0.94431   0.24144   0.00000  Uiso   1.00
C657   C     0.85489   0.81179   0.14411   0.00000  Uiso   1.00
C658   C     0.81214   0.85462   0.35625   0.00000  Uiso   1.00
C659   C     0.80035   0.86109   0.39970   0.00000  Uiso   1.00
C660   C     0.86299   0.80270   0.10170   0.00000  Uiso   1.00
C661   C     0.74978   0.88205   0.46222   0.00000  Uiso   1.00
C662   C     0.75237   0.68561   0.31320   0.00000  Uiso   1.00
C663   C     0.82594   0.84701   0.41985   0.00000  Uiso   1.00
C664   C     0.71972   0.99520   0.34476   0.00000  Uiso   1.00
C665   C     0.86193   0.89632   0.08827   0.00000  Uiso   1.00
C666   C     0.84695   0.93687   0.11167   0.00000  Uiso   1.00
C667   C     0.89670   0.87350   0.40286   0.00000  Uiso   1.00
C668   C     0.94198   0.86434   0.37851   0.00000  Uiso   1.00
C669   C     0.80986   0.84405   0.46090   0.00000  Uiso   1.00
C670   C     0.77279   0.86424   0.48238   0.00000  Uiso   1.00
C671   C     0.82973   0.82195   0.48119   0.00000  Uiso   1.00
C672   C     0.81913   0.82839   0.02289   0.00000  Uiso   1.00
C673   C     0.78131   0.84756   0.04346   0.00000  Uiso   1.00
C674   C     0.75857   0.86504   0.02346   0.00000  Uiso   1.00
F675   F     0.72189   0.88208   0.04472   0.00000  Uiso   1.00
F676   F     0.87504   0.67109   0.20636   0.00000  Uiso   1.00
F677   F     0.90257   0.74622   0.10138   0.00000  Uiso   1.00
F678   F     0.89973   0.73808   0.46122   0.00000  Uiso   1.00
F679   F     0.71371   0.90088   0.48184   0.00000  Uiso   1.00
F680   F     0.73763   0.89411   0.40290   0.00000  Uiso   1.00
F681   F     0.76215   0.84425   0.08227   0.00000  Uiso   1.00
H682   H     0.90924   0.73309   0.02666   0.00000  Uiso   1.00
H683   H     0.86730   0.89901   0.05644   0.00000  Uiso   1.00
H684   H     0.89314   0.89199   0.09349   0.00000  Uiso   1.00
H685   H     0.84186   0.93531   0.14358   0.00000  Uiso   1.00
H686   H     0.87184   0.96324   0.10212   0.00000  Uiso   1.00
H687   H     0.81611   0.94241   0.10672   0.00000  Uiso   1.00
H688   H     0.89711   0.88206   0.43411   0.00000  Uiso   1.00
H689   H     0.88823   0.90042   0.39171   0.00000  Uiso   1.00
H690   H     0.94270   0.85630   0.34705   0.00000  Uiso   1.00
H691   H     0.96547   0.89218   0.38120   0.00000  Uiso   1.00
H692   H     0.95162   0.83785   0.38912   0.00000  Uiso   1.00
H693   H     0.68343   0.86007   0.21519   0.00000  Uiso   1.00
H694   H     0.98465   0.80724   0.28524   0.00000  Uiso   1.00
H695   H     0.86043   0.77967   0.43068   0.00000  Uiso   1.00
H696   H     0.73679   0.68789   0.28974   0.00000  Uiso   1.00
H697   H     0.76098   0.71733   0.32693   0.00000  Uiso   1.00
H698   H     0.73403   0.99275   0.36891   0.00000  Uiso   1.00
H699   H     0.69035   0.67849   0.35704   0.00000  Uiso   1.00
H700   H     0.71028   0.96338   0.33190   0.00000  Uiso   1.00
O701   O     0.83333   0.83333   0.25000   0.00000  Uiso   1.00
O702   O     0.82360   0.79060   0.16625   0.00000  Uiso   1.00
O703   O     0.79354   0.87313   0.33749   0.00000  Uiso   1.00
O704   O     0.87755   0.84159   0.15877   0.00000  Uiso   1.00
O705   O     0.83865   0.82802   0.33749   0.00000  Uiso   1.00
O706   O     0.78952   0.99741   0.29802   0.00000  Uiso   1.00
O707   O     0.82988   0.86320   0.10071   0.00000  Uiso   1.00
O708   O     0.86735   0.83775   0.39924   0.00000  Uiso   1.00
O709   O     0.84515   0.74768   0.27821   0.00000  Uiso   1.00
O710   O     0.81247   0.92803   0.26767   0.00000  Uiso   1.00
O711   O     0.74119   0.79917   0.23607   0.00000  Uiso   1.00
O712   O     0.93452   0.85845   0.21805   0.00000  Uiso   1.00
O713   O     0.73656   0.85627   0.27820   0.00000  Uiso   1.00
O714   O     0.92106   0.81944   0.26767   0.00000  Uiso   1.00
O715   O     0.80467   0.73570   0.23607   0.00000  Uiso   1.00
O716   O     0.87104   0.92193   0.21806   0.00000  Uiso   1.00
Zn717  Zn    0.85910   0.80756   0.28278   0.00000  Uiso   1.00
Zn718  Zn    0.80125   0.79044   0.22258   0.00000  Uiso   1.00
Zn719  Zn    0.87833   0.86331   0.21188   0.00000  Uiso   1.00
Zn720  Zn    0.79465   0.87202   0.28277   0.00000  Uiso   1.00
C721   C     0.05246   0.15995   0.75885   0.00000  Uiso   1.00
C722   C     0.18985   0.12388   0.96139   0.00000  Uiso   1.00
C723   C     0.20892   0.10240   0.98149   0.00000  Uiso   1.00
C724   C     0.28101   0.17360   0.74127   0.00000  Uiso   1.00
C725   C     0.20369   0.11305   0.52176   0.00000  Uiso   1.00
C726   C     0.17755   0.14497   0.54247   0.00000  Uiso   1.00
C727   C     0.22372   0.09176   0.54179   0.00000  Uiso   1.00
C728   C     0.21852   0.10209   0.58193   0.00000  Uiso   1.00
C729   C     0.17853   0.15939   0.58166   0.00000  Uiso   1.00
C730   C     0.32700   0.17632   0.73782   0.00000  Uiso   1.00
C731   C     0.00705   0.15775   0.76235   0.00000  Uiso   1.00
C732   C     0.09592   0.21255   0.92128   0.00000  Uiso   1.00
C733   C     0.17835   0.32168   0.73760   0.00000  Uiso   1.00
C734   C     0.15055   0.01253   0.76378   0.00000  Uiso   1.00
C735   C     0.15623   0.05629   0.75873   0.00000  Uiso   1.00
C736   C     0.17651   0.27764   0.74144   0.00000  Uiso   1.00
C737   C     0.18823   0.14512   0.64411   0.00000  Uiso   1.00
C738   C     0.14548   0.18795   0.85625   0.00000  Uiso   1.00
C739   C     0.13368   0.19442   0.89970   0.00000  Uiso   1.00
C740   C     0.19632   0.13603   0.60170   0.00000  Uiso   1.00
C741   C     0.08312   0.21539   0.96222   0.00000  Uiso   1.00
C742   C     0.08571   0.01894   0.81320   0.00000  Uiso   1.00
C743   C     0.15928   0.18035   0.91985   0.00000  Uiso   1.00
C744   C     0.05305   0.32854   0.84476   0.00000  Uiso   1.00
C745   C     0.19526   0.22965   0.58827   0.00000  Uiso   1.00
C746   C     0.18029   0.27020   0.61167   0.00000  Uiso   1.00
C747   C     0.23004   0.20684   0.90286   0.00000  Uiso   1.00
C748   C     0.27531   0.19768   0.87851   0.00000  Uiso   1.00
C749   C     0.14319   0.17738   0.96090   0.00000  Uiso   1.00
C750   C     0.10612   0.19757   0.98238   0.00000  Uiso   1.00
C751   C     0.16306   0.15528   0.98119   0.00000  Uiso   1.00
C752   C     0.15246   0.16172   0.52289   0.00000  Uiso   1.00
C753   C     0.11465   0.18090   0.54346   0.00000  Uiso   1.00
C754   C     0.09191   0.19837   0.52346   0.00000  Uiso   1.00
F755   F     0.05523   0.21541   0.54472   0.00000  Uiso   1.00
F756   F     0.20837   0.00442   0.70636   0.00000  Uiso   1.00
F757   F     0.23590   0.07955   0.60138   0.00000  Uiso   1.00
F758   F     0.23307   0.07142   0.96122   0.00000  Uiso   1.00
F759   F     0.04704   0.23422   0.98184   0.00000  Uiso   1.00
F760   F     0.07097   0.22744   0.90290   0.00000  Uiso   1.00
F761   F     0.09549   0.17758   0.58227   0.00000  Uiso   1.00
H762   H     0.24257   0.06642   0.52666   0.00000  Uiso   1.00
H763   H     0.20063   0.23235   0.55644   0.00000  Uiso   1.00
H764   H     0.22648   0.22532   0.59349   0.00000  Uiso   1.00
H765   H     0.17519   0.26865   0.64358   0.00000  Uiso   1.00
H766   H     0.20517   0.29657   0.60212   0.00000  Uiso   1.00
H767   H     0.14945   0.27575   0.60672   0.00000  Uiso   1.00
H768   H     0.23045   0.21539   0.93411   0.00000  Uiso   1.00
H769   H     0.22157   0.23375   0.89171   0.00000  Uiso   1.00
H770   H     0.27604   0.18964   0.84705   0.00000  Uiso   1.00
H771   H     0.29881   0.22552   0.88120   0.00000  Uiso   1.00
H772   H     0.28495   0.17118   0.88912   0.00000  Uiso   1.00
H773   H     0.01676   0.19340   0.71519   0.00000  Uiso   1.00
H774   H     0.31799   0.14058   0.78524   0.00000  Uiso   1.00
H775   H     0.19377   0.11300   0.93068   0.00000  Uiso   1.00
H776   H     0.07012   0.02122   0.78974   0.00000  Uiso   1.00
H777   H     0.09432   0.05066   0.82693   0.00000  Uiso   1.00
H778   H     0.06736   0.32609   0.86891   0.00000  Uiso   1.00
H779   H     0.02369   0.01183   0.85704   0.00000  Uiso   1.00
H780   H     0.04362   0.29671   0.83190   0.00000  Uiso   1.00
O781   O     0.16667   0.16667   0.75000   0.00000  Uiso   1.00
O782   O     0.15693   0.12393   0.66625   0.00000  Uiso   1.00
O783   O     0.12687   0.20646   0.83749   0.00000  Uiso   1.00
O784   O     0.21088   0.17493   0.65877   0.00000  Uiso   1.00
O785   O     0.17198   0.16135   0.83749   0.00000  Uiso   1.00
O786   O     0.12286   0.33075   0.79802   0.00000  Uiso   1.00
O787   O     0.16321   0.19653   0.60071   0.00000  Uiso   1.00
O788   O     0.20068   0.17109   0.89924   0.00000  Uiso   1.00
O789   O     0.17849   0.08101   0.77821   0.00000  Uiso   1.00
O790   O     0.14581   0.26136   0.76767   0.00000  Uiso   1.00
O791   O     0.07452   0.13251   0.73607   0.00000  Uiso   1.00
O792   O     0.26785   0.19179   0.71805   0.00000  Uiso   1.00
O793   O     0.06990   0.18960   0.77820   0.00000  Uiso   1.00
O794   O     0.25440   0.15277   0.76767   0.00000  Uiso   1.00
O795   O     0.13800   0.06903   0.73607   0.00000  Uiso   1.00
O796   O     0.20437   0.25527   0.71806   0.00000  Uiso   1.00
Zn797  Zn    0.19244   0.14090   0.78278   0.00000  Uiso   1.00
Zn798  Zn    0.13459   0.12378   0.72258   0.00000  Uiso   1.00
Zn799  Zn    0.21166   0.19664   0.71188   0.00000  Uiso   1.00
Zn800  Zn    0.12798   0.20535   0.78277   0.00000  Uiso   1.00
C801   C     0.38579   0.15995   0.75885   0.00000  Uiso   1.00
C802   C     0.52318   0.12388   0.96139   0.00000  Uiso   1.00
C803   C     0.54226   0.10240   0.98149   0.00000  Uiso   1.00
C804   C     0.61434   0.17360   0.74127   0.00000  Uiso   1.00
C805   C     0.53703   0.11305   0.52176   0.00000  Uiso   1.00
C806   C     0.51088   0.14497   0.54247   0.00000  Uiso   1.00
C807   C     0.55706   0.09176   0.54179   0.00000  Uiso   1.00
C808   C     0.55185   0.10209   0.58193   0.00000  Uiso   1.00
C809   C     0.51187   0.15939   0.58166   0.00000  Uiso   1.00
C810   C     0.66034   0.17632   0.73782   0.00000  Uiso   1.00
C811   C     0.34038   0.15775   0.76235   0.00000  Uiso   1.00
C812   C     0.42926   0.21255   0.92128   0.00000  Uiso   1.00
C813   C     0.51169   0.32168   0.73760   0.00000  Uiso   1.00
C814   C     0.48388   0.01253   0.76378   0.00000  Uiso   1.00
C815   C     0.48956   0.05629   0.75873   0.00000  Uiso   1.00
C816   C     0.50984   0.27764   0.74144   0.00000  Uiso   1.00
C817   C     0.52156   0.14512   0.64411   0.00000  Uiso   1.00
C818   C     0.47881   0.18795   0.85625   0.00000  Uiso   1.00
C819   C     0.46701   0.19442   0.89970   0.00000  Uiso   1.00
C820   C     0.52965   0.13603   0.60170   0.00000  Uiso   1.00
C821   C     0.41645   0.21539   0.96222   0.00000  Uiso   1.00
C822   C     0.41904   0.01894   0.81320   0.00000  Uiso   1.00
C823   C     0.49261   0.18035   0.91985   0.00000  Uiso   1.00
C824   C     0.38639   0.32854   0.84476   0.00000  Uiso   1.00
C825   C     0.52860   0.22965   0.58827   0.00000  Uiso   1.00
C826   C     0.51362   0.27020   0.61167   0.00000  Uiso   1.00
C827   C     0.56337   0.20684   0.90286   0.00000  Uiso   1.00
C828   C     0.60865   0.19768   0.87851   0.00000  Uiso   1.00
C829   C     0.47653   0.17738   0.96090   0.00000  Uiso   1.00
C830   C     0.43945   0.19757   0.98238   0.00000  Uiso   1.00
C831   C     0.49640   0.15528   0.98119   0.00000  Uiso   1.00
C832   C     0.48580   0.16172   0.52289   0.00000  Uiso   1.00
C833   C     0.44798   0.18090   0.54346   0.00000  Uiso   1.00
C834   C     0.42524   0.19837   0.52346   0.00000  Uiso   1.00
F835   F     0.38856   0.21541   0.54472   0.00000  Uiso   1.00
F836   F     0.54171   0.00442   0.70636   0.00000  Uiso   1.00
F837   F     0.56923   0.07955   0.60138   0.00000  Uiso   1.00
F838   F     0.56640   0.07142   0.96122   0.00000  Uiso   1.00
F839   F     0.38038   0.23422   0.98184   0.00000  Uiso   1.00
F840   F     0.40430   0.22744   0.90290   0.00000  Uiso   1.00
F841   F     0.42882   0.17758   0.58227   0.00000  Uiso   1.00
H842   H     0.57591   0.06642   0.52666   0.00000  Uiso   1.00
H843   H     0.53396   0.23235   0.55644   0.00000  Uiso   1.00
H844   H     0.55981   0.22532   0.59349   0.00000  Uiso   1.00
H845   H     0.50852   0.26865   0.64358   0.00000  Uiso   1.00
H846   H     0.53850   0.29657   0.60212   0.00000  Uiso   1.00
H847   H     0.48278   0.27575   0.60672   0.00000  Uiso   1.00
H848   H     0.56378   0.21539   0.93411   0.00000  Uiso   1.00
H849   H     0.55490   0.23375   0.89171   0.00000  Uiso   1.00
H850   H     0.60937   0.18964   0.84705   0.00000  Uiso   1.00
H851   H     0.63214   0.22552   0.88120   0.00000  Uiso   1.00
H852   H     0.61828   0.17118   0.88912   0.00000  Uiso   1.00
H853   H     0.35010   0.19340   0.71519   0.00000  Uiso   1.00
H854   H     0.65132   0.14058   0.78524   0.00000  Uiso   1.00
H855   H     0.52710   0.11300   0.93068   0.00000  Uiso   1.00
H856   H     0.40346   0.02122   0.78974   0.00000  Uiso   1.00
H857   H     0.42765   0.05066   0.82693   0.00000  Uiso   1.00
H858   H     0.40070   0.32609   0.86891   0.00000  Uiso   1.00
H859   H     0.35702   0.01183   0.85704   0.00000  Uiso   1.00
H860   H     0.37695   0.29671   0.83190   0.00000  Uiso   1.00
O861   O     0.50000   0.16667   0.75000   0.00000  Uiso   1.00
O862   O     0.49027   0.12393   0.66625   0.00000  Uiso   1.00
O863   O     0.46020   0.20646   0.83749   0.00000  Uiso   1.00
O864   O     0.54421   0.17493   0.65877   0.00000  Uiso   1.00
O865   O     0.50532   0.16135   0.83749   0.00000  Uiso   1.00
O866   O     0.45619   0.33075   0.79802   0.00000  Uiso   1.00
O867   O     0.49655   0.19653   0.60071   0.00000  Uiso   1.00
O868   O     0.53401   0.17109   0.89924   0.00000  Uiso   1.00
O869   O     0.51182   0.08101   0.77821   0.00000  Uiso   1.00
O870   O     0.47914   0.26136   0.76767   0.00000  Uiso   1.00
O871   O     0.40785   0.13251   0.73607   0.00000  Uiso   1.00
O872   O     0.60119   0.19179   0.71805   0.00000  Uiso   1.00
O873   O     0.40323   0.18960   0.77820   0.00000  Uiso   1.00
O874   O     0.58773   0.15277   0.76767   0.00000  Uiso   1.00
O875   O     0.47133   0.06903   0.73607   0.00000  Uiso   1.00
O876   O     0.53771   0.25527   0.71806   0.00000  Uiso   1.00
Zn877  Zn    0.52577   0.14090   0.78278   0.00000  Uiso   1.00
Zn878  Zn    0.46792   0.12378   0.72258   0.00000  Uiso   1.00
Zn879  Zn    0.54500   0.19664   0.71188   0.00000  Uiso   1.00
Zn880  Zn    0.46131   0.20535   0.78277   0.00000  Uiso   1.00
C881   C     0.71912   0.15995   0.75885   0.00000  Uiso   1.00
C882   C     0.85652   0.12388   0.96139   0.00000  Uiso   1.00
C883   C     0.87559   0.10240   0.98149   0.00000  Uiso   1.00
C884   C     0.94767   0.17360   0.74127   0.00000  Uiso   1.00
C885   C     0.87036   0.11305   0.52176   0.00000  Uiso   1.00
C886   C     0.84421   0.14497   0.54247   0.00000  Uiso   1.00
C887   C     0.89039   0.09176   0.54179   0.00000  Uiso   1.00
C888   C     0.88518   0.10209   0.58193   0.00000  Uiso   1.00
C889   C     0.84520   0.15939   0.58166   0.00000  Uiso   1.00
C890   C     0.99367   0.17632   0.73782   0.00000  Uiso   1.00
C891   C     0.67371   0.15775   0.76235   0.00000  Uiso   1.00
C892   C     0.76259   0.21255   0.92128   0.00000  Uiso   1.00
C893   C     0.84502   0.32168   0.73760   0.00000  Uiso   1.00
C894   C     0.81722   0.01253   0.76378   0.00000  Uiso   1.00
C895   C     0.82290   0.05629   0.75873   0.00000  Uiso   1.00
C896   C     0.84317   0.27764   0.74144   0.00000  Uiso   1.00
C897   C     0.85489   0.14512   0.64411   0.00000  Uiso   1.00
C898   C     0.81214   0.18795   0.85625   0.00000  Uiso   1.00
C899   C     0.80035   0.19442   0.89970   0.00000  Uiso   1.00
C900   C     0.86299   0.13603   0.60170   0.00000  Uiso   1.00
C901   C     0.74978   0.21539   0.96222   0.00000  Uiso   1.00
C902   C     0.75237   0.01894   0.81320   0.00000  Uiso   1.00
C903   C     0.82594   0.18035   0.91985   0.00000  Uiso   1.00
C904   C     0.71972   0.32854   0.84476   0.00000  Uiso   1.00
C905   C     0.86193   0.22965   0.58827   0.00000  Uiso   1.00
C906   C     0.84695   0.27020   0.61167   0.00000  Uiso   1.00
C907   C     0.89670   0.20684   0.90286   0.00000  Uiso   1.00
C908   C     0.94198   0.19768   0.87851   0.00000  Uiso   1.00
C909   C     0.80986   0.17738   0.96090   0.00000  Uiso   1.00
C910   C     0.77279   0.19757   0.98238   0.00000  Uiso   1.00
C911   C     0.82973   0.15528   0.98119   0.00000  Uiso   1.00
C912   C     0.81913   0.16172   0.52289   0.00000  Uiso   1.00
C913   C     0.78131   0.18090   0.54346   0.00000  Uiso   1.00
C914   C     0.75857   0.19837   0.52346   0.00000  Uiso   1.00
F915   F     0.72189   0.21541   0.54472   0.00000  Uiso   1.00
F916   F     0.87504   0.00442   0.70636   0.00000  Uiso   1.00
F917   F     0.90257   0.07955   0.60138   0.00000  Uiso   1.00
F918   F     0.89973   0.07142   0.96122   0.00000  Uiso   1.00
F919   F     0.71371   0.23422   0.98184   0.00000  Uiso   1.00
F920   F     0.73763   0.22744   0.90290   0.00000  Uiso   1.00
F921   F     0.76215   0.17758   0.58227   0.00000  Uiso   1.00
H922   H     0.90924   0.06642   0.52666   0.00000  Uiso   1.00
H923   H     0.86730   0.23235   0.55644   0.00000  Uiso   1.00
H924   H     0.89314   0.22532   0.59349   0.00000  Uiso   1.00
H925   H     0.84186   0.26865   0.64358   0.00000  Uiso   1.00
H926   H     0.87184   0.29657   0.60212   0.00000  Uiso   1.00
H927   H     0.81611   0.27575   0.60672   0.00000  Uiso   1.00
H928   H     0.89711   0.21539   0.93411   0.00000  Uiso   1.00
H929   H     0.88823   0.23375   0.89171   0.00000  Uiso   1.00
H930   H     0.94270   0.18964   0.84705   0.00000  Uiso   1.00
H931   H     0.96547   0.22552   0.88120   0.00000  Uiso   1.00
H932   H     0.95162   0.17118   0.88912   0.00000  Uiso   1.00
H933   H     0.68343   0.19340   0.71519   0.00000  Uiso   1.00
H934   H     0.98465   0.14058   0.78524   0.00000  Uiso   1.00
H935   H     0.86043   0.11300   0.93068   0.00000  Uiso   1.00
H936   H     0.73679   0.02122   0.78974   0.00000  Uiso   1.00
H937   H     0.76098   0.05066   0.82693   0.00000  Uiso   1.00
H938   H     0.73403   0.32609   0.86891   0.00000  Uiso   1.00
H939   H     0.69035   0.01183   0.85704   0.00000  Uiso   1.00
H940   H     0.71028   0.29671   0.83190   0.00000  Uiso   1.00
O941   O     0.83333   0.16667   0.75000   0.00000  Uiso   1.00
O942   O     0.82360   0.12393   0.66625   0.00000  Uiso   1.00
O943   O     0.79354   0.20646   0.83749   0.00000  Uiso   1.00
O944   O     0.87755   0.17493   0.65877   0.00000  Uiso   1.00
O945   O     0.83865   0.16135   0.83749   0.00000  Uiso   1.00
O946   O     0.78952   0.33075   0.79802   0.00000  Uiso   1.00
O947   O     0.82988   0.19653   0.60071   0.00000  Uiso   1.00
O948   O     0.86735   0.17109   0.89924   0.00000  Uiso   1.00
O949   O     0.84515   0.08101   0.77821   0.00000  Uiso   1.00
O950   O     0.81247   0.26136   0.76767   0.00000  Uiso   1.00
O951   O     0.74119   0.13251   0.73607   0.00000  Uiso   1.00
O952   O     0.93452   0.19179   0.71805   0.00000  Uiso   1.00
O953   O     0.73656   0.18960   0.77820   0.00000  Uiso   1.00
O954   O     0.92106   0.15277   0.76767   0.00000  Uiso   1.00
O955   O     0.80467   0.06903   0.73607   0.00000  Uiso   1.00
O956   O     0.87104   0.25527   0.71806   0.00000  Uiso   1.00
Zn957  Zn    0.85910   0.14090   0.78278   0.00000  Uiso   1.00
Zn958  Zn    0.80125   0.12378   0.72258   0.00000  Uiso   1.00
Zn959  Zn    0.87833   0.19664   0.71188   0.00000  Uiso   1.00
Zn960  Zn    0.79465   0.20535   0.78277   0.00000  Uiso   1.00
C961   C     0.05246   0.49328   0.75885   0.00000  Uiso   1.00
C962   C     0.18985   0.45721   0.96139   0.00000  Uiso   1.00
C963   C     0.20892   0.43573   0.98149   0.00000  Uiso   1.00
C964   C     0.28101   0.50694   0.74127   0.00000  Uiso   1.00
C965   C     0.20369   0.44638   0.52176   0.00000  Uiso   1.00
C966   C     0.17755   0.47831   0.54247   0.00000  Uiso   1.00
C967   C     0.22372   0.42509   0.54179   0.00000  Uiso   1.00
C968   C     0.21852   0.43542   0.58193   0.00000  Uiso   1.00
C969   C     0.17853   0.49272   0.58166   0.00000  Uiso   1.00
C970   C     0.32700   0.50965   0.73782   0.00000  Uiso   1.00
C971   C     0.00705   0.49108   0.76235   0.00000  Uiso   1.00
C972   C     0.09592   0.54589   0.92128   0.00000  Uiso   1.00
C973   C     0.17835   0.65502   0.73760   0.00000  Uiso   1.00
C974   C     0.15055   0.34587   0.76378   0.00000  Uiso   1.00
C975   C     0.15623   0.38963   0.75873   0.00000  Uiso   1.00
C976   C     0.17651   0.61098   0.74144   0.00000  Uiso   1.00
C977   C     0.18823   0.47846   0.64411   0.00000  Uiso   1.00
C978   C     0.14548   0.52129   0.85625   0.00000  Uiso   1.00
C979   C     0.13368   0.52775   0.89970   0.00000  Uiso   1.00
C980   C     0.19632   0.46936   0.60170   0.00000  Uiso   1.00
C981   C     0.08312   0.54872   0.96222   0.00000  Uiso   1.00
C982   C     0.08571   0.35227   0.81320   0.00000  Uiso   1.00
C983   C     0.15928   0.51368   0.91985   0.00000  Uiso   1.00
C984   C     0.05305   0.66187   0.84476   0.00000  Uiso   1.00
C985   C     0.19526   0.56298   0.58827   0.00000  Uiso   1.00
C986   C     0.18029   0.60354   0.61167   0.00000  Uiso   1.00
C987   C     0.23004   0.54017   0.90286   0.00000  Uiso   1.00
C988   C     0.27531   0.53101   0.87851   0.00000  Uiso   1.00
C989   C     0.14319   0.51071   0.96090   0.00000  Uiso   1.00
C990   C     0.10612   0.53090   0.98238   0.00000  Uiso   1.00
C991   C     0.16306   0.48861   0.98119   0.00000  Uiso   1.00
C992   C     0.15246   0.49506   0.52289   0.00000  Uiso   1.00
C993   C     0.11465   0.51423   0.54346   0.00000  Uiso   1.00
C994   C     0.09191   0.53171   0.52346   0.00000  Uiso   1.00
F995   F     0.05523   0.54875   0.54472   0.00000  Uiso   1.00
F996   F     0.20837   0.33776   0.70636   0.00000  Uiso   1.00
F997   F     0.23590   0.41288   0.60138   0.00000  Uiso   1.00
F998   F     0.23307   0.40475   0.96122   0.00000  Uiso   1.00
F999   F     0.04704   0.56755   0.98184   0.00000  Uiso   1.00
F1000  F     0.07097   0.56077   0.90290   0.00000  Uiso   1.00
F1001  F     0.09549   0.51091   0.58227   0.00000  Uiso   1.00
H1002  H     0.24257   0.39976   0.52666   0.00000  Uiso   1.00
H1003  H     0.20063   0.56568   0.55644   0.00000  Uiso   1.00
H1004  H     0.22648   0.55866   0.59349   0.00000  Uiso   1.00
H1005  H     0.17519   0.60198   0.64358   0.00000  Uiso   1.00
H1006  H     0.20517   0.62990   0.60212   0.00000  Uiso   1.00
H1007  H     0.14945   0.60908   0.60672   0.00000  Uiso   1.00
H1008  H     0.23045   0.54872   0.93411   0.00000  Uiso   1.00
H1009  H     0.22157   0.56708   0.89171   0.00000  Uiso   1.00
H1010  H     0.27604   0.52297   0.84705   0.00000  Uiso   1.00
H1011  H     0.29881   0.55885   0.88120   0.00000  Uiso   1.00
H1012  H     0.28495   0.50451   0.88912   0.00000  Uiso   1.00
H1013  H     0.01676   0.52673   0.71519   0.00000  Uiso   1.00
H1014  H     0.31799   0.47391   0.78524   0.00000  Uiso   1.00
H1015  H     0.19377   0.44633   0.93068   0.00000  Uiso   1.00
H1016  H     0.07012   0.35456   0.78974   0.00000  Uiso   1.00
H1017  H     0.09432   0.38400   0.82693   0.00000  Uiso   1.00
H1018  H     0.06736   0.65942   0.86891   0.00000  Uiso   1.00
H1019  H     0.02369   0.34516   0.85704   0.00000  Uiso   1.00
H1020  H     0.04362   0.63004   0.83190   0.00000  Uiso   1.00
O1021  O     0.16667   0.50000   0.75000   0.00000  Uiso   1.00
O1022  O     0.15693   0.45726   0.66625   0.00000  Uiso   1.00
O1023  O     0.12687   0.53979   0.83749   0.00000  Uiso   1.00
O1024  O     0.21088   0.50826   0.65877   0.00000  Uiso   1.00
O1025  O     0.17198   0.49468   0.83749   0.00000  Uiso   1.00
O1026  O     0.12286   0.66408   0.79802   0.00000  Uiso   1.00
O1027  O     0.16321   0.52986   0.60071   0.00000  Uiso   1.00
O1028  O     0.20068   0.50442   0.89924   0.00000  Uiso   1.00
O1029  O     0.17849   0.41434   0.77821   0.00000  Uiso   1.00
O1030  O     0.14581   0.59469   0.76767   0.00000  Uiso   1.00
O1031  O     0.07452   0.46584   0.73607   0.00000  Uiso   1.00
O1032  O     0.26785   0.52512   0.71805   0.00000  Uiso   1.00
O1033  O     0.06990   0.52293   0.77820   0.00000  Uiso   1.00
O1034  O     0.25440   0.48610   0.76767   0.00000  Uiso   1.00
O1035  O     0.13800   0.40236   0.73607   0.00000  Uiso   1.00
O1036  O     0.20437   0.58860   0.71806   0.00000  Uiso   1.00
Zn1037 Zn    0.19244   0.47423   0.78278   0.00000  Uiso   1.00
Zn1038 Zn    0.13459   0.45711   0.72258   0.00000  Uiso   1.00
Zn1039 Zn    0.21166   0.52997   0.71188   0.00000  Uiso   1.00
Zn1040 Zn    0.12798   0.53868   0.78277   0.00000  Uiso   1.00
C1041  C     0.38579   0.49328   0.75885   0.00000  Uiso   1.00
C1042  C     0.52318   0.45721   0.96139   0.00000  Uiso   1.00
C1043  C     0.54226   0.43573   0.98149   0.00000  Uiso   1.00
C1044  C     0.61434   0.50694   0.74127   0.00000  Uiso   1.00
C1045  C     0.53703   0.44638   0.52176   0.00000  Uiso   1.00
C1046  C     0.51088   0.47831   0.54247   0.00000  Uiso   1.00
C1047  C     0.55706   0.42509   0.54179   0.00000  Uiso   1.00
C1048  C     0.55185   0.43542   0.58193   0.00000  Uiso   1.00
C1049  C     0.51187   0.49272   0.58166   0.00000  Uiso   1.00
C1050  C     0.66034   0.50965   0.73782   0.00000  Uiso   1.00
C1051  C     0.34038   0.49108   0.76235   0.00000  Uiso   1.00
C1052  C     0.42926   0.54589   0.92128   0.00000  Uiso   1.00
C1053  C     0.51169   0.65502   0.73760   0.00000  Uiso   1.00
C1054  C     0.48388   0.34587   0.76378   0.00000  Uiso   1.00
C1055  C     0.48956   0.38963   0.75873   0.00000  Uiso   1.00
C1056  C     0.50984   0.61098   0.74144   0.00000  Uiso   1.00
C1057  C     0.52156   0.47846   0.64411   0.00000  Uiso   1.00
C1058  C     0.47881   0.52129   0.85625   0.00000  Uiso   1.00
C1059  C     0.46701   0.52775   0.89970   0.00000  Uiso   1.00
C1060  C     0.52965   0.46936   0.60170   0.00000  Uiso   1.00
C1061  C     0.41645   0.54872   0.96222   0.00000  Uiso   1.00
C1062  C     0.41904   0.35227   0.81320   0.00000  Uiso   1.00
C1063  C     0.49261   0.51368   0.91985   0.00000  Uiso   1.00
C1064  C     0.38639   0.66187   0.84476   0.00000  Uiso   1.00
C1065  C     0.52860   0.56298   0.58827   0.00000  Uiso   1.00
C1066  C     0.51362   0.60354   0.61167   0.00000  Uiso   1.00
C1067  C     0.56337   0.54017   0.90286   0.00000  Uiso   1.00
C1068  C     0.60865   0.53101   0.87851   0.00000  Uiso   1.00
C1069  C     0.47653   0.51071   0.96090   0.00000  Uiso   1.00
C1070  C     0.43945   0.53090   0.98238   0.00000  Uiso   1.00
C1071  C     0.49640   0.48861   0.98119   0.00000  Uiso   1.00
C1072  C     0.48580   0.49506   0.52289   0.00000  Uiso   1.00
C1073  C     0.44798   0.51423   0.54346   0.00000  Uiso   1.00
C1074  C     0.42524   0.53171   0.52346   0.00000  Uiso   1.00
F1075  F     0.38856   0.54875   0.54472   0.00000  Uiso   1.00
F1076  F     0.54171   0.33776   0.70636   0.00000  Uiso   1.00
F1077  F     0.56923   0.41288   0.60138   0.00000  Uiso   1.00
F1078  F     0.56640   0.40475   0.96122   0.00000  Uiso   1.00
F1079  F     0.38038   0.56755   0.98184   0.00000  Uiso   1.00
F1080  F     0.40430   0.56077   0.90290   0.00000  Uiso   1.00
F1081  F     0.42882   0.51091   0.58227   0.00000  Uiso   1.00
H1082  H     0.57591   0.39976   0.52666   0.00000  Uiso   1.00
H1083  H     0.53396   0.56568   0.55644   0.00000  Uiso   1.00
H1084  H     0.55981   0.55866   0.59349   0.00000  Uiso   1.00
H1085  H     0.50852   0.60198   0.64358   0.00000  Uiso   1.00
H1086  H     0.53850   0.62990   0.60212   0.00000  Uiso   1.00
H1087  H     0.48278   0.60908   0.60672   0.00000  Uiso   1.00
H1088  H     0.56378   0.54872   0.93411   0.00000  Uiso   1.00
H1089  H     0.55490   0.56708   0.89171   0.00000  Uiso   1.00
H1090  H     0.60937   0.52297   0.84705   0.00000  Uiso   1.00
H1091  H     0.63214   0.55885   0.88120   0.00000  Uiso   1.00
H1092  H     0.61828   0.50451   0.88912   0.00000  Uiso   1.00
H1093  H     0.35010   0.52673   0.71519   0.00000  Uiso   1.00
H1094  H     0.65132   0.47391   0.78524   0.00000  Uiso   1.00
H1095  H     0.52710   0.44633   0.93068   0.00000  Uiso   1.00
H1096  H     0.40346   0.35456   0.78974   0.00000  Uiso   1.00
H1097  H     0.42765   0.38400   0.82693   0.00000  Uiso   1.00
H1098  H     0.40070   0.65942   0.86891   0.00000  Uiso   1.00
H1099  H     0.35702   0.34516   0.85704   0.00000  Uiso   1.00
H1100  H     0.37695   0.63004   0.83190   0.00000  Uiso   1.00
O1101  O     0.50000   0.50000   0.75000   0.00000  Uiso   1.00
O1102  O     0.49027   0.45726   0.66625   0.00000  Uiso   1.00
O1103  O     0.46020   0.53979   0.83749   0.00000  Uiso   1.00
O1104  O     0.54421   0.50826   0.65877   0.00000  Uiso   1.00
O1105  O     0.50532   0.49468   0.83749   0.00000  Uiso   1.00
O1106  O     0.45619   0.66408   0.79802   0.00000  Uiso   1.00
O1107  O     0.49655   0.52986   0.60071   0.00000  Uiso   1.00
O1108  O     0.53401   0.50442   0.89924   0.00000  Uiso   1.00
O1109  O     0.51182   0.41434   0.77821   0.00000  Uiso   1.00
O1110  O     0.47914   0.59469   0.76767   0.00000  Uiso   1.00
O1111  O     0.40785   0.46584   0.73607   0.00000  Uiso   1.00
O1112  O     0.60119   0.52512   0.71805   0.00000  Uiso   1.00
O1113  O     0.40323   0.52293   0.77820   0.00000  Uiso   1.00
O1114  O     0.58773   0.48610   0.76767   0.00000  Uiso   1.00
O1115  O     0.47133   0.40236   0.73607   0.00000  Uiso   1.00
O1116  O     0.53771   0.58860   0.71806   0.00000  Uiso   1.00
Zn1117 Zn    0.52577   0.47423   0.78278   0.00000  Uiso   1.00
Zn1118 Zn    0.46792   0.45711   0.72258   0.00000  Uiso   1.00
Zn1119 Zn    0.54500   0.52997   0.71188   0.00000  Uiso   1.00
Zn1120 Zn    0.46131   0.53868   0.78277   0.00000  Uiso   1.00
C1121  C     0.71912   0.49328   0.75885   0.00000  Uiso   1.00
C1122  C     0.85652   0.45721   0.96139   0.00000  Uiso   1.00
C1123  C     0.87559   0.43573   0.98149   0.00000  Uiso   1.00
C1124  C     0.94767   0.50694   0.74127   0.00000  Uiso   1.00
C1125  C     0.87036   0.44638   0.52176   0.00000  Uiso   1.00
C1126  C     0.84421   0.47831   0.54247   0.00000  Uiso   1.00
C1127  C     0.89039   0.42509   0.54179   0.00000  Uiso   1.00
C1128  C     0.88518   0.43542   0.58193   0.00000  Uiso   1.00
C1129  C     0.84520   0.49272   0.58166   0.00000  Uiso   1.00
C1130  C     0.99367   0.50965   0.73782   0.00000  Uiso   1.00
C1131  C     0.67371   0.49108   0.76235   0.00000  Uiso   1.00
C1132  C     0.76259   0.54589   0.92128   0.00000  Uiso   1.00
C1133  C     0.84502   0.65502   0.73760   0.00000  Uiso   1.00
C1134  C     0.81722   0.34587   0.76378   0.00000  Uiso   1.00
C1135  C     0.82290   0.38963   0.75873   0.00000  Uiso   1.00
C1136  C     0.84317   0.61098   0.74144   0.00000  Uiso   1.00
C1137  C     0.85489   0.47846   0.64411   0.00000  Uiso   1.00
C1138  C     0.81214   0.52129   0.85625   0.00000  Uiso   1.00
C1139  C     0.80035   0.52775   0.89970   0.00000  Uiso   1.00
C1140  C     0.86299   0.46936   0.60170   0.00000  Uiso   1.00
C1141  C     0.74978   0.54872   0.96222   0.00000  Uiso   1.00
C1142  C     0.75237   0.35227   0.81320   0.00000  Uiso   1.00
C1143  C     0.82594   0.51368   0.91985   0.00000  Uiso   1.00
C1144  C     0.71972   0.66187   0.84476   0.00000  Uiso   1.00
C1145  C     0.86193   0.56298   0.58827   0.00000  Uiso   1.00
C1146  C     0.84695   0.60354   0.61167   0.00000  Uiso   1.00
C1147  C     0.89670   0.54017   0.90286   0.00000  Uiso   1.00
C1148  C     0.94198   0.53101   0.87851   0.00000  Uiso   1.00
C1149  C     0.80986   0.51071   0.96090   0.00000  Uiso   1.00
C1150  C     0.77279   0.53090   0.98238   0.00000  Uiso   1.00
C1151  C     0.82973   0.48861   0.98119   0.00000  Uiso   1.00
C1152  C     0.81913   0.49506   0.52289   0.00000  Uiso   1.00
C1153  C     0.78131   0.51423   0.54346   0.00000  Uiso   1.00
C1154  C     0.75857   0.53171   0.52346   0.00000  Uiso   1.00
F1155  F     0.72189   0.54875   0.54472   0.00000  Uiso   1.00
F1156  F     0.87504   0.33776   0.70636   0.00000  Uiso   1.00
F1157  F     0.90257   0.41288   0.60138   0.00000  Uiso   1.00
F1158  F     0.89973   0.40475   0.96122   0.00000  Uiso   1.00
F1159  F     0.71371   0.56755   0.98184   0.00000  Uiso   1.00
F1160  F     0.73763   0.56077   0.90290   0.00000  Uiso   1.00
F1161  F     0.76215   0.51091   0.58227   0.00000  Uiso   1.00
H1162  H     0.90924   0.39976   0.52666   0.00000  Uiso   1.00
H1163  H     0.86730   0.56568   0.55644   0.00000  Uiso   1.00
H1164  H     0.89314   0.55866   0.59349   0.00000  Uiso   1.00
H1165  H     0.84186   0.60198   0.64358   0.00000  Uiso   1.00
H1166  H     0.87184   0.62990   0.60212   0.00000  Uiso   1.00
H1167  H     0.81611   0.60908   0.60672   0.00000  Uiso   1.00
H1168  H     0.89711   0.54872   0.93411   0.00000  Uiso   1.00
H1169  H     0.88823   0.56708   0.89171   0.00000  Uiso   1.00
H1170  H     0.94270   0.52297   0.84705   0.00000  Uiso   1.00
H1171  H     0.96547   0.55885   0.88120   0.00000  Uiso   1.00
H1172  H     0.95162   0.50451   0.88912   0.00000  Uiso   1.00
H1173  H     0.68343   0.52673   0.71519   0.00000  Uiso   1.00
H1174  H     0.98465   0.47391   0.78524   0.00000  Uiso   1.00
H1175  H     0.86043   0.44633   0.93068   0.00000  Uiso   1.00
H1176  H     0.73679   0.35456   0.78974   0.00000  Uiso   1.00
H1177  H     0.76098   0.38400   0.82693   0.00000  Uiso   1.00
H1178  H     0.73403   0.65942   0.86891   0.00000  Uiso   1.00
H1179  H     0.69035   0.34516   0.85704   0.00000  Uiso   1.00
H1180  H     0.71028   0.63004   0.83190   0.00000  Uiso   1.00
O1181  O     0.83333   0.50000   0.75000   0.00000  Uiso   1.00
O1182  O     0.82360   0.45726   0.66625   0.00000  Uiso   1.00
O1183  O     0.79354   0.53979   0.83749   0.00000  Uiso   1.00
O1184  O     0.87755   0.50826   0.65877   0.00000  Uiso   1.00
O1185  O     0.83865   0.49468   0.83749   0.00000  Uiso   1.00
O1186  O     0.78952   0.66408   0.79802   0.00000  Uiso   1.00
O1187  O     0.82988   0.52986   0.60071   0.00000  Uiso   1.00
O1188  O     0.86735   0.50442   0.89924   0.00000  Uiso   1.00
O1189  O     0.84515   0.41434   0.77821   0.00000  Uiso   1.00
O1190  O     0.81247   0.59469   0.76767   0.00000  Uiso   1.00
O1191  O     0.74119   0.46584   0.73607   0.00000  Uiso   1.00
O1192  O     0.93452   0.52512   0.71805   0.00000  Uiso   1.00
O1193  O     0.73656   0.52293   0.77820   0.00000  Uiso   1.00
O1194  O     0.92106   0.48610   0.76767   0.00000  Uiso   1.00
O1195  O     0.80467   0.40236   0.73607   0.00000  Uiso   1.00
O1196  O     0.87104   0.58860   0.71806   0.00000  Uiso   1.00
Zn1197 Zn    0.85910   0.47423   0.78278   0.00000  Uiso   1.00
Zn1198 Zn    0.80125   0.45711   0.72258   0.00000  Uiso   1.00
Zn1199 Zn    0.87833   0.52997   0.71188   0.00000  Uiso   1.00
Zn1200 Zn    0.79465   0.53868   0.78277   0.00000  Uiso   1.00
C1201  C     0.05246   0.82662   0.75885   0.00000  Uiso   1.00
C1202  C     0.18985   0.79055   0.96139   0.00000  Uiso   1.00
C1203  C     0.20892   0.76906   0.98149   0.00000  Uiso   1.00
C1204  C     0.28101   0.84027   0.74127   0.00000  Uiso   1.00
C1205  C     0.20369   0.77972   0.52176   0.00000  Uiso   1.00
C1206  C     0.17755   0.81164   0.54247   0.00000  Uiso   1.00
C1207  C     0.22372   0.75843   0.54179   0.00000  Uiso   1.00
C1208  C     0.21852   0.76875   0.58193   0.00000  Uiso   1.00
C1209  C     0.17853   0.82605   0.58166   0.00000  Uiso   1.00
C1210  C     0.32700   0.84299   0.73782   0.00000  Uiso   1.00
C1211  C     0.00705   0.82442   0.76235   0.00000  Uiso   1.00
C1212  C     0.09592   0.87922   0.92128   0.00000  Uiso   1.00
C1213  C     0.17835   0.98835   0.73760   0.00000  Uiso   1.00
C1214  C     0.15055   0.67920   0.76378   0.00000  Uiso   1.00
C1215  C     0.15623   0.72296   0.75873   0.00000  Uiso   1.00
C1216  C     0.17651   0.94431   0.74144   0.00000  Uiso   1.00
C1217  C     0.18823   0.81179   0.64411   0.00000  Uiso   1.00
C1218  C     0.14548   0.85462   0.85625   0.00000  Uiso   1.00
C1219  C     0.13368   0.86109   0.89970   0.00000  Uiso   1.00
C1220  C     0.19632   0.80270   0.60170   0.00000  Uiso   1.00
C1221  C     0.08312   0.88205   0.96222   0.00000  Uiso   1.00
C1222  C     0.08571   0.68561   0.81320   0.00000  Uiso   1.00
C1223  C     0.15928   0.84701   0.91985   0.00000  Uiso   1.00
C1224  C     0.05305   0.99520   0.84476   0.00000  Uiso   1.00
C1225  C     0.19526   0.89632   0.58827   0.00000  Uiso   1.00
C1226  C     0.18029   0.93687   0.61167   0.00000  Uiso   1.00
C1227  C     0.23004   0.87350   0.90286   0.00000  Uiso   1.00
C1228  C     0.27531   0.86434   0.87851   0.00000  Uiso   1.00
C1229  C     0.14319   0.84405   0.96090   0.00000  Uiso   1.00
C1230  C     0.10612   0.86424   0.98238   0.00000  Uiso   1.00
C1231  C     0.16306   0.82195   0.98119   0.00000  Uiso   1.00
C1232  C     0.15246   0.82839   0.52289   0.00000  Uiso   1.00
C1233  C     0.11465   0.84756   0.54346   0.00000  Uiso   1.00
C1234  C     0.09191   0.86504   0.52346   0.00000  Uiso   1.00
F1235  F     0.05523   0.88208   0.54472   0.00000  Uiso   1.00
F1236  F     0.20837   0.67109   0.70636   0.00000  Uiso   1.00
F1237  F     0.23590   0.74622   0.60138   0.00000  Uiso   1.00
F1238  F     0.23307   0.73808   0.96122   0.00000  Uiso   1.00
F1239  F     0.04704   0.90088   0.98184   0.00000  Uiso   1.00
F1240  F     0.07097   0.89411   0.90290   0.00000  Uiso   1.00
F1241  F     0.09549   0.84425   0.58227   0.00000  Uiso   1.00
H1242  H     0.24257   0.73309   0.52666   0.00000  Uiso   1.00
H1243  H     0.20063   0.89901   0.55644   0.00000  Uiso   1.00
H1244  H     0.22648   0.89199   0.59349   0.00000  Uiso   1.00
H1245  H     0.17519   0.93531   0.64358   0.00000  Uiso   1.00
H1246  H     0.20517   0.96324   0.60212   0.00000  Uiso   1.00
H1247  H     0.14945   0.94241   0.60672   0.00000  Uiso   1.00
H1248  H     0.23045   0.88206   0.93411   0.00000  Uiso   1.00
H1249  H     0.22157   0.90042   0.89171   0.00000  Uiso   1.00
H1250  H     0.27604   0.85630   0.84705   0.00000  Uiso   1.00
H1251  H     0.29881   0.89218   0.88120   0.00000  Uiso   1.00
H1252  H     0.28495   0.83785   0.88912   0.00000  Uiso   1.00
H1253  H     0.01676   0.86007   0.71519   0.00000  Uiso   1.00
H1254  H     0.31799   0.80724   0.78524   0.00000  Uiso   1.00
H1255  H     0.19377   0.77967   0.93068   0.00000  Uiso   1.00
H1256  H     0.07012   0.68789   0.78974   0.00000  Uiso   1.00
H1257  H     0.09432   0.71733   0.82693   0.00000  Uiso   1.00
H1258  H     0.06736   0.99275   0.86891   0.00000  Uiso   1.00
H1259  H     0.02369   0.67849   0.85704   0.00000  Uiso   1.00
H1260  H     0.04362   0.96338   0.83190   0.00000  Uiso   1.00
O1261  O     0.16667   0.83333   0.75000   0.00000  Uiso   1.00
O1262  O     0.15693   0.79060   0.66625   0.00000  Uiso   1.00
O1263  O     0.12687   0.87313   0.83749   0.00000  Uiso   1.00
O1264  O     0.21088   0.84159   0.65877   0.00000  Uiso   1.00
O1265  O     0.17198   0.82802   0.83749   0.00000  Uiso   1.00
O1266  O     0.12286   0.99741   0.79802   0.00000  Uiso   1.00
O1267  O     0.16321   0.86320   0.60071   0.00000  Uiso   1.00
O1268  O     0.20068   0.83775   0.89924   0.00000  Uiso   1.00
O1269  O     0.17849   0.74768   0.77821   0.00000  Uiso   1.00
O1270  O     0.14581   0.92803   0.76767   0.00000  Uiso   1.00
O1271  O     0.07452   0.79917   0.73607   0.00000  Uiso   1.00
O1272  O     0.26785   0.85845   0.71805   0.00000  Uiso   1.00
O1273  O     0.06990   0.85627   0.77820   0.00000  Uiso   1.00
O1274  O     0.25440   0.81944   0.76767   0.00000  Uiso   1.00
O1275  O     0.13800   0.73570   0.73607   0.00000  Uiso   1.00
O1276  O     0.20437   0.92193   0.71806   0.00000  Uiso   1.00
Zn1277 Zn    0.19244   0.80756   0.78278   0.00000  Uiso   1.00
Zn1278 Zn    0.13459   0.79044   0.72258   0.00000  Uiso   1.00
Zn1279 Zn    0.21166   0.86331   0.71188   0.00000  Uiso   1.00
Zn1280 Zn    0.12798   0.87202   0.78277   0.00000  Uiso   1.00
C1281  C     0.38579   0.82662   0.75885   0.00000  Uiso   1.00
C1282  C     0.52318   0.79055   0.96139   0.00000  Uiso   1.00
C1283  C     0.54226   0.76906   0.98149   0.00000  Uiso   1.00
C1284  C     0.61434   0.84027   0.74127   0.00000  Uiso   1.00
C1285  C     0.53703   0.77972   0.52176   0.00000  Uiso   1.00
C1286  C     0.51088   0.81164   0.54247   0.00000  Uiso   1.00
C1287  C     0.55706   0.75843   0.54179   0.00000  Uiso   1.00
C1288  C     0.55185   0.76875   0.58193   0.00000  Uiso   1.00
C1289  C     0.51187   0.82605   0.58166   0.00000  Uiso   1.00
C1290  C     0.66034   0.84299   0.73782   0.00000  Uiso   1.00
C1291  C     0.34038   0.82442   0.76235   0.00000  Uiso   1.00
C1292  C     0.42926   0.87922   0.92128   0.00000  Uiso   1.00
C1293  C     0.51169   0.98835   0.73760   0.00000  Uiso   1.00
C1294  C     0.48388   0.67920   0.76378   0.00000  Uiso   1.00
C1295  C     0.48956   0.72296   0.75873   0.00000  Uiso   1.00
C1296  C     0.50984   0.94431   0.74144   0.00000  Uiso   1.00
C1297  C     0.52156   0.81179   0.64411   0.00000  Uiso   1.00
C1298  C     0.47881   0.85462   0.85625   0.00000  Uiso   1.00
C1299  C     0.46701   0.86109   0.89970   0.00000  Uiso   1.00
C1300  C     0.52965   0.80270   0.60170   0.00000  Uiso   1.00
C1301  C     0.41645   0.88205   0.96222   0.00000  Uiso   1.00
C1302  C     0.41904   0.68561   0.81320   0.00000  Uiso   1.00
C1303  C     0.49261   0.84701   0.91985   0.00000  Uiso   1.00
C1304  C     0.38639   0.99520   0.84476   0.00000  Uiso   1.00
C1305  C     0.52860   0.89632   0.58827   0.00000  Uiso   1.00
C1306  C     0.51362   0.93687   0.61167   0.00000  Uiso   1.00
C1307  C     0.56337   0.87350   0.90286   0.00000  Uiso   1.00
C1308  C     0.60865   0.86434   0.87851   0.00000  Uiso   1.00
C1309  C     0.47653   0.84405   0.96090   0.00000  Uiso   1.00
C1310  C     0.43945   0.86424   0.98238   0.00000  Uiso   1.00
C1311  C     0.49640   0.82195   0.98119   0.00000  Uiso   1.00
C1312  C     0.48580   0.82839   0.52289   0.00000  Uiso   1.00
C1313  C     0.44798   0.84756   0.54346   0.00000  Uiso   1.00
C1314  C     0.42524   0.86504   0.52346   0.00000  Uiso   1.00
F1315  F     0.38856   0.88208   0.54472   0.00000  Uiso   1.00
F1316  F     0.54171   0.67109   0.70636   0.00000  Uiso   1.00
F1317  F     0.56923   0.74622   0.60138   0.00000  Uiso   1.00
F1318  F     0.56640   0.73808   0.96122   0.00000  Uiso   1.00
F1319  F     0.38038   0.90088   0.98184   0.00000  Uiso   1.00
F1320  F     0.40430   0.89411   0.90290   0.00000  Uiso   1.00
F1321  F     0.42882   0.84425   0.58227   0.00000  Uiso   1.00
H1322  H     0.57591   0.73309   0.52666   0.00000  Uiso   1.00
H1323  H     0.53396   0.89901   0.55644   0.00000  Uiso   1.00
H1324  H     0.55981   0.89199   0.59349   0.00000  Uiso   1.00
H1325  H     0.50852   0.93531   0.64358   0.00000  Uiso   1.00
H1326  H     0.53850   0.96324   0.60212   0.00000  Uiso   1.00
H1327  H     0.48278   0.94241   0.60672   0.00000  Uiso   1.00
H1328  H     0.56378   0.88206   0.93411   0.00000  Uiso   1.00
H1329  H     0.55490   0.90042   0.89171   0.00000  Uiso   1.00
H1330  H     0.60937   0.85630   0.84705   0.00000  Uiso   1.00
H1331  H     0.63214   0.89218   0.88120   0.00000  Uiso   1.00
H1332  H     0.61828   0.83785   0.88912   0.00000  Uiso   1.00
H1333  H     0.35010   0.86007   0.71519   0.00000  Uiso   1.00
H1334  H     0.65132   0.80724   0.78524   0.00000  Uiso   1.00
H1335  H     0.52710   0.77967   0.93068   0.00000  Uiso   1.00
H1336  H     0.40346   0.68789   0.78974   0.00000  Uiso   1.00
H1337  H     0.42765   0.71733   0.82693   0.00000  Uiso   1.00
H1338  H     0.40070   0.99275   0.86891   0.00000  Uiso   1.00
H1339  H     0.35702   0.67849   0.85704   0.00000  Uiso   1.00
H1340  H     0.37695   0.96338   0.83190   0.00000  Uiso   1.00
O1341  O     0.50000   0.83333   0.75000   0.00000  Uiso   1.00
O1342  O     0.49027   0.79060   0.66625   0.00000  Uiso   1.00
O1343  O     0.46020   0.87313   0.83749   0.00000  Uiso   1.00
O1344  O     0.54421   0.84159   0.65877   0.00000  Uiso   1.00
O1345  O     0.50532   0.82802   0.83749   0.00000  Uiso   1.00
O1346  O     0.45619   0.99741   0.79802   0.00000  Uiso   1.00
O1347  O     0.49655   0.86320   0.60071   0.00000  Uiso   1.00
O1348  O     0.53401   0.83775   0.89924   0.00000  Uiso   1.00
O1349  O     0.51182   0.74768   0.77821   0.00000  Uiso   1.00
O1350  O     0.47914   0.92803   0.76767   0.00000  Uiso   1.00
O1351  O     0.40785   0.79917   0.73607   0.00000  Uiso   1.00
O1352  O     0.60119   0.85845   0.71805   0.00000  Uiso   1.00
O1353  O     0.40323   0.85627   0.77820   0.00000  Uiso   1.00
O1354  O     0.58773   0.81944   0.76767   0.00000  Uiso   1.00
O1355  O     0.47133   0.73570   0.73607   0.00000  Uiso   1.00
O1356  O     0.53771   0.92193   0.71806   0.00000  Uiso   1.00
Zn1357 Zn    0.52577   0.80756   0.78278   0.00000  Uiso   1.00
Zn1358 Zn    0.46792   0.79044   0.72258   0.00000  Uiso   1.00
Zn1359 Zn    0.54500   0.86331   0.71188   0.00000  Uiso   1.00
Zn1360 Zn    0.46131   0.87202   0.78277   0.00000  Uiso   1.00
C1361  C     0.71912   0.82662   0.75885   0.00000  Uiso   1.00
C1362  C     0.85652   0.79055   0.96139   0.00000  Uiso   1.00
C1363  C     0.87559   0.76906   0.98149   0.00000  Uiso   1.00
C1364  C     0.94767   0.84027   0.74127   0.00000  Uiso   1.00
C1365  C     0.87036   0.77972   0.52176   0.00000  Uiso   1.00
C1366  C     0.84421   0.81164   0.54247   0.00000  Uiso   1.00
C1367  C     0.89039   0.75843   0.54179   0.00000  Uiso   1.00
C1368  C     0.88518   0.76875   0.58193   0.00000  Uiso   1.00
C1369  C     0.84520   0.82605   0.58166   0.00000  Uiso   1.00
C1370  C     0.99367   0.84299   0.73782   0.00000  Uiso   1.00
C1371  C     0.67371   0.82442   0.76235   0.00000  Uiso   1.00
C1372  C     0.76259   0.87922   0.92128   0.00000  Uiso   1.00
C1373  C     0.84502   0.98835   0.73760   0.00000  Uiso   1.00
C1374  C     0.81722   0.67920   0.76378   0.00000  Uiso   1.00
C1375  C     0.82290   0.72296   0.75873   0.00000  Uiso   1.00
C1376  C     0.84317   0.94431   0.74144   0.00000  Uiso   1.00
C1377  C     0.85489   0.81179   0.64411   0.00000  Uiso   1.00
C1378  C     0.81214   0.85462   0.85625   0.00000  Uiso   1.00
C1379  C     0.80035   0.86109   0.89970   0.00000  Uiso   1.00
C1380  C     0.86299   0.80270   0.60170   0.00000  Uiso   1.00
C1381  C     0.74978   0.88205   0.96222   0.00000  Uiso   1.00
C1382  C     0.75237   0.68561   0.81320   0.00000  Uiso   1.00
C1383  C     0.82594   0.84701   0.91985   0.00000  Uiso   1.00
C1384  C     0.71972   0.99520   0.84476   0.00000  Uiso   1.00
C1385  C     0.86193   0.89632   0.58827   0.00000  Uiso   1.00
C1386  C     0.84695   0.93687   0.61167   0.00000  Uiso   1.00
C1387  C     0.89670   0.87350   0.90286   0.00000  Uiso   1.00
C1388  C     0.94198   0.86434   0.87851   0.00000  Uiso   1.00
C1389  C     0.80986   0.84405   0.96090   0.00000  Uiso   1.00
C1390  C     0.77279   0.86424   0.98238   0.00000  Uiso   1.00
C1391  C     0.82973   0.82195   0.98119   0.00000  Uiso   1.00
C1392  C     0.81913   0.82839   0.52289   0.00000  Uiso   1.00
C1393  C     0.78131   0.84756   0.54346   0.00000  Uiso   1.00
C1394  C     0.75857   0.86504   0.52346   0.00000  Uiso   1.00
F1395  F     0.72189   0.88208   0.54472   0.00000  Uiso   1.00
F1396  F     0.87504   0.67109   0.70636   0.00000  Uiso   1.00
F1397  F     0.90257   0.74622   0.60138   0.00000  Uiso   1.00
F1398  F     0.89973   0.73808   0.96122   0.00000  Uiso   1.00
F1399  F     0.71371   0.90088   0.98184   0.00000  Uiso   1.00
F1400  F     0.73763   0.89411   0.90290   0.00000  Uiso   1.00
F1401  F     0.76215   0.84425   0.58227   0.00000  Uiso   1.00
H1402  H     0.90924   0.73309   0.52666   0.00000  Uiso   1.00
H1403  H     0.86730   0.89901   0.55644   0.00000  Uiso   1.00
H1404  H     0.89314   0.89199   0.59349   0.00000  Uiso   1.00
H1405  H     0.84186   0.93531   0.64358   0.00000  Uiso   1.00
H1406  H     0.87184   0.96324   0.60212   0.00000  Uiso   1.00
H1407  H     0.81611   0.94241   0.60672   0.00000  Uiso   1.00
H1408  H     0.89711   0.88206   0.93411   0.00000  Uiso   1.00
H1409  H     0.88823   0.90042   0.89171   0.00000  Uiso   1.00
H1410  H     0.94270   0.85630   0.84705   0.00000  Uiso   1.00
H1411  H     0.96547   0.89218   0.88120   0.00000  Uiso   1.00
H1412  H     0.95162   0.83785   0.88912   0.00000  Uiso   1.00
H1413  H     0.68343   0.86007   0.71519   0.00000  Uiso   1.00
H1414  H     0.98465   0.80724   0.78524   0.00000  Uiso   1.00
H1415  H     0.86043   0.77967   0.93068   0.00000  Uiso   1.00
H1416  H     0.73679   0.68789   0.78974   0.00000  Uiso   1.00
H1417  H     0.76098   0.71733   0.82693   0.00000  Uiso   1.00
H1418  H     0.73403   0.99275   0.86891   0.00000  Uiso   1.00
H1419  H     0.69035   0.67849   0.85704   0.00000  Uiso   1.00
H1420  H     0.71028   0.96338   0.83190   0.00000  Uiso   1.00
O1421  O     0.83333   0.83333   0.75000   0.00000  Uiso   1.00
O1422  O     0.82360   0.79060   0.66625   0.00000  Uiso   1.00
O1423  O     0.79354   0.87313   0.83749   0.00000  Uiso   1.00
O1424  O     0.87755   0.84159   0.65877   0.00000  Uiso   1.00
O1425  O     0.83865   0.82802   0.83749   0.00000  Uiso   1.00
O1426  O     0.78952   0.99741   0.79802   0.00000  Uiso   1.00
O1427  O     0.82988   0.86320   0.60071   0.00000  Uiso   1.00
O1428  O     0.86735   0.83775   0.89924   0.00000  Uiso   1.00
O1429  O     0.84515   0.74768   0.77821   0.00000  Uiso   1.00
O1430  O     0.81247   0.92803   0.76767   0.00000  Uiso   1.00
O1431  O     0.74119   0.79917   0.73607   0.00000  Uiso   1.00
O1432  O     0.93452   0.85845   0.71805   0.00000  Uiso   1.00
O1433  O     0.73656   0.85627   0.77820   0.00000  Uiso   1.00
O1434  O     0.92106   0.81944   0.76767   0.00000  Uiso   1.00
O1435  O     0.80467   0.73570   0.73607   0.00000  Uiso   1.00
O1436  O     0.87104   0.92193   0.71806   0.00000  Uiso   1.00
Zn1437 Zn    0.85910   0.80756   0.78278   0.00000  Uiso   1.00
Zn1438 Zn    0.80125   0.79044   0.72258   0.00000  Uiso   1.00
Zn1439 Zn    0.87833   0.86331   0.71188   0.00000  Uiso   1.00
Zn1440 Zn    0.79465   0.87202   0.78277   0.00000  Uiso   1.00
loop_
_geom_bond_atom_site_label_1
_geom_bond_atom_site_label_2
_geom_bond_distance
_geom_bond_site_symmetry_2
_ccdc_geom_bond_type
C1     O71     1.269   .     A
C1     C11     1.436   .     S
C1     O73     1.269   .     A
C2     H55     1.079   .     S
C2     C31     1.412   .     A
C2     C3      1.388   .     A
C3     F38     1.359   .     S
C3     C725    1.396   .     S
C4     O74     1.281   .     A
C4     C10     1.454   .     S
C4     O72     1.284   .     A
C5     C6      1.421   .     A
C5     C7      1.403   .     A
C5     C723    1.396   1_554 S
C6     C9      1.419   .     A
C6     C32     1.424   .     A
C7     C8      1.390   .     A
C7     H42     1.083   .     S
C8     C20     1.397   .     A
C8     F37     1.358   .     S
C9     O67     1.384   .     S
C9     C20     1.399   .     A
C10    C91     1.334   .     S
C10    H133    1.088   .     S
C11    C170    1.334   1_455 S
C11    H214    1.086   1_455 S
C12    C21     1.392   .     A
C12    F40     1.358   .     S
C12    C19     1.405   .     A
C13    C16     1.455   .     S
C13    C254    1.346   .     S
C13    F276    1.363   .     S
C14    C15     1.444   .     S
C14    C493    1.346   1_545 S
C14    O546    1.398   1_545 S
C15    O75     1.277   .     A
C15    O69     1.272   .     A
C16    O70     1.265   .     A
C16    O76     1.274   .     A
C17    O64     1.277   .     A
C17    C20     1.453   .     S
C17    O62     1.274   .     A
C18    O65     1.286   .     A
C18    O63     1.281   .     A
C18    C19     1.477   .     S
C19    C23     1.407   .     A
C21    F39     1.358   .     S
C21    C30     1.407   .     A
C22    H57     1.113   .     S
C22    H56     1.115   .     S
C22    C504    1.521   1_545 S
C22    O546    1.413   1_545 S
C23    C29     1.419   .     A
C23    O68     1.384   .     S
C24    H60     1.111   .     S
C24    H58     1.111   .     S
C24    C262    1.521   .     S
C24    H299    1.111   .     S
C25    O67     1.412   .     S
C25    H43     1.114   .     S
C25    H44     1.115   .     S
C25    C26     1.521   .     S
C26    H45     1.111   .     S
C26    H47     1.111   .     S
C26    H46     1.111   .     S
C27    H48     1.114   .     S
C27    O68     1.412   .     S
C27    C28     1.521   .     S
C27    H49     1.115   .     S
C28    H51     1.111   .     S
C28    H50     1.111   .     S
C28    H52     1.111   .     S
C29    C30     1.420   .     A
C29    C31     1.423   .     A
C30    C754    1.402   .     S
C31    C752    1.419   .     S
C32    C33     1.415   .     A
C32    C751    1.419   1_554 S
C33    C34     1.390   .     A
C33    F41     1.357   .     S
C34    F35     1.359   .     S
C34    C750    1.402   1_554 S
F36    C493    1.363   1_545 S
H53    C170    1.088   1_455 S
H54    C91     1.086   .     S
H59    C504    1.111   1_545 S
O61    Zn80    1.927   .     S
O61    Zn77    1.962   .     S
O61    Zn78    1.944   .     S
O61    Zn79    1.939   .     S
O62    Zn78    1.930   .     S
O63    Zn80    1.940   .     S
O64    Zn79    1.932   .     S
O65    Zn77    1.923   .     S
O66    C254    1.398   .     S
O66    C262    1.413   .     S
O69    Zn77    1.935   .     S
O70    Zn80    1.941   .     S
O71    Zn78    1.922   .     S
O72    Zn79    1.933   .     S
O73    Zn80    1.930   .     S
O74    Zn77    1.922   .     S
O75    Zn78    1.944   .     S
O76    Zn79    1.935   .     S
C81    O151    1.269   .     A
C81    C91     1.436   .     S
C81    O153    1.269   .     A
C82    H135    1.079   .     S
C82    C111    1.412   .     A
C82    C83     1.388   .     A
C83    F118    1.359   .     S
C83    C805    1.396   .     S
C84    O154    1.281   .     A
C84    C90     1.454   .     S
C84    O152    1.284   .     A
C85    C86     1.421   .     A
C85    C87     1.403   .     A
C85    C803    1.396   1_554 S
C86    C89     1.419   .     A
C86    C112    1.424   .     A
C87    C88     1.390   .     A
C87    H122    1.083   .     S
C88    C100    1.397   .     A
C88    F117    1.358   .     S
C89    O147    1.384   .     S
C89    C100    1.399   .     A
C90    C171    1.334   .     S
C90    H213    1.088   .     S
C92    C101    1.392   .     A
C92    F120    1.358   .     S
C92    C99     1.405   .     A
C93    C96     1.455   .     S
C93    C334    1.346   .     S
C93    F356    1.363   .     S
C94    C95     1.444   .     S
C94    C573    1.346   1_545 S
C94    O626    1.398   1_545 S
C95    O155    1.277   .     A
C95    O149    1.272   .     A
C96    O150    1.265   .     A
C96    O156    1.274   .     A
C97    O144    1.277   .     A
C97    C100    1.453   .     S
C97    O142    1.274   .     A
C98    O145    1.286   .     A
C98    O143    1.281   .     A
C98    C99     1.477   .     S
C99    C103    1.407   .     A
C101   F119    1.358   .     S
C101   C110    1.407   .     A
C102   H137    1.113   .     S
C102   H136    1.115   .     S
C102   C584    1.521   1_545 S
C102   O626    1.413   1_545 S
C103   C109    1.419   .     A
C103   O148    1.384   .     S
C104   H140    1.111   .     S
C104   H138    1.111   .     S
C104   C342    1.521   .     S
C104   H379    1.111   .     S
C105   O147    1.412   .     S
C105   H123    1.114   .     S
C105   H124    1.115   .     S
C105   C106    1.521   .     S
C106   H125    1.111   .     S
C106   H127    1.111   .     S
C106   H126    1.111   .     S
C107   H128    1.114   .     S
C107   O148    1.412   .     S
C107   C108    1.521   .     S
C107   H129    1.115   .     S
C108   H131    1.111   .     S
C108   H130    1.111   .     S
C108   H132    1.111   .     S
C109   C110    1.420   .     A
C109   C111    1.423   .     A
C110   C834    1.402   .     S
C111   C832    1.419   .     S
C112   C113    1.415   .     A
C112   C831    1.419   1_554 S
C113   C114    1.390   .     A
C113   F121    1.357   .     S
C114   F115    1.359   .     S
C114   C830    1.402   1_554 S
F116   C573    1.363   1_545 S
H134   C171    1.086   .     S
H139   C584    1.111   1_545 S
O141   Zn160   1.927   .     S
O141   Zn157   1.962   .     S
O141   Zn158   1.944   .     S
O141   Zn159   1.939   .     S
O142   Zn158   1.930   .     S
O143   Zn160   1.940   .     S
O144   Zn159   1.932   .     S
O145   Zn157   1.923   .     S
O146   C334    1.398   .     S
O146   C342    1.413   .     S
O149   Zn157   1.935   .     S
O150   Zn160   1.941   .     S
O151   Zn158   1.922   .     S
O152   Zn159   1.933   .     S
O153   Zn160   1.930   .     S
O154   Zn157   1.922   .     S
O155   Zn158   1.944   .     S
O156   Zn159   1.935   .     S
C161   O231    1.269   .     A
C161   C171    1.436   .     S
C161   O233    1.269   .     A
C162   H215    1.079   .     S
C162   C191    1.412   .     A
C162   C163    1.388   .     A
C163   F198    1.359   .     S
C163   C885    1.396   .     S
C164   O234    1.281   .     A
C164   C170    1.454   .     S
C164   O232    1.284   .     A
C165   C166    1.421   .     A
C165   C167    1.403   .     A
C165   C883    1.396   1_554 S
C166   C169    1.419   .     A
C166   C192    1.424   .     A
C167   C168    1.390   .     A
C167   H202    1.083   .     S
C168   C180    1.397   .     A
C168   F197    1.358   .     S
C169   O227    1.384   .     S
C169   C180    1.399   .     A
C170   C11     1.334   1_655 S
C170   H53     1.088   1_655 S
C172   C181    1.392   .     A
C172   F200    1.358   .     S
C172   C179    1.405   .     A
C173   C176    1.455   .     S
C173   C414    1.346   .     S
C173   F436    1.363   .     S
C174   C175    1.444   .     S
C174   C653    1.346   1_545 S
C174   O706    1.398   1_545 S
C175   O235    1.277   .     A
C175   O229    1.272   .     A
C176   O230    1.265   .     A
C176   O236    1.274   .     A
C177   O224    1.277   .     A
C177   C180    1.453   .     S
C177   O222    1.274   .     A
C178   O225    1.286   .     A
C178   O223    1.281   .     A
C178   C179    1.477   .     S
C179   C183    1.407   .     A
C181   F199    1.358   .     S
C181   C190    1.407   .     A
C182   H217    1.113   .     S
C182   H216    1.115   .     S
C182   C664    1.521   1_545 S
C182   O706    1.413   1_545 S
C183   C189    1.419   .     A
C183   O228    1.384   .     S
C184   H220    1.111   .     S
C184   H218    1.111   .     S
C184   C422    1.521   .     S
C184   H459    1.111   .     S
C185   O227    1.412   .     S
C185   H203    1.114   .     S
C185   H204    1.115   .     S
C185   C186    1.521   .     S
C186   H205    1.111   .     S
C186   H207    1.111   .     S
C186   H206    1.111   .     S
C187   H208    1.114   .     S
C187   O228    1.412   .     S
C187   C188    1.521   .     S
C187   H209    1.115   .     S
C188   H211    1.111   .     S
C188   H210    1.111   .     S
C188   H212    1.111   .     S
C189   C190    1.420   .     A
C189   C191    1.423   .     A
C190   C914    1.402   .     S
C191   C912    1.419   .     S
C192   C193    1.415   .     A
C192   C911    1.419   1_554 S
C193   C194    1.390   .     A
C193   F201    1.357   .     S
C194   F195    1.359   .     S
C194   C910    1.402   1_554 S
F196   C653    1.363   1_545 S
H214   C11     1.086   1_655 S
H219   C664    1.111   1_545 S
O221   Zn240   1.927   .     S
O221   Zn237   1.962   .     S
O221   Zn238   1.944   .     S
O221   Zn239   1.939   .     S
O222   Zn238   1.930   .     S
O223   Zn240   1.940   .     S
O224   Zn239   1.932   .     S
O225   Zn237   1.923   .     S
O226   C414    1.398   .     S
O226   C422    1.413   .     S
O229   Zn237   1.935   .     S
O230   Zn240   1.941   .     S
O231   Zn238   1.922   .     S
O232   Zn239   1.933   .     S
O233   Zn240   1.930   .     S
O234   Zn237   1.922   .     S
O235   Zn238   1.944   .     S
O236   Zn239   1.935   .     S
C241   O311    1.269   .     A
C241   C251    1.436   .     S
C241   O313    1.269   .     A
C242   H295    1.079   .     S
C242   C271    1.412   .     A
C242   C243    1.388   .     A
C243   F278    1.359   .     S
C243   C965    1.396   .     S
C244   O314    1.281   .     A
C244   C250    1.454   .     S
C244   O312    1.284   .     A
C245   C246    1.421   .     A
C245   C247    1.403   .     A
C245   C963    1.396   1_554 S
C246   C249    1.419   .     A
C246   C272    1.424   .     A
C247   C248    1.390   .     A
C247   H282    1.083   .     S
C248   C260    1.397   .     A
C248   F277    1.358   .     S
C249   O307    1.384   .     S
C249   C260    1.399   .     A
C250   C331    1.334   .     S
C250   H373    1.088   .     S
C251   C410    1.334   1_455 S
C251   H454    1.086   1_455 S
C252   C261    1.392   .     A
C252   F280    1.358   .     S
C252   C259    1.405   .     A
C253   C256    1.455   .     S
C253   C494    1.346   .     S
C253   F516    1.363   .     S
C254   C255    1.444   .     S
C255   O315    1.277   .     A
C255   O309    1.272   .     A
C256   O310    1.265   .     A
C256   O316    1.274   .     A
C257   O304    1.277   .     A
C257   C260    1.453   .     S
C257   O302    1.274   .     A
C258   O305    1.286   .     A
C258   O303    1.281   .     A
C258   C259    1.477   .     S
C259   C263    1.407   .     A
C261   F279    1.358   .     S
C261   C270    1.407   .     A
C262   H297    1.113   .     S
C262   H296    1.115   .     S
C263   C269    1.419   .     A
C263   O308    1.384   .     S
C264   H300    1.111   .     S
C264   H298    1.111   .     S
C264   C502    1.521   .     S
C264   H539    1.111   .     S
C265   O307    1.412   .     S
C265   H283    1.114   .     S
C265   H284    1.115   .     S
C265   C266    1.521   .     S
C266   H285    1.111   .     S
C266   H287    1.111   .     S
C266   H286    1.111   .     S
C267   H288    1.114   .     S
C267   O308    1.412   .     S
C267   C268    1.521   .     S
C267   H289    1.115   .     S
C268   H291    1.111   .     S
C268   H290    1.111   .     S
C268   H292    1.111   .     S
C269   C270    1.420   .     A
C269   C271    1.423   .     A
C270   C994    1.402   .     S
C271   C992    1.419   .     S
C272   C273    1.415   .     A
C272   C991    1.419   1_554 S
C273   C274    1.390   .     A
C273   F281    1.357   .     S
C274   F275    1.359   .     S
C274   C990    1.402   1_554 S
H293   C410    1.088   1_455 S
H294   C331    1.086   .     S
O301   Zn320   1.927   .     S
O301   Zn317   1.962   .     S
O301   Zn318   1.944   .     S
O301   Zn319   1.939   .     S
O302   Zn318   1.930   .     S
O303   Zn320   1.940   .     S
O304   Zn319   1.932   .     S
O305   Zn317   1.923   .     S
O306   C494    1.398   .     S
O306   C502    1.413   .     S
O309   Zn317   1.935   .     S
O310   Zn320   1.941   .     S
O311   Zn318   1.922   .     S
O312   Zn319   1.933   .     S
O313   Zn320   1.930   .     S
O314   Zn317   1.922   .     S
O315   Zn318   1.944   .     S
O316   Zn319   1.935   .     S
C321   O391    1.269   .     A
C321   C331    1.436   .     S
C321   O393    1.269   .     A
C322   H375    1.079   .     S
C322   C351    1.412   .     A
C322   C323    1.388   .     A
C323   F358    1.359   .     S
C323   C1045   1.396   .     S
C324   O394    1.281   .     A
C324   C330    1.454   .     S
C324   O392    1.284   .     A
C325   C326    1.421   .     A
C325   C327    1.403   .     A
C325   C1043   1.396   1_554 S
C326   C329    1.419   .     A
C326   C352    1.424   .     A
C327   C328    1.390   .     A
C327   H362    1.083   .     S
C328   C340    1.397   .     A
C328   F357    1.358   .     S
C329   O387    1.384   .     S
C329   C340    1.399   .     A
C330   C411    1.334   .     S
C330   H453    1.088   .     S
C332   C341    1.392   .     A
C332   F360    1.358   .     S
C332   C339    1.405   .     A
C333   C336    1.455   .     S
C333   C574    1.346   .     S
C333   F596    1.363   .     S
C334   C335    1.444   .     S
C335   O395    1.277   .     A
C335   O389    1.272   .     A
C336   O390    1.265   .     A
C336   O396    1.274   .     A
C337   O384    1.277   .     A
C337   C340    1.453   .     S
C337   O382    1.274   .     A
C338   O385    1.286   .     A
C338   O383    1.281   .     A
C338   C339    1.477   .     S
C339   C343    1.407   .     A
C341   F359    1.358   .     S
C341   C350    1.407   .     A
C342   H377    1.113   .     S
C342   H376    1.115   .     S
C343   C349    1.419   .     A
C343   O388    1.384   .     S
C344   H380    1.111   .     S
C344   H378    1.111   .     S
C344   C582    1.521   .     S
C344   H619    1.111   .     S
C345   O387    1.412   .     S
C345   H363    1.114   .     S
C345   H364    1.115   .     S
C345   C346    1.521   .     S
C346   H365    1.111   .     S
C346   H367    1.111   .     S
C346   H366    1.111   .     S
C347   H368    1.114   .     S
C347   O388    1.412   .     S
C347   C348    1.521   .     S
C347   H369    1.115   .     S
C348   H371    1.111   .     S
C348   H370    1.111   .     S
C348   H372    1.111   .     S
C349   C350    1.420   .     A
C349   C351    1.423   .     A
C350   C1074   1.402   .     S
C351   C1072   1.419   .     S
C352   C353    1.415   .     A
C352   C1071   1.419   1_554 S
C353   C354    1.390   .     A
C353   F361    1.357   .     S
C354   F355    1.359   .     S
C354   C1070   1.402   1_554 S
H374   C411    1.086   .     S
O381   Zn400   1.927   .     S
O381   Zn397   1.962   .     S
O381   Zn398   1.944   .     S
O381   Zn399   1.939   .     S
O382   Zn398   1.930   .     S
O383   Zn400   1.940   .     S
O384   Zn399   1.932   .     S
O385   Zn397   1.923   .     S
O386   C574    1.398   .     S
O386   C582    1.413   .     S
O389   Zn397   1.935   .     S
O390   Zn400   1.941   .     S
O391   Zn398   1.922   .     S
O392   Zn399   1.933   .     S
O393   Zn400   1.930   .     S
O394   Zn397   1.922   .     S
O395   Zn398   1.944   .     S
O396   Zn399   1.935   .     S
C401   O471    1.269   .     A
C401   C411    1.436   .     S
C401   O473    1.269   .     A
C402   H455    1.079   .     S
C402   C431    1.412   .     A
C402   C403    1.388   .     A
C403   F438    1.359   .     S
C403   C1125   1.396   .     S
C404   O474    1.281   .     A
C404   C410    1.454   .     S
C404   O472    1.284   .     A
C405   C406    1.421   .     A
C405   C407    1.403   .     A
C405   C1123   1.396   1_554 S
C406   C409    1.419   .     A
C406   C432    1.424   .     A
C407   C408    1.390   .     A
C407   H442    1.083   .     S
C408   C420    1.397   .     A
C408   F437    1.358   .     S
C409   O467    1.384   .     S
C409   C420    1.399   .     A
C410   C251    1.334   1_655 S
C410   H293    1.088   1_655 S
C412   C421    1.392   .     A
C412   F440    1.358   .     S
C412   C419    1.405   .     A
C413   C416    1.455   .     S
C413   C654    1.346   .     S
C413   F676    1.363   .     S
C414   C415    1.444   .     S
C415   O475    1.277   .     A
C415   O469    1.272   .     A
C416   O470    1.265   .     A
C416   O476    1.274   .     A
C417   O464    1.277   .     A
C417   C420    1.453   .     S
C417   O462    1.274   .     A
C418   O465    1.286   .     A
C418   O463    1.281   .     A
C418   C419    1.477   .     S
C419   C423    1.407   .     A
C421   F439    1.358   .     S
C421   C430    1.407   .     A
C422   H457    1.113   .     S
C422   H456    1.115   .     S
C423   C429    1.419   .     A
C423   O468    1.384   .     S
C424   H460    1.111   .     S
C424   H458    1.111   .     S
C424   C662    1.521   .     S
C424   H699    1.111   .     S
C425   O467    1.412   .     S
C425   H443    1.114   .     S
C425   H444    1.115   .     S
C425   C426    1.521   .     S
C426   H445    1.111   .     S
C426   H447    1.111   .     S
C426   H446    1.111   .     S
C427   H448    1.114   .     S
C427   O468    1.412   .     S
C427   C428    1.521   .     S
C427   H449    1.115   .     S
C428   H451    1.111   .     S
C428   H450    1.111   .     S
C428   H452    1.111   .     S
C429   C430    1.420   .     A
C429   C431    1.423   .     A
C430   C1154   1.402   .     S
C431   C1152   1.419   .     S
C432   C433    1.415   .     A
C432   C1151   1.419   1_554 S
C433   C434    1.390   .     A
C433   F441    1.357   .     S
C434   F435    1.359   .     S
C434   C1150   1.402   1_554 S
H454   C251    1.086   1_655 S
O461   Zn480   1.927   .     S
O461   Zn477   1.962   .     S
O461   Zn478   1.944   .     S
O461   Zn479   1.939   .     S
O462   Zn478   1.930   .     S
O463   Zn480   1.940   .     S
O464   Zn479   1.932   .     S
O465   Zn477   1.923   .     S
O466   C654    1.398   .     S
O466   C662    1.413   .     S
O469   Zn477   1.935   .     S
O470   Zn480   1.941   .     S
O471   Zn478   1.922   .     S
O472   Zn479   1.933   .     S
O473   Zn480   1.930   .     S
O474   Zn477   1.922   .     S
O475   Zn478   1.944   .     S
O476   Zn479   1.935   .     S
C481   O551    1.269   .     A
C481   C491    1.436   .     S
C481   O553    1.269   .     A
C482   H535    1.079   .     S
C482   C511    1.412   .     A
C482   C483    1.388   .     A
C483   F518    1.359   .     S
C483   C1205   1.396   .     S
C484   O554    1.281   .     A
C484   C490    1.454   .     S
C484   O552    1.284   .     A
C485   C486    1.421   .     A
C485   C487    1.403   .     A
C485   C1203   1.396   1_554 S
C486   C489    1.419   .     A
C486   C512    1.424   .     A
C487   C488    1.390   .     A
C487   H522    1.083   .     S
C488   C500    1.397   .     A
C488   F517    1.358   .     S
C489   O547    1.384   .     S
C489   C500    1.399   .     A
C490   C571    1.334   .     S
C490   H613    1.088   .     S
C491   C650    1.334   1_455 S
C491   H694    1.086   1_455 S
C492   C501    1.392   .     A
C492   F520    1.358   .     S
C492   C499    1.405   .     A
C493   C496    1.455   .     S
C493   C14     1.346   1_565 S
C493   F36     1.363   1_565 S
C494   C495    1.444   .     S
C495   O555    1.277   .     A
C495   O549    1.272   .     A
C496   O550    1.265   .     A
C496   O556    1.274   .     A
C497   O544    1.277   .     A
C497   C500    1.453   .     S
C497   O542    1.274   .     A
C498   O545    1.286   .     A
C498   O543    1.281   .     A
C498   C499    1.477   .     S
C499   C503    1.407   .     A
C501   F519    1.358   .     S
C501   C510    1.407   .     A
C502   H537    1.113   .     S
C502   H536    1.115   .     S
C503   C509    1.419   .     A
C503   O548    1.384   .     S
C504   H540    1.111   .     S
C504   H538    1.111   .     S
C504   C22     1.521   1_565 S
C504   H59     1.111   1_565 S
C505   O547    1.412   .     S
C505   H523    1.114   .     S
C505   H524    1.115   .     S
C505   C506    1.521   .     S
C506   H525    1.111   .     S
C506   H527    1.111   .     S
C506   H526    1.111   .     S
C507   H528    1.114   .     S
C507   O548    1.412   .     S
C507   C508    1.521   .     S
C507   H529    1.115   .     S
C508   H531    1.111   .     S
C508   H530    1.111   .     S
C508   H532    1.111   .     S
C509   C510    1.420   .     A
C509   C511    1.423   .     A
C510   C1234   1.402   .     S
C511   C1232   1.419   .     S
C512   C513    1.415   .     A
C512   C1231   1.419   1_554 S
C513   C514    1.390   .     A
C513   F521    1.357   .     S
C514   F515    1.359   .     S
C514   C1230   1.402   1_554 S
H533   C650    1.088   1_455 S
H534   C571    1.086   .     S
O541   Zn560   1.927   .     S
O541   Zn557   1.962   .     S
O541   Zn558   1.944   .     S
O541   Zn559   1.939   .     S
O542   Zn558   1.930   .     S
O543   Zn560   1.940   .     S
O544   Zn559   1.932   .     S
O545   Zn557   1.923   .     S
O546   C14     1.398   1_565 S
O546   C22     1.413   1_565 S
O549   Zn557   1.935   .     S
O550   Zn560   1.941   .     S
O551   Zn558   1.922   .     S
O552   Zn559   1.933   .     S
O553   Zn560   1.930   .     S
O554   Zn557   1.922   .     S
O555   Zn558   1.944   .     S
O556   Zn559   1.935   .     S
C561   O631    1.269   .     A
C561   C571    1.436   .     S
C561   O633    1.269   .     A
C562   H615    1.079   .     S
C562   C591    1.412   .     A
C562   C563    1.388   .     A
C563   F598    1.359   .     S
C563   C1285   1.396   .     S
C564   O634    1.281   .     A
C564   C570    1.454   .     S
C564   O632    1.284   .     A
C565   C566    1.421   .     A
C565   C567    1.403   .     A
C565   C1283   1.396   1_554 S
C566   C569    1.419   .     A
C566   C592    1.424   .     A
C567   C568    1.390   .     A
C567   H602    1.083   .     S
C568   C580    1.397   .     A
C568   F597    1.358   .     S
C569   O627    1.384   .     S
C569   C580    1.399   .     A
C570   C651    1.334   .     S
C570   H693    1.088   .     S
C572   C581    1.392   .     A
C572   F600    1.358   .     S
C572   C579    1.405   .     A
C573   C576    1.455   .     S
C573   C94     1.346   1_565 S
C573   F116    1.363   1_565 S
C574   C575    1.444   .     S
C575   O635    1.277   .     A
C575   O629    1.272   .     A
C576   O630    1.265   .     A
C576   O636    1.274   .     A
C577   O624    1.277   .     A
C577   C580    1.453   .     S
C577   O622    1.274   .     A
C578   O625    1.286   .     A
C578   O623    1.281   .     A
C578   C579    1.477   .     S
C579   C583    1.407   .     A
C581   F599    1.358   .     S
C581   C590    1.407   .     A
C582   H617    1.113   .     S
C582   H616    1.115   .     S
C583   C589    1.419   .     A
C583   O628    1.384   .     S
C584   H620    1.111   .     S
C584   H618    1.111   .     S
C584   C102    1.521   1_565 S
C584   H139    1.111   1_565 S
C585   O627    1.412   .     S
C585   H603    1.114   .     S
C585   H604    1.115   .     S
C585   C586    1.521   .     S
C586   H605    1.111   .     S
C586   H607    1.111   .     S
C586   H606    1.111   .     S
C587   H608    1.114   .     S
C587   O628    1.412   .     S
C587   C588    1.521   .     S
C587   H609    1.115   .     S
C588   H611    1.111   .     S
C588   H610    1.111   .     S
C588   H612    1.111   .     S
C589   C590    1.420   .     A
C589   C591    1.423   .     A
C590   C1314   1.402   .     S
C591   C1312   1.419   .     S
C592   C593    1.415   .     A
C592   C1311   1.419   1_554 S
C593   C594    1.390   .     A
C593   F601    1.357   .     S
C594   F595    1.359   .     S
C594   C1310   1.402   1_554 S
H614   C651    1.086   .     S
O621   Zn640   1.927   .     S
O621   Zn637   1.962   .     S
O621   Zn638   1.944   .     S
O621   Zn639   1.939   .     S
O622   Zn638   1.930   .     S
O623   Zn640   1.940   .     S
O624   Zn639   1.932   .     S
O625   Zn637   1.923   .     S
O626   C94     1.398   1_565 S
O626   C102    1.413   1_565 S
O629   Zn637   1.935   .     S
O630   Zn640   1.941   .     S
O631   Zn638   1.922   .     S
O632   Zn639   1.933   .     S
O633   Zn640   1.930   .     S
O634   Zn637   1.922   .     S
O635   Zn638   1.944   .     S
O636   Zn639   1.935   .     S
C641   O711    1.269   .     A
C641   C651    1.436   .     S
C641   O713    1.269   .     A
C642   H695    1.079   .     S
C642   C671    1.412   .     A
C642   C643    1.388   .     A
C643   F678    1.359   .     S
C643   C1365   1.396   .     S
C644   O714    1.281   .     A
C644   C650    1.454   .     S
C644   O712    1.284   .     A
C645   C646    1.421   .     A
C645   C647    1.403   .     A
C645   C1363   1.396   1_554 S
C646   C649    1.419   .     A
C646   C672    1.424   .     A
C647   C648    1.390   .     A
C647   H682    1.083   .     S
C648   C660    1.397   .     A
C648   F677    1.358   .     S
C649   O707    1.384   .     S
C649   C660    1.399   .     A
C650   C491    1.334   1_655 S
C650   H533    1.088   1_655 S
C652   C661    1.392   .     A
C652   F680    1.358   .     S
C652   C659    1.405   .     A
C653   C656    1.455   .     S
C653   C174    1.346   1_565 S
C653   F196    1.363   1_565 S
C654   C655    1.444   .     S
C655   O715    1.277   .     A
C655   O709    1.272   .     A
C656   O710    1.265   .     A
C656   O716    1.274   .     A
C657   O704    1.277   .     A
C657   C660    1.453   .     S
C657   O702    1.274   .     A
C658   O705    1.286   .     A
C658   O703    1.281   .     A
C658   C659    1.477   .     S
C659   C663    1.407   .     A
C661   F679    1.358   .     S
C661   C670    1.407   .     A
C662   H697    1.113   .     S
C662   H696    1.115   .     S
C663   C669    1.419   .     A
C663   O708    1.384   .     S
C664   H700    1.111   .     S
C664   H698    1.111   .     S
C664   C182    1.521   1_565 S
C664   H219    1.111   1_565 S
C665   O707    1.412   .     S
C665   H683    1.114   .     S
C665   H684    1.115   .     S
C665   C666    1.521   .     S
C666   H685    1.111   .     S
C666   H687    1.111   .     S
C666   H686    1.111   .     S
C667   H688    1.114   .     S
C667   O708    1.412   .     S
C667   C668    1.521   .     S
C667   H689    1.115   .     S
C668   H691    1.111   .     S
C668   H690    1.111   .     S
C668   H692    1.111   .     S
C669   C670    1.420   .     A
C669   C671    1.423   .     A
C670   C1394   1.402   .     S
C671   C1392   1.419   .     S
C672   C673    1.415   .     A
C672   C1391   1.419   1_554 S
C673   C674    1.390   .     A
C673   F681    1.357   .     S
C674   F675    1.359   .     S
C674   C1390   1.402   1_554 S
H694   C491    1.086   1_655 S
O701   Zn720   1.927   .     S
O701   Zn717   1.962   .     S
O701   Zn718   1.944   .     S
O701   Zn719   1.939   .     S
O702   Zn718   1.930   .     S
O703   Zn720   1.940   .     S
O704   Zn719   1.932   .     S
O705   Zn717   1.923   .     S
O706   C174    1.398   1_565 S
O706   C182    1.413   1_565 S
O709   Zn717   1.935   .     S
O710   Zn720   1.941   .     S
O711   Zn718   1.922   .     S
O712   Zn719   1.933   .     S
O713   Zn720   1.930   .     S
O714   Zn717   1.922   .     S
O715   Zn718   1.944   .     S
O716   Zn719   1.935   .     S
C721   O791    1.269   .     A
C721   C731    1.436   .     S
C721   O793    1.269   .     A
C722   H775    1.079   .     S
C722   C751    1.412   .     A
C722   C723    1.388   .     A
C723   F758    1.359   .     S
C723   C5      1.396   1_556 S
C724   O794    1.281   .     A
C724   C730    1.454   .     S
C724   O792    1.284   .     A
C725   C726    1.421   .     A
C725   C727    1.403   .     A
C726   C729    1.419   .     A
C726   C752    1.424   .     A
C727   C728    1.390   .     A
C727   H762    1.083   .     S
C728   C740    1.397   .     A
C728   F757    1.358   .     S
C729   O787    1.384   .     S
C729   C740    1.399   .     A
C730   C811    1.334   .     S
C730   H853    1.088   .     S
C731   C890    1.334   1_455 S
C731   H934    1.086   1_455 S
C732   C741    1.392   .     A
C732   F760    1.358   .     S
C732   C739    1.405   .     A
C733   C736    1.455   .     S
C733   C974    1.346   .     S
C733   F996    1.363   .     S
C734   C735    1.444   .     S
C734   C1213   1.346   1_545 S
C734   O1266   1.398   1_545 S
C735   O795    1.277   .     A
C735   O789    1.272   .     A
C736   O790    1.265   .     A
C736   O796    1.274   .     A
C737   O784    1.277   .     A
C737   C740    1.453   .     S
C737   O782    1.274   .     A
C738   O785    1.286   .     A
C738   O783    1.281   .     A
C738   C739    1.477   .     S
C739   C743    1.407   .     A
C741   F759    1.358   .     S
C741   C750    1.407   .     A
C742   H777    1.113   .     S
C742   H776    1.115   .     S
C742   C1224   1.521   1_545 S
C742   O1266   1.413   1_545 S
C743   C749    1.419   .     A
C743   O788    1.384   .     S
C744   H780    1.111   .     S
C744   H778    1.111   .     S
C744   C982    1.521   .     S
C744   H1019   1.111   .     S
C745   O787    1.412   .     S
C745   H763    1.114   .     S
C745   H764    1.115   .     S
C745   C746    1.521   .     S
C746   H765    1.111   .     S
C746   H767    1.111   .     S
C746   H766    1.111   .     S
C747   H768    1.114   .     S
C747   O788    1.412   .     S
C747   C748    1.521   .     S
C747   H769    1.115   .     S
C748   H771    1.111   .     S
C748   H770    1.111   .     S
C748   H772    1.111   .     S
C749   C750    1.420   .     A
C749   C751    1.423   .     A
C750   C34     1.402   1_556 S
C751   C32     1.419   1_556 S
C752   C753    1.415   .     A
C753   C754    1.390   .     A
C753   F761    1.357   .     S
C754   F755    1.359   .     S
F756   C1213   1.363   1_545 S
H773   C890    1.088   1_455 S
H774   C811    1.086   .     S
H779   C1224   1.111   1_545 S
O781   Zn800   1.927   .     S
O781   Zn797   1.962   .     S
O781   Zn798   1.944   .     S
O781   Zn799   1.939   .     S
O782   Zn798   1.930   .     S
O783   Zn800   1.940   .     S
O784   Zn799   1.932   .     S
O785   Zn797   1.923   .     S
O786   C974    1.398   .     S
O786   C982    1.413   .     S
O789   Zn797   1.935   .     S
O790   Zn800   1.941   .     S
O791   Zn798   1.922   .     S
O792   Zn799   1.933   .     S
O793   Zn800   1.930   .     S
O794   Zn797   1.922   .     S
O795   Zn798   1.944   .     S
O796   Zn799   1.935   .     S
C801   O871    1.269   .     A
C801   C811    1.436   .     S
C801   O873    1.269   .     A
C802   H855    1.079   .     S
C802   C831    1.412   .     A
C802   C803    1.388   .     A
C803   F838    1.359   .     S
C803   C85     1.396   1_556 S
C804   O874    1.281   .     A
C804   C810    1.454   .     S
C804   O872    1.284   .     A
C805   C806    1.421   .     A
C805   C807    1.403   .     A
C806   C809    1.419   .     A
C806   C832    1.424   .     A
C807   C808    1.390   .     A
C807   H842    1.083   .     S
C808   C820    1.397   .     A
C808   F837    1.358   .     S
C809   O867    1.384   .     S
C809   C820    1.399   .     A
C810   C891    1.334   .     S
C810   H933    1.088   .     S
C812   C821    1.392   .     A
C812   F840    1.358   .     S
C812   C819    1.405   .     A
C813   C816    1.455   .     S
C813   C1054   1.346   .     S
C813   F1076   1.363   .     S
C814   C815    1.444   .     S
C814   C1293   1.346   1_545 S
C814   O1346   1.398   1_545 S
C815   O875    1.277   .     A
C815   O869    1.272   .     A
C816   O870    1.265   .     A
C816   O876    1.274   .     A
C817   O864    1.277   .     A
C817   C820    1.453   .     S
C817   O862    1.274   .     A
C818   O865    1.286   .     A
C818   O863    1.281   .     A
C818   C819    1.477   .     S
C819   C823    1.407   .     A
C821   F839    1.358   .     S
C821   C830    1.407   .     A
C822   H857    1.113   .     S
C822   H856    1.115   .     S
C822   C1304   1.521   1_545 S
C822   O1346   1.413   1_545 S
C823   C829    1.419   .     A
C823   O868    1.384   .     S
C824   H860    1.111   .     S
C824   H858    1.111   .     S
C824   C1062   1.521   .     S
C824   H1099   1.111   .     S
C825   O867    1.412   .     S
C825   H843    1.114   .     S
C825   H844    1.115   .     S
C825   C826    1.521   .     S
C826   H845    1.111   .     S
C826   H847    1.111   .     S
C826   H846    1.111   .     S
C827   H848    1.114   .     S
C827   O868    1.412   .     S
C827   C828    1.521   .     S
C827   H849    1.115   .     S
C828   H851    1.111   .     S
C828   H850    1.111   .     S
C828   H852    1.111   .     S
C829   C830    1.420   .     A
C829   C831    1.423   .     A
C830   C114    1.402   1_556 S
C831   C112    1.419   1_556 S
C832   C833    1.415   .     A
C833   C834    1.390   .     A
C833   F841    1.357   .     S
C834   F835    1.359   .     S
F836   C1293   1.363   1_545 S
H854   C891    1.086   .     S
H859   C1304   1.111   1_545 S
O861   Zn880   1.927   .     S
O861   Zn877   1.962   .     S
O861   Zn878   1.944   .     S
O861   Zn879   1.939   .     S
O862   Zn878   1.930   .     S
O863   Zn880   1.940   .     S
O864   Zn879   1.932   .     S
O865   Zn877   1.923   .     S
O866   C1054   1.398   .     S
O866   C1062   1.413   .     S
O869   Zn877   1.935   .     S
O870   Zn880   1.941   .     S
O871   Zn878   1.922   .     S
O872   Zn879   1.933   .     S
O873   Zn880   1.930   .     S
O874   Zn877   1.922   .     S
O875   Zn878   1.944   .     S
O876   Zn879   1.935   .     S
C881   O951    1.269   .     A
C881   C891    1.436   .     S
C881   O953    1.269   .     A
C882   H935    1.079   .     S
C882   C911    1.412   .     A
C882   C883    1.388   .     A
C883   F918    1.359   .     S
C883   C165    1.396   1_556 S
C884   O954    1.281   .     A
C884   C890    1.454   .     S
C884   O952    1.284   .     A
C885   C886    1.421   .     A
C885   C887    1.403   .     A
C886   C889    1.419   .     A
C886   C912    1.424   .     A
C887   C888    1.390   .     A
C887   H922    1.083   .     S
C888   C900    1.397   .     A
C888   F917    1.358   .     S
C889   O947    1.384   .     S
C889   C900    1.399   .     A
C890   C731    1.334   1_655 S
C890   H773    1.088   1_655 S
C892   C901    1.392   .     A
C892   F920    1.358   .     S
C892   C899    1.405   .     A
C893   C896    1.455   .     S
C893   C1134   1.346   .     S
C893   F1156   1.363   .     S
C894   C895    1.444   .     S
C894   C1373   1.346   1_545 S
C894   O1426   1.398   1_545 S
C895   O955    1.277   .     A
C895   O949    1.272   .     A
C896   O950    1.265   .     A
C896   O956    1.274   .     A
C897   O944    1.277   .     A
C897   C900    1.453   .     S
C897   O942    1.274   .     A
C898   O945    1.286   .     A
C898   O943    1.281   .     A
C898   C899    1.477   .     S
C899   C903    1.407   .     A
C901   F919    1.358   .     S
C901   C910    1.407   .     A
C902   H937    1.113   .     S
C902   H936    1.115   .     S
C902   C1384   1.521   1_545 S
C902   O1426   1.413   1_545 S
C903   C909    1.419   .     A
C903   O948    1.384   .     S
C904   H940    1.111   .     S
C904   H938    1.111   .     S
C904   C1142   1.521   .     S
C904   H1179   1.111   .     S
C905   O947    1.412   .     S
C905   H923    1.114   .     S
C905   H924    1.115   .     S
C905   C906    1.521   .     S
C906   H925    1.111   .     S
C906   H927    1.111   .     S
C906   H926    1.111   .     S
C907   H928    1.114   .     S
C907   O948    1.412   .     S
C907   C908    1.521   .     S
C907   H929    1.115   .     S
C908   H931    1.111   .     S
C908   H930    1.111   .     S
C908   H932    1.111   .     S
C909   C910    1.420   .     A
C909   C911    1.423   .     A
C910   C194    1.402   1_556 S
C911   C192    1.419   1_556 S
C912   C913    1.415   .     A
C913   C914    1.390   .     A
C913   F921    1.357   .     S
C914   F915    1.359   .     S
F916   C1373   1.363   1_545 S
H934   C731    1.086   1_655 S
H939   C1384   1.111   1_545 S
O941   Zn960   1.927   .     S
O941   Zn957   1.962   .     S
O941   Zn958   1.944   .     S
O941   Zn959   1.939   .     S
O942   Zn958   1.930   .     S
O943   Zn960   1.940   .     S
O944   Zn959   1.932   .     S
O945   Zn957   1.923   .     S
O946   C1134   1.398   .     S
O946   C1142   1.413   .     S
O949   Zn957   1.935   .     S
O950   Zn960   1.941   .     S
O951   Zn958   1.922   .     S
O952   Zn959   1.933   .     S
O953   Zn960   1.930   .     S
O954   Zn957   1.922   .     S
O955   Zn958   1.944   .     S
O956   Zn959   1.935   .     S
C961   O1031   1.269   .     A
C961   C971    1.436   .     S
C961   O1033   1.269   .     A
C962   H1015   1.079   .     S
C962   C991    1.412   .     A
C962   C963    1.388   .     A
C963   F998    1.359   .     S
C963   C245    1.396   1_556 S
C964   O1034   1.281   .     A
C964   C970    1.454   .     S
C964   O1032   1.284   .     A
C965   C966    1.421   .     A
C965   C967    1.403   .     A
C966   C969    1.419   .     A
C966   C992    1.424   .     A
C967   C968    1.390   .     A
C967   H1002   1.083   .     S
C968   C980    1.397   .     A
C968   F997    1.358   .     S
C969   O1027   1.384   .     S
C969   C980    1.399   .     A
C970   C1051   1.334   .     S
C970   H1093   1.088   .     S
C971   C1130   1.334   1_455 S
C971   H1174   1.086   1_455 S
C972   C981    1.392   .     A
C972   F1000   1.358   .     S
C972   C979    1.405   .     A
C973   C976    1.455   .     S
C973   C1214   1.346   .     S
C973   F1236   1.363   .     S
C974   C975    1.444   .     S
C975   O1035   1.277   .     A
C975   O1029   1.272   .     A
C976   O1030   1.265   .     A
C976   O1036   1.274   .     A
C977   O1024   1.277   .     A
C977   C980    1.453   .     S
C977   O1022   1.274   .     A
C978   O1025   1.286   .     A
C978   O1023   1.281   .     A
C978   C979    1.477   .     S
C979   C983    1.407   .     A
C981   F999    1.358   .     S
C981   C990    1.407   .     A
C982   H1017   1.113   .     S
C982   H1016   1.115   .     S
C983   C989    1.419   .     A
C983   O1028   1.384   .     S
C984   H1020   1.111   .     S
C984   H1018   1.111   .     S
C984   C1222   1.521   .     S
C984   H1259   1.111   .     S
C985   O1027   1.412   .     S
C985   H1003   1.114   .     S
C985   H1004   1.115   .     S
C985   C986    1.521   .     S
C986   H1005   1.111   .     S
C986   H1007   1.111   .     S
C986   H1006   1.111   .     S
C987   H1008   1.114   .     S
C987   O1028   1.412   .     S
C987   C988    1.521   .     S
C987   H1009   1.115   .     S
C988   H1011   1.111   .     S
C988   H1010   1.111   .     S
C988   H1012   1.111   .     S
C989   C990    1.420   .     A
C989   C991    1.423   .     A
C990   C274    1.402   1_556 S
C991   C272    1.419   1_556 S
C992   C993    1.415   .     A
C993   C994    1.390   .     A
C993   F1001   1.357   .     S
C994   F995    1.359   .     S
H1013  C1130   1.088   1_455 S
H1014  C1051   1.086   .     S
O1021  Zn1040  1.927   .     S
O1021  Zn1037  1.962   .     S
O1021  Zn1038  1.944   .     S
O1021  Zn1039  1.939   .     S
O1022  Zn1038  1.930   .     S
O1023  Zn1040  1.940   .     S
O1024  Zn1039  1.932   .     S
O1025  Zn1037  1.923   .     S
O1026  C1214   1.398   .     S
O1026  C1222   1.413   .     S
O1029  Zn1037  1.935   .     S
O1030  Zn1040  1.941   .     S
O1031  Zn1038  1.922   .     S
O1032  Zn1039  1.933   .     S
O1033  Zn1040  1.930   .     S
O1034  Zn1037  1.922   .     S
O1035  Zn1038  1.944   .     S
O1036  Zn1039  1.935   .     S
C1041  O1111   1.269   .     A
C1041  C1051   1.436   .     S
C1041  O1113   1.269   .     A
C1042  H1095   1.079   .     S
C1042  C1071   1.412   .     A
C1042  C1043   1.388   .     A
C1043  F1078   1.359   .     S
C1043  C325    1.396   1_556 S
C1044  O1114   1.281   .     A
C1044  C1050   1.454   .     S
C1044  O1112   1.284   .     A
C1045  C1046   1.421   .     A
C1045  C1047   1.403   .     A
C1046  C1049   1.419   .     A
C1046  C1072   1.424   .     A
C1047  C1048   1.390   .     A
C1047  H1082   1.083   .     S
C1048  C1060   1.397   .     A
C1048  F1077   1.358   .     S
C1049  O1107   1.384   .     S
C1049  C1060   1.399   .     A
C1050  C1131   1.334   .     S
C1050  H1173   1.088   .     S
C1052  C1061   1.392   .     A
C1052  F1080   1.358   .     S
C1052  C1059   1.405   .     A
C1053  C1056   1.455   .     S
C1053  C1294   1.346   .     S
C1053  F1316   1.363   .     S
C1054  C1055   1.444   .     S
C1055  O1115   1.277   .     A
C1055  O1109   1.272   .     A
C1056  O1110   1.265   .     A
C1056  O1116   1.274   .     A
C1057  O1104   1.277   .     A
C1057  C1060   1.453   .     S
C1057  O1102   1.274   .     A
C1058  O1105   1.286   .     A
C1058  O1103   1.281   .     A
C1058  C1059   1.477   .     S
C1059  C1063   1.407   .     A
C1061  F1079   1.358   .     S
C1061  C1070   1.407   .     A
C1062  H1097   1.113   .     S
C1062  H1096   1.115   .     S
C1063  C1069   1.419   .     A
C1063  O1108   1.384   .     S
C1064  H1100   1.111   .     S
C1064  H1098   1.111   .     S
C1064  C1302   1.521   .     S
C1064  H1339   1.111   .     S
C1065  O1107   1.412   .     S
C1065  H1083   1.114   .     S
C1065  H1084   1.115   .     S
C1065  C1066   1.521   .     S
C1066  H1085   1.111   .     S
C1066  H1087   1.111   .     S
C1066  H1086   1.111   .     S
C1067  H1088   1.114   .     S
C1067  O1108   1.412   .     S
C1067  C1068   1.521   .     S
C1067  H1089   1.115   .     S
C1068  H1091   1.111   .     S
C1068  H1090   1.111   .     S
C1068  H1092   1.111   .     S
C1069  C1070   1.420   .     A
C1069  C1071   1.423   .     A
C1070  C354    1.402   1_556 S
C1071  C352    1.419   1_556 S
C1072  C1073   1.415   .     A
C1073  C1074   1.390   .     A
C1073  F1081   1.357   .     S
C1074  F1075   1.359   .     S
H1094  C1131   1.086   .     S
O1101  Zn1120  1.927   .     S
O1101  Zn1117  1.962   .     S
O1101  Zn1118  1.944   .     S
O1101  Zn1119  1.939   .     S
O1102  Zn1118  1.930   .     S
O1103  Zn1120  1.940   .     S
O1104  Zn1119  1.932   .     S
O1105  Zn1117  1.923   .     S
O1106  C1294   1.398   .     S
O1106  C1302   1.413   .     S
O1109  Zn1117  1.935   .     S
O1110  Zn1120  1.941   .     S
O1111  Zn1118  1.922   .     S
O1112  Zn1119  1.933   .     S
O1113  Zn1120  1.930   .     S
O1114  Zn1117  1.922   .     S
O1115  Zn1118  1.944   .     S
O1116  Zn1119  1.935   .     S
C1121  O1191   1.269   .     A
C1121  C1131   1.436   .     S
C1121  O1193   1.269   .     A
C1122  H1175   1.079   .     S
C1122  C1151   1.412   .     A
C1122  C1123   1.388   .     A
C1123  F1158   1.359   .     S
C1123  C405    1.396   1_556 S
C1124  O1194   1.281   .     A
C1124  C1130   1.454   .     S
C1124  O1192   1.284   .     A
C1125  C1126   1.421   .     A
C1125  C1127   1.403   .     A
C1126  C1129   1.419   .     A
C1126  C1152   1.424   .     A
C1127  C1128   1.390   .     A
C1127  H1162   1.083   .     S
C1128  C1140   1.397   .     A
C1128  F1157   1.358   .     S
C1129  O1187   1.384   .     S
C1129  C1140   1.399   .     A
C1130  C971    1.334   1_655 S
C1130  H1013   1.088   1_655 S
C1132  C1141   1.392   .     A
C1132  F1160   1.358   .     S
C1132  C1139   1.405   .     A
C1133  C1136   1.455   .     S
C1133  C1374   1.346   .     S
C1133  F1396   1.363   .     S
C1134  C1135   1.444   .     S
C1135  O1195   1.277   .     A
C1135  O1189   1.272   .     A
C1136  O1190   1.265   .     A
C1136  O1196   1.274   .     A
C1137  O1184   1.277   .     A
C1137  C1140   1.453   .     S
C1137  O1182   1.274   .     A
C1138  O1185   1.286   .     A
C1138  O1183   1.281   .     A
C1138  C1139   1.477   .     S
C1139  C1143   1.407   .     A
C1141  F1159   1.358   .     S
C1141  C1150   1.407   .     A
C1142  H1177   1.113   .     S
C1142  H1176   1.115   .     S
C1143  C1149   1.419   .     A
C1143  O1188   1.384   .     S
C1144  H1180   1.111   .     S
C1144  H1178   1.111   .     S
C1144  C1382   1.521   .     S
C1144  H1419   1.111   .     S
C1145  O1187   1.412   .     S
C1145  H1163   1.114   .     S
C1145  H1164   1.115   .     S
C1145  C1146   1.521   .     S
C1146  H1165   1.111   .     S
C1146  H1167   1.111   .     S
C1146  H1166   1.111   .     S
C1147  H1168   1.114   .     S
C1147  O1188   1.412   .     S
C1147  C1148   1.521   .     S
C1147  H1169   1.115   .     S
C1148  H1171   1.111   .     S
C1148  H1170   1.111   .     S
C1148  H1172   1.111   .     S
C1149  C1150   1.420   .     A
C1149  C1151   1.423   .     A
C1150  C434    1.402   1_556 S
C1151  C432    1.419   1_556 S
C1152  C1153   1.415   .     A
C1153  C1154   1.390   .     A
C1153  F1161   1.357   .     S
C1154  F1155   1.359   .     S
H1174  C971    1.086   1_655 S
O1181  Zn1200  1.927   .     S
O1181  Zn1197  1.962   .     S
O1181  Zn1198  1.944   .     S
O1181  Zn1199  1.939   .     S
O1182  Zn1198  1.930   .     S
O1183  Zn1200  1.940   .     S
O1184  Zn1199  1.932   .     S
O1185  Zn1197  1.923   .     S
O1186  C1374   1.398   .     S
O1186  C1382   1.413   .     S
O1189  Zn1197  1.935   .     S
O1190  Zn1200  1.941   .     S
O1191  Zn1198  1.922   .     S
O1192  Zn1199  1.933   .     S
O1193  Zn1200  1.930   .     S
O1194  Zn1197  1.922   .     S
O1195  Zn1198  1.944   .     S
O1196  Zn1199  1.935   .     S
C1201  O1271   1.269   .     A
C1201  C1211   1.436   .     S
C1201  O1273   1.269   .     A
C1202  H1255   1.079   .     S
C1202  C1231   1.412   .     A
C1202  C1203   1.388   .     A
C1203  F1238   1.359   .     S
C1203  C485    1.396   1_556 S
C1204  O1274   1.281   .     A
C1204  C1210   1.454   .     S
C1204  O1272   1.284   .     A
C1205  C1206   1.421   .     A
C1205  C1207   1.403   .     A
C1206  C1209   1.419   .     A
C1206  C1232   1.424   .     A
C1207  C1208   1.390   .     A
C1207  H1242   1.083   .     S
C1208  C1220   1.397   .     A
C1208  F1237   1.358   .     S
C1209  O1267   1.384   .     S
C1209  C1220   1.399   .     A
C1210  C1291   1.334   .     S
C1210  H1333   1.088   .     S
C1211  C1370   1.334   1_455 S
C1211  H1414   1.086   1_455 S
C1212  C1221   1.392   .     A
C1212  F1240   1.358   .     S
C1212  C1219   1.405   .     A
C1213  C1216   1.455   .     S
C1213  C734    1.346   1_565 S
C1213  F756    1.363   1_565 S
C1214  C1215   1.444   .     S
C1215  O1275   1.277   .     A
C1215  O1269   1.272   .     A
C1216  O1270   1.265   .     A
C1216  O1276   1.274   .     A
C1217  O1264   1.277   .     A
C1217  C1220   1.453   .     S
C1217  O1262   1.274   .     A
C1218  O1265   1.286   .     A
C1218  O1263   1.281   .     A
C1218  C1219   1.477   .     S
C1219  C1223   1.407   .     A
C1221  F1239   1.358   .     S
C1221  C1230   1.407   .     A
C1222  H1257   1.113   .     S
C1222  H1256   1.115   .     S
C1223  C1229   1.419   .     A
C1223  O1268   1.384   .     S
C1224  H1260   1.111   .     S
C1224  H1258   1.111   .     S
C1224  C742    1.521   1_565 S
C1224  H779    1.111   1_565 S
C1225  O1267   1.412   .     S
C1225  H1243   1.114   .     S
C1225  H1244   1.115   .     S
C1225  C1226   1.521   .     S
C1226  H1245   1.111   .     S
C1226  H1247   1.111   .     S
C1226  H1246   1.111   .     S
C1227  H1248   1.114   .     S
C1227  O1268   1.412   .     S
C1227  C1228   1.521   .     S
C1227  H1249   1.115   .     S
C1228  H1251   1.111   .     S
C1228  H1250   1.111   .     S
C1228  H1252   1.111   .     S
C1229  C1230   1.420   .     A
C1229  C1231   1.423   .     A
C1230  C514    1.402   1_556 S
C1231  C512    1.419   1_556 S
C1232  C1233   1.415   .     A
C1233  C1234   1.390   .     A
C1233  F1241   1.357   .     S
C1234  F1235   1.359   .     S
H1253  C1370   1.088   1_455 S
H1254  C1291   1.086   .     S
O1261  Zn1280  1.927   .     S
O1261  Zn1277  1.962   .     S
O1261  Zn1278  1.944   .     S
O1261  Zn1279  1.939   .     S
O1262  Zn1278  1.930   .     S
O1263  Zn1280  1.940   .     S
O1264  Zn1279  1.932   .     S
O1265  Zn1277  1.923   .     S
O1266  C734    1.398   1_565 S
O1266  C742    1.413   1_565 S
O1269  Zn1277  1.935   .     S
O1270  Zn1280  1.941   .     S
O1271  Zn1278  1.922   .     S
O1272  Zn1279  1.933   .     S
O1273  Zn1280  1.930   .     S
O1274  Zn1277  1.922   .     S
O1275  Zn1278  1.944   .     S
O1276  Zn1279  1.935   .     S
C1281  O1351   1.269   .     A
C1281  C1291   1.436   .     S
C1281  O1353   1.269   .     A
C1282  H1335   1.079   .     S
C1282  C1311   1.412   .     A
C1282  C1283   1.388   .     A
C1283  F1318   1.359   .     S
C1283  C565    1.396   1_556 S
C1284  O1354   1.281   .     A
C1284  C1290   1.454   .     S
C1284  O1352   1.284   .     A
C1285  C1286   1.421   .     A
C1285  C1287   1.403   .     A
C1286  C1289   1.419   .     A
C1286  C1312   1.424   .     A
C1287  C1288   1.390   .     A
C1287  H1322   1.083   .     S
C1288  C1300   1.397   .     A
C1288  F1317   1.358   .     S
C1289  O1347   1.384   .     S
C1289  C1300   1.399   .     A
C1290  C1371   1.334   .     S
C1290  H1413   1.088   .     S
C1292  C1301   1.392   .     A
C1292  F1320   1.358   .     S
C1292  C1299   1.405   .     A
C1293  C1296   1.455   .     S
C1293  C814    1.346   1_565 S
C1293  F836    1.363   1_565 S
C1294  C1295   1.444   .     S
C1295  O1355   1.277   .     A
C1295  O1349   1.272   .     A
C1296  O1350   1.265   .     A
C1296  O1356   1.274   .     A
C1297  O1344   1.277   .     A
C1297  C1300   1.453   .     S
C1297  O1342   1.274   .     A
C1298  O1345   1.286   .     A
C1298  O1343   1.281   .     A
C1298  C1299   1.477   .     S
C1299  C1303   1.407   .     A
C1301  F1319   1.358   .     S
C1301  C1310   1.407   .     A
C1302  H1337   1.113   .     S
C1302  H1336   1.115   .     S
C1303  C1309   1.419   .     A
C1303  O1348   1.384   .     S
C1304  H1340   1.111   .     S
C1304  H1338   1.111   .     S
C1304  C822    1.521   1_565 S
C1304  H859    1.111   1_565 S
C1305  O1347   1.412   .     S
C1305  H1323   1.114   .     S
C1305  H1324   1.115   .     S
C1305  C1306   1.521   .     S
C1306  H1325   1.111   .     S
C1306  H1327   1.111   .     S
C1306  H1326   1.111   .     S
C1307  H1328   1.114   .     S
C1307  O1348   1.412   .     S
C1307  C1308   1.521   .     S
C1307  H1329   1.115   .     S
C1308  H1331   1.111   .     S
C1308  H1330   1.111   .     S
C1308  H1332   1.111   .     S
C1309  C1310   1.420   .     A
C1309  C1311   1.423   .     A
C1310  C594    1.402   1_556 S
C1311  C592    1.419   1_556 S
C1312  C1313   1.415   .     A
C1313  C1314   1.390   .     A
C1313  F1321   1.357   .     S
C1314  F1315   1.359   .     S
H1334  C1371   1.086   .     S
O1341  Zn1360  1.927   .     S
O1341  Zn1357  1.962   .     S
O1341  Zn1358  1.944   .     S
O1341  Zn1359  1.939   .     S
O1342  Zn1358  1.930   .     S
O1343  Zn1360  1.940   .     S
O1344  Zn1359  1.932   .     S
O1345  Zn1357  1.923   .     S
O1346  C814    1.398   1_565 S
O1346  C822    1.413   1_565 S
O1349  Zn1357  1.935   .     S
O1350  Zn1360  1.941   .     S
O1351  Zn1358  1.922   .     S
O1352  Zn1359  1.933   .     S
O1353  Zn1360  1.930   .     S
O1354  Zn1357  1.922   .     S
O1355  Zn1358  1.944   .     S
O1356  Zn1359  1.935   .     S
C1361  O1431   1.269   .     A
C1361  C1371   1.436   .     S
C1361  O1433   1.269   .     A
C1362  H1415   1.079   .     S
C1362  C1391   1.412   .     A
C1362  C1363   1.388   .     A
C1363  F1398   1.359   .     S
C1363  C645    1.396   1_556 S
C1364  O1434   1.281   .     A
C1364  C1370   1.454   .     S
C1364  O1432   1.284   .     A
C1365  C1366   1.421   .     A
C1365  C1367   1.403   .     A
C1366  C1369   1.419   .     A
C1366  C1392   1.424   .     A
C1367  C1368   1.390   .     A
C1367  H1402   1.083   .     S
C1368  C1380   1.397   .     A
C1368  F1397   1.358   .     S
C1369  O1427   1.384   .     S
C1369  C1380   1.399   .     A
C1370  C1211   1.334   1_655 S
C1370  H1253   1.088   1_655 S
C1372  C1381   1.392   .     A
C1372  F1400   1.358   .     S
C1372  C1379   1.405   .     A
C1373  C1376   1.455   .     S
C1373  C894    1.346   1_565 S
C1373  F916    1.363   1_565 S
C1374  C1375   1.444   .     S
C1375  O1435   1.277   .     A
C1375  O1429   1.272   .     A
C1376  O1430   1.265   .     A
C1376  O1436   1.274   .     A
C1377  O1424   1.277   .     A
C1377  C1380   1.453   .     S
C1377  O1422   1.274   .     A
C1378  O1425   1.286   .     A
C1378  O1423   1.281   .     A
C1378  C1379   1.477   .     S
C1379  C1383   1.407   .     A
C1381  F1399   1.358   .     S
C1381  C1390   1.407   .     A
C1382  H1417   1.113   .     S
C1382  H1416   1.115   .     S
C1383  C1389   1.419   .     A
C1383  O1428   1.384   .     S
C1384  H1420   1.111   .     S
C1384  H1418   1.111   .     S
C1384  C902    1.521   1_565 S
C1384  H939    1.111   1_565 S
C1385  O1427   1.412   .     S
C1385  H1403   1.114   .     S
C1385  H1404   1.115   .     S
C1385  C1386   1.521   .     S
C1386  H1405   1.111   .     S
C1386  H1407   1.111   .     S
C1386  H1406   1.111   .     S
C1387  H1408   1.114   .     S
C1387  O1428   1.412   .     S
C1387  C1388   1.521   .     S
C1387  H1409   1.115   .     S
C1388  H1411   1.111   .     S
C1388  H1410   1.111   .     S
C1388  H1412   1.111   .     S
C1389  C1390   1.420   .     A
C1389  C1391   1.423   .     A
C1390  C674    1.402   1_556 S
C1391  C672    1.419   1_556 S
C1392  C1393   1.415   .     A
C1393  C1394   1.390   .     A
C1393  F1401   1.357   .     S
C1394  F1395   1.359   .     S
H1414  C1211   1.086   1_655 S
O1421  Zn1440  1.927   .     S
O1421  Zn1437  1.962   .     S
O1421  Zn1438  1.944   .     S
O1421  Zn1439  1.939   .     S
O1422  Zn1438  1.930   .     S
O1423  Zn1440  1.940   .     S
O1424  Zn1439  1.932   .     S
O1425  Zn1437  1.923   .     S
O1426  C894    1.398   1_565 S
O1426  C902    1.413   1_565 S
O1429  Zn1437  1.935   .     S
O1430  Zn1440  1.941   .     S
O1431  Zn1438  1.922   .     S
O1432  Zn1439  1.933   .     S
O1433  Zn1440  1.930   .     S
O1434  Zn1437  1.922   .     S
O1435  Zn1438  1.944   .     S
O1436  Zn1439  1.935   .     S
