data_str_m1_o5_o17_pcu_sym.43
_audit_creation_date              2020-01-03
_audit_creation_method            'Materials Studio'
_symmetry_space_group_name_H-M    'P1'
_symmetry_Int_Tables_number       1
_symmetry_cell_setting            triclinic
loop_
_symmetry_equiv_pos_as_xyz
  x,y,z
_cell_length_a                    31.7649
_cell_length_b                    31.7589
_cell_length_c                    34.5734
_cell_angle_alpha                 89.9806
_cell_angle_beta                  89.9990
_cell_angle_gamma                 90.0201
loop_
_atom_site_label
_atom_site_type_symbol
_atom_site_fract_x
_atom_site_fract_y
_atom_site_fract_z
_atom_site_U_iso_or_equiv
_atom_site_adp_type
_atom_site_occupancy
Zn1    Zn    0.20053  -0.00000   0.21730   0.00000  Uiso   1.00
Zn2    Zn    0.29948  -0.00000   0.78270   0.00000  Uiso   1.00
Zn3    Zn    0.00000   0.20052   0.21730   0.00000  Uiso   1.00
Zn4    Zn    0.00000   0.29947   0.78270   0.00000  Uiso   1.00
Zn5    Zn    0.29948  -0.00000   0.21730   0.00000  Uiso   1.00
Zn6    Zn    0.20053  -0.00000   0.78270   0.00000  Uiso   1.00
Zn7    Zn    0.00000   0.29947   0.21730   0.00000  Uiso   1.00
Zn8    Zn    0.00000   0.20052   0.78270   0.00000  Uiso   1.00
Zn9    Zn    0.45053   0.25000   0.71730   0.00000  Uiso   1.00
Zn10   Zn    0.04948   0.25000   0.28270   0.00000  Uiso   1.00
Zn11   Zn    0.25000   0.45052   0.71730   0.00000  Uiso   1.00
Zn12   Zn    0.25000   0.04947   0.28270   0.00000  Uiso   1.00
Zn13   Zn    0.04948   0.25000   0.71730   0.00000  Uiso   1.00
Zn14   Zn    0.45053   0.25000   0.28270   0.00000  Uiso   1.00
Zn15   Zn    0.25000   0.04947   0.71730   0.00000  Uiso   1.00
Zn16   Zn    0.25000   0.45052   0.28270   0.00000  Uiso   1.00
O17    O     0.25000  -0.00000   0.25000   0.00000  Uiso   1.00
O18    O     0.25000  -0.00000   0.75000   0.00000  Uiso   1.00
O19    O     0.00000   0.25000   0.25000   0.00000  Uiso   1.00
O20    O     0.00000   0.25000   0.75000   0.00000  Uiso   1.00
O21    O     0.25000   0.46538   0.33749   0.00000  Uiso   1.00
O22    O     0.25000   0.03461   0.66251   0.00000  Uiso   1.00
O23    O     0.03462   0.25000   0.33749   0.00000  Uiso   1.00
O24    O     0.46539   0.25000   0.66251   0.00000  Uiso   1.00
O25    O     0.25000   0.03461   0.33749   0.00000  Uiso   1.00
O26    O     0.25000   0.46538   0.66251   0.00000  Uiso   1.00
O27    O     0.46539   0.25000   0.33749   0.00000  Uiso   1.00
O28    O     0.03462   0.25000   0.66251   0.00000  Uiso   1.00
O29    O     0.00000   0.21538   0.83749   0.00000  Uiso   1.00
O30    O     0.00000   0.28461   0.16251   0.00000  Uiso   1.00
O31    O     0.28462  -0.00000   0.83749   0.00000  Uiso   1.00
O32    O     0.21539  -0.00000   0.16251   0.00000  Uiso   1.00
O33    O     0.00000   0.28461   0.83749   0.00000  Uiso   1.00
O34    O     0.00000   0.21538   0.16251   0.00000  Uiso   1.00
O35    O     0.21539  -0.00000   0.83749   0.00000  Uiso   1.00
O36    O     0.28462  -0.00000   0.16251   0.00000  Uiso   1.00
O37    O     0.20127   0.08332   0.27298   0.00000  Uiso   1.00
O38    O     0.29874   0.41668   0.72702   0.00000  Uiso   1.00
O39    O     0.41668   0.20126   0.27298   0.00000  Uiso   1.00
O40    O     0.08332   0.29873   0.72702   0.00000  Uiso   1.00
O41    O     0.29874   0.41668   0.27298   0.00000  Uiso   1.00
O42    O     0.20127   0.08332   0.72702   0.00000  Uiso   1.00
O43    O     0.08332   0.29873   0.27298   0.00000  Uiso   1.00
O44    O     0.41668   0.20126   0.72702   0.00000  Uiso   1.00
O45    O     0.20127   0.41668   0.72702   0.00000  Uiso   1.00
O46    O     0.29874   0.08332   0.27298   0.00000  Uiso   1.00
O47    O     0.41668   0.29873   0.72702   0.00000  Uiso   1.00
O48    O     0.08332   0.20126   0.27298   0.00000  Uiso   1.00
O49    O     0.29874   0.08332   0.72702   0.00000  Uiso   1.00
O50    O     0.20127   0.41668   0.27298   0.00000  Uiso   1.00
O51    O     0.08332   0.20126   0.72702   0.00000  Uiso   1.00
O52    O     0.41668   0.29873   0.27298   0.00000  Uiso   1.00
O53    O     0.45127   0.33332   0.77298   0.00000  Uiso   1.00
O54    O     0.04874   0.16668   0.22702   0.00000  Uiso   1.00
O55    O     0.16668   0.45126   0.77298   0.00000  Uiso   1.00
O56    O     0.33332   0.04873   0.22702   0.00000  Uiso   1.00
O57    O     0.04874   0.16668   0.77298   0.00000  Uiso   1.00
O58    O     0.45127   0.33332   0.22702   0.00000  Uiso   1.00
O59    O     0.33332   0.04873   0.77298   0.00000  Uiso   1.00
O60    O     0.16668   0.45126   0.22702   0.00000  Uiso   1.00
O61    O     0.45127   0.16668   0.22702   0.00000  Uiso   1.00
O62    O     0.04874   0.33332   0.77298   0.00000  Uiso   1.00
O63    O     0.16668   0.04873   0.22702   0.00000  Uiso   1.00
O64    O     0.33332   0.45126   0.77298   0.00000  Uiso   1.00
O65    O     0.04874   0.33332   0.22702   0.00000  Uiso   1.00
O66    O     0.45127   0.16668   0.77298   0.00000  Uiso   1.00
O67    O     0.33332   0.45126   0.22702   0.00000  Uiso   1.00
O68    O     0.16668   0.04873   0.77298   0.00000  Uiso   1.00
C69    C     0.25000   0.49999   0.35601   0.00000  Uiso   1.00
C70    C     0.25000   0.00001   0.64404   0.00000  Uiso   1.00
C71    C    -0.00000   0.25000   0.35596   0.00000  Uiso   1.00
C72    C     0.00000   0.25000   0.64399   0.00000  Uiso   1.00
C73    C     0.00003   0.24999   0.85601   0.00000  Uiso   1.00
C74    C     0.00009   0.25003   0.14400   0.00000  Uiso   1.00
C75    C     0.24997   0.00007   0.85600   0.00000  Uiso   1.00
C76    C     0.24999   0.00003   0.14403   0.00000  Uiso   1.00
C77    C     0.16999   0.08001   0.25000   0.00000  Uiso   1.00
C78    C     0.33001   0.41999   0.75000   0.00000  Uiso   1.00
C79    C     0.41999   0.16999   0.25000   0.00000  Uiso   1.00
C80    C     0.08001   0.33001   0.75000   0.00000  Uiso   1.00
C81    C     0.33001   0.41998   0.25000   0.00000  Uiso   1.00
C82    C     0.16999   0.08002   0.75000   0.00000  Uiso   1.00
C83    C     0.08001   0.33002   0.25000   0.00000  Uiso   1.00
C84    C     0.41999   0.16998   0.75000   0.00000  Uiso   1.00
C85    C     0.16999   0.41999   0.75000   0.00000  Uiso   1.00
C86    C     0.33001   0.08001   0.25000   0.00000  Uiso   1.00
C87    C     0.41999   0.33001   0.75000   0.00000  Uiso   1.00
C88    C     0.08002   0.16999   0.25000   0.00000  Uiso   1.00
C89    C     0.33001   0.08001   0.74999   0.00000  Uiso   1.00
C90    C     0.16999   0.41999   0.25001   0.00000  Uiso   1.00
C91    C     0.08001   0.16999   0.75001   0.00000  Uiso   1.00
C92    C     0.41999   0.33001   0.24999   0.00000  Uiso   1.00
C93    C     0.13833   0.38834   0.25001   0.00000  Uiso   1.00
C94    C     0.36167   0.11166   0.74999   0.00000  Uiso   1.00
C95    C     0.11167   0.13834   0.24999   0.00000  Uiso   1.00
C96    C     0.38833   0.36166   0.75001   0.00000  Uiso   1.00
C97    C     0.36167   0.11166   0.25001   0.00000  Uiso   1.00
C98    C     0.13833   0.38834   0.74999   0.00000  Uiso   1.00
C99    C     0.38833   0.36166   0.24999   0.00000  Uiso   1.00
C100   C     0.11167   0.13833   0.75001   0.00000  Uiso   1.00
C101   C     0.13834   0.11167   0.75000   0.00000  Uiso   1.00
C102   C     0.36166   0.38833   0.25000   0.00000  Uiso   1.00
C103   C     0.11166   0.36167   0.74999   0.00000  Uiso   1.00
C104   C     0.38834   0.13833   0.25001   0.00000  Uiso   1.00
C105   C     0.36166   0.38833   0.75001   0.00000  Uiso   1.00
C106   C     0.13834   0.11167   0.24999   0.00000  Uiso   1.00
C107   C     0.38834   0.13833   0.74999   0.00000  Uiso   1.00
C108   C     0.11166   0.36167   0.25000   0.00000  Uiso   1.00
C109   C     0.03049   0.27288   0.41825   0.00000  Uiso   1.00
C110   C     0.46878   0.22812   0.58153   0.00000  Uiso   1.00
C111   C     0.22833   0.46863   0.41849   0.00000  Uiso   1.00
C112   C     0.27274   0.03061   0.58173   0.00000  Uiso   1.00
C113   C     0.46951   0.22711   0.41826   0.00000  Uiso   1.00
C114   C     0.03123   0.27187   0.58151   0.00000  Uiso   1.00
C115   C     0.27171   0.03134   0.41847   0.00000  Uiso   1.00
C116   C     0.22725   0.46942   0.58175   0.00000  Uiso   1.00
C117   C     0.21899   0.02252   0.91841   0.00000  Uiso   1.00
C118   C     0.27955   0.47595   0.08173   0.00000  Uiso   1.00
C119   C     0.47937   0.28196   0.91848   0.00000  Uiso   1.00
C120   C     0.02277   0.21886   0.08165   0.00000  Uiso   1.00
C121   C     0.28000   0.47686   0.91851   0.00000  Uiso   1.00
C122   C     0.21974   0.02322   0.08176   0.00000  Uiso   1.00
C123   C     0.02086   0.21796   0.91837   0.00000  Uiso   1.00
C124   C     0.48176   0.28312   0.08160   0.00000  Uiso   1.00
C125   C    -0.00000   0.25000   0.39830   0.00000  Uiso   1.00
C126   C     0.00000   0.25000   0.60157   0.00000  Uiso   1.00
C127   C     0.25002   0.49998   0.39844   0.00000  Uiso   1.00
C128   C     0.24999   0.00001   0.60169   0.00000  Uiso   1.00
C129   C     0.24977   0.49995   0.89841   0.00000  Uiso   1.00
C130   C     0.24986   0.49984   0.10168   0.00000  Uiso   1.00
C131   C     0.49991   0.24988   0.89844   0.00000  Uiso   1.00
C132   C     0.00141   0.25048   0.10163   0.00000  Uiso   1.00
C133   C     0.46801   0.22781   0.45903   0.00000  Uiso   1.00
C134   C     0.03055   0.27406   0.54077   0.00000  Uiso   1.00
C135   C     0.27391   0.03067   0.45921   0.00000  Uiso   1.00
C136   C     0.22797   0.46790   0.54099   0.00000  Uiso   1.00
C137   C     0.03199   0.27219   0.45901   0.00000  Uiso   1.00
C138   C     0.46946   0.22593   0.54079   0.00000  Uiso   1.00
C139   C     0.22613   0.46931   0.45923   0.00000  Uiso   1.00
C140   C     0.27203   0.03211   0.54097   0.00000  Uiso   1.00
C141   C     0.27861   0.47408   0.95917   0.00000  Uiso   1.00
C142   C     0.21792   0.02226   0.04101   0.00000  Uiso   1.00
C143   C     0.02138   0.21722   0.95917   0.00000  Uiso   1.00
C144   C     0.48319   0.28487   0.04092   0.00000  Uiso   1.00
C145   C     0.21932   0.02425   0.95921   0.00000  Uiso   1.00
C146   C     0.28047   0.47589   0.04091   0.00000  Uiso   1.00
C147   C     0.47932   0.28278   0.95928   0.00000  Uiso   1.00
C148   C     0.02485   0.21938   0.04088   0.00000  Uiso   1.00
C149   C     0.00000   0.25000   0.47948   0.00000  Uiso   1.00
C150   C     0.00000   0.25000   0.52031   0.00000  Uiso   1.00
C151   C     0.25001   0.49999   0.47969   0.00000  Uiso   1.00
C152   C     0.25000   0.00000   0.52052   0.00000  Uiso   1.00
C153   C     0.24900   0.49913   0.97967   0.00000  Uiso   1.00
C154   C     0.24912   0.49908   0.02051   0.00000  Uiso   1.00
C155   C     0.00163   0.25076   0.97963   0.00000  Uiso   1.00
C156   C     0.00289   0.25145   0.02044   0.00000  Uiso   1.00
C157   C     0.43606   0.20607   0.47975   0.00000  Uiso   1.00
C158   C     0.06008   0.29897   0.52010   0.00000  Uiso   1.00
C159   C     0.29866   0.06034   0.47987   0.00000  Uiso   1.00
C160   C     0.20641   0.43582   0.52029   0.00000  Uiso   1.00
C161   C     0.06394   0.29393   0.47972   0.00000  Uiso   1.00
C162   C     0.43993   0.20102   0.52013   0.00000  Uiso   1.00
C163   C     0.20137   0.43964   0.47991   0.00000  Uiso   1.00
C164   C     0.29360   0.06417   0.52024   0.00000  Uiso   1.00
C165   C     0.30656   0.44747   0.97973   0.00000  Uiso   1.00
C166   C     0.18638   0.04461   0.02034   0.00000  Uiso   1.00
C167   C     0.04189   0.18443   0.97989   0.00000  Uiso   1.00
C168   C     0.46464   0.31874   0.02037   0.00000  Uiso   1.00
C169   C     0.19029   0.04968   0.97995   0.00000  Uiso   1.00
C170   C     0.31102   0.45234   0.02006   0.00000  Uiso   1.00
C171   C     0.45827   0.31512   0.98015   0.00000  Uiso   1.00
C172   C     0.04776   0.18838   0.02017   0.00000  Uiso   1.00
F173   F     0.05658   0.29793   0.39724   0.00000  Uiso   1.00
F174   F     0.43747   0.20977   0.60236   0.00000  Uiso   1.00
F175   F     0.21017   0.43720   0.39769   0.00000  Uiso   1.00
F176   F     0.29767   0.05682   0.60272   0.00000  Uiso   1.00
F177   F     0.44342   0.20207   0.39726   0.00000  Uiso   1.00
F178   F     0.06253   0.29022   0.60233   0.00000  Uiso   1.00
F179   F     0.28987   0.06276   0.39765   0.00000  Uiso   1.00
F180   F     0.20230   0.44322   0.60276   0.00000  Uiso   1.00
F181   F     0.18855   0.04206   0.89743   0.00000  Uiso   1.00
F182   F     0.30543   0.45085   0.10288   0.00000  Uiso   1.00
F183   F     0.46088   0.31294   0.89740   0.00000  Uiso   1.00
F184   F     0.03961   0.18672   0.10246   0.00000  Uiso   1.00
F185   F     0.31118   0.45798   0.89792   0.00000  Uiso   1.00
F186   F     0.19442   0.04906   0.10273   0.00000  Uiso   1.00
F187   F     0.04367   0.19001   0.89727   0.00000  Uiso   1.00
F188   F     0.45782   0.31063   0.10217   0.00000  Uiso   1.00
C189   C     0.39629   0.19077   0.45972   0.00000  Uiso   1.00
H190   H     0.38474   0.21493   0.43908   0.00000  Uiso   1.00
H191   H     0.40238   0.16057   0.44456   0.00000  Uiso   1.00
H192   H     0.36976   0.18621   0.48016   0.00000  Uiso   1.00
C193   C     0.08500   0.33353   0.54009   0.00000  Uiso   1.00
H194   H     0.06489   0.35044   0.56126   0.00000  Uiso   1.00
H195   H     0.11316   0.32012   0.55459   0.00000  Uiso   1.00
H196   H     0.09524   0.35843   0.51966   0.00000  Uiso   1.00
C197   C     0.33309   0.08545   0.45985   0.00000  Uiso   1.00
H198   H     0.35792   0.09580   0.48027   0.00000  Uiso   1.00
H199   H     0.35008   0.06542   0.43867   0.00000  Uiso   1.00
H200   H     0.31953   0.11354   0.44536   0.00000  Uiso   1.00
C201   C     0.19132   0.39598   0.54035   0.00000  Uiso   1.00
H202   H     0.21552   0.38456   0.56101   0.00000  Uiso   1.00
H203   H     0.16108   0.40190   0.55549   0.00000  Uiso   1.00
H204   H     0.18694   0.36939   0.51992   0.00000  Uiso   1.00
C205   C     0.10371   0.30922   0.45968   0.00000  Uiso   1.00
H206   H     0.11526   0.28506   0.43905   0.00000  Uiso   1.00
H207   H     0.09763   0.33942   0.44450   0.00000  Uiso   1.00
H208   H     0.13025   0.31376   0.48012   0.00000  Uiso   1.00
C209   C     0.41501   0.16645   0.54015   0.00000  Uiso   1.00
H210   H     0.43512   0.14955   0.56133   0.00000  Uiso   1.00
H211   H     0.38685   0.17986   0.55463   0.00000  Uiso   1.00
H212   H     0.40477   0.14156   0.51973   0.00000  Uiso   1.00
C213   C     0.16696   0.41452   0.45990   0.00000  Uiso   1.00
H214   H     0.14996   0.43454   0.43871   0.00000  Uiso   1.00
H215   H     0.18053   0.38643   0.44544   0.00000  Uiso   1.00
H216   H     0.14212   0.40416   0.48033   0.00000  Uiso   1.00
C217   C     0.30869   0.10403   0.54027   0.00000  Uiso   1.00
H218   H     0.28448   0.11546   0.56091   0.00000  Uiso   1.00
H219   H     0.33892   0.09809   0.55543   0.00000  Uiso   1.00
H220   H     0.31310   0.13060   0.51982   0.00000  Uiso   1.00
C221   C     0.32835   0.41088   0.95980   0.00000  Uiso   1.00
H222   H     0.30763   0.39674   0.93744   0.00000  Uiso   1.00
H223   H     0.35851   0.42140   0.94673   0.00000  Uiso   1.00
H224   H     0.33445   0.38466   0.98024   0.00000  Uiso   1.00
C225   C     0.14688   0.06042   0.04044   0.00000  Uiso   1.00
H226   H     0.13524   0.03659   0.06137   0.00000  Uiso   1.00
H227   H     0.15332   0.09073   0.05531   0.00000  Uiso   1.00
H228   H     0.12028   0.06490   0.02006   0.00000  Uiso   1.00
C229   C     0.05487   0.14373   0.96005   0.00000  Uiso   1.00
H230   H     0.05900   0.11730   0.98069   0.00000  Uiso   1.00
H231   H     0.02957   0.13285   0.94027   0.00000  Uiso   1.00
H232   H     0.08479   0.14831   0.94399   0.00000  Uiso   1.00
C233   C     0.45509   0.36032   0.04031   0.00000  Uiso   1.00
H234   H     0.45612   0.38723   0.01984   0.00000  Uiso   1.00
H235   H     0.42358   0.35915   0.05418   0.00000  Uiso   1.00
H236   H     0.47970   0.36782   0.06204   0.00000  Uiso   1.00
C237   C     0.16587   0.08461   0.95999   0.00000  Uiso   1.00
H238   H     0.18641   0.10161   0.93922   0.00000  Uiso   1.00
H239   H     0.13783   0.07153   0.94504   0.00000  Uiso   1.00
H240   H     0.15547   0.10936   0.98047   0.00000  Uiso   1.00
C241   C     0.34974   0.43427   0.03985   0.00000  Uiso   1.00
H242   H     0.36379   0.45804   0.05955   0.00000  Uiso   1.00
H243   H     0.34139   0.40522   0.05599   0.00000  Uiso   1.00
H244   H     0.37530   0.42663   0.01917   0.00000  Uiso   1.00
C245   C     0.42680   0.34416   0.96059   0.00000  Uiso   1.00
H246   H     0.40521   0.32570   0.94186   0.00000  Uiso   1.00
H247   H     0.40569   0.35996   0.98150   0.00000  Uiso   1.00
H248   H     0.44345   0.36869   0.94357   0.00000  Uiso   1.00
C249   C     0.08131   0.16196   0.03998   0.00000  Uiso   1.00
H250   H     0.09924   0.18126   0.06108   0.00000  Uiso   1.00
H251   H     0.06678   0.13437   0.05451   0.00000  Uiso   1.00
H252   H     0.10557   0.15078   0.01936   0.00000  Uiso   1.00
Zn253  Zn    0.70053  -0.00000   0.21730   0.00000  Uiso   1.00
Zn254  Zn    0.79948  -0.00000   0.78270   0.00000  Uiso   1.00
Zn255  Zn    0.50000   0.20052   0.21730   0.00000  Uiso   1.00
Zn256  Zn    0.50000   0.29947   0.78270   0.00000  Uiso   1.00
Zn257  Zn    0.79948  -0.00000   0.21730   0.00000  Uiso   1.00
Zn258  Zn    0.70053  -0.00000   0.78270   0.00000  Uiso   1.00
Zn259  Zn    0.50000   0.29947   0.21730   0.00000  Uiso   1.00
Zn260  Zn    0.50000   0.20052   0.78270   0.00000  Uiso   1.00
Zn261  Zn    0.95053   0.25000   0.71730   0.00000  Uiso   1.00
Zn262  Zn    0.54948   0.25000   0.28270   0.00000  Uiso   1.00
Zn263  Zn    0.75000   0.45052   0.71730   0.00000  Uiso   1.00
Zn264  Zn    0.75000   0.04947   0.28270   0.00000  Uiso   1.00
Zn265  Zn    0.54948   0.25000   0.71730   0.00000  Uiso   1.00
Zn266  Zn    0.95053   0.25000   0.28270   0.00000  Uiso   1.00
Zn267  Zn    0.75000   0.04947   0.71730   0.00000  Uiso   1.00
Zn268  Zn    0.75000   0.45052   0.28270   0.00000  Uiso   1.00
O269   O     0.75000  -0.00000   0.25000   0.00000  Uiso   1.00
O270   O     0.75000  -0.00000   0.75000   0.00000  Uiso   1.00
O271   O     0.50000   0.25000   0.25000   0.00000  Uiso   1.00
O272   O     0.50000   0.25000   0.75000   0.00000  Uiso   1.00
O273   O     0.75000   0.46538   0.33749   0.00000  Uiso   1.00
O274   O     0.75000   0.03461   0.66251   0.00000  Uiso   1.00
O275   O     0.53462   0.25000   0.33749   0.00000  Uiso   1.00
O276   O     0.96539   0.25000   0.66251   0.00000  Uiso   1.00
O277   O     0.75000   0.03461   0.33749   0.00000  Uiso   1.00
O278   O     0.75000   0.46538   0.66251   0.00000  Uiso   1.00
O279   O     0.96539   0.25000   0.33749   0.00000  Uiso   1.00
O280   O     0.53462   0.25000   0.66251   0.00000  Uiso   1.00
O281   O     0.50000   0.21538   0.83749   0.00000  Uiso   1.00
O282   O     0.50000   0.28461   0.16251   0.00000  Uiso   1.00
O283   O     0.78462  -0.00000   0.83749   0.00000  Uiso   1.00
O284   O     0.71539  -0.00000   0.16251   0.00000  Uiso   1.00
O285   O     0.50000   0.28461   0.83749   0.00000  Uiso   1.00
O286   O     0.50000   0.21538   0.16251   0.00000  Uiso   1.00
O287   O     0.71539  -0.00000   0.83749   0.00000  Uiso   1.00
O288   O     0.78462  -0.00000   0.16251   0.00000  Uiso   1.00
O289   O     0.70127   0.08332   0.27298   0.00000  Uiso   1.00
O290   O     0.79874   0.41668   0.72702   0.00000  Uiso   1.00
O291   O     0.91668   0.20126   0.27298   0.00000  Uiso   1.00
O292   O     0.58332   0.29873   0.72702   0.00000  Uiso   1.00
O293   O     0.79874   0.41668   0.27298   0.00000  Uiso   1.00
O294   O     0.70127   0.08332   0.72702   0.00000  Uiso   1.00
O295   O     0.58332   0.29873   0.27298   0.00000  Uiso   1.00
O296   O     0.91668   0.20126   0.72702   0.00000  Uiso   1.00
O297   O     0.70127   0.41668   0.72702   0.00000  Uiso   1.00
O298   O     0.79874   0.08332   0.27298   0.00000  Uiso   1.00
O299   O     0.91668   0.29873   0.72702   0.00000  Uiso   1.00
O300   O     0.58332   0.20126   0.27298   0.00000  Uiso   1.00
O301   O     0.79874   0.08332   0.72702   0.00000  Uiso   1.00
O302   O     0.70127   0.41668   0.27298   0.00000  Uiso   1.00
O303   O     0.58332   0.20126   0.72702   0.00000  Uiso   1.00
O304   O     0.91668   0.29873   0.27298   0.00000  Uiso   1.00
O305   O     0.95127   0.33332   0.77298   0.00000  Uiso   1.00
O306   O     0.54874   0.16668   0.22702   0.00000  Uiso   1.00
O307   O     0.66668   0.45126   0.77298   0.00000  Uiso   1.00
O308   O     0.83332   0.04873   0.22702   0.00000  Uiso   1.00
O309   O     0.54874   0.16668   0.77298   0.00000  Uiso   1.00
O310   O     0.95127   0.33332   0.22702   0.00000  Uiso   1.00
O311   O     0.83332   0.04873   0.77298   0.00000  Uiso   1.00
O312   O     0.66668   0.45126   0.22702   0.00000  Uiso   1.00
O313   O     0.95127   0.16668   0.22702   0.00000  Uiso   1.00
O314   O     0.54874   0.33332   0.77298   0.00000  Uiso   1.00
O315   O     0.66668   0.04873   0.22702   0.00000  Uiso   1.00
O316   O     0.83332   0.45126   0.77298   0.00000  Uiso   1.00
O317   O     0.54874   0.33332   0.22702   0.00000  Uiso   1.00
O318   O     0.95127   0.16668   0.77298   0.00000  Uiso   1.00
O319   O     0.83332   0.45126   0.22702   0.00000  Uiso   1.00
O320   O     0.66668   0.04873   0.77298   0.00000  Uiso   1.00
C321   C     0.75000   0.49999   0.35601   0.00000  Uiso   1.00
C322   C     0.75000   0.00001   0.64404   0.00000  Uiso   1.00
C323   C     0.50000   0.25000   0.35596   0.00000  Uiso   1.00
C324   C     0.50000   0.25000   0.64399   0.00000  Uiso   1.00
C325   C     0.50003   0.24999   0.85601   0.00000  Uiso   1.00
C326   C     0.50009   0.25003   0.14400   0.00000  Uiso   1.00
C327   C     0.74997   0.00007   0.85600   0.00000  Uiso   1.00
C328   C     0.74999   0.00003   0.14403   0.00000  Uiso   1.00
C329   C     0.66999   0.08001   0.25000   0.00000  Uiso   1.00
C330   C     0.83001   0.41999   0.75000   0.00000  Uiso   1.00
C331   C     0.91999   0.16999   0.25000   0.00000  Uiso   1.00
C332   C     0.58001   0.33001   0.75000   0.00000  Uiso   1.00
C333   C     0.83001   0.41998   0.25000   0.00000  Uiso   1.00
C334   C     0.66999   0.08002   0.75000   0.00000  Uiso   1.00
C335   C     0.58001   0.33002   0.25000   0.00000  Uiso   1.00
C336   C     0.91999   0.16998   0.75000   0.00000  Uiso   1.00
C337   C     0.66999   0.41999   0.75000   0.00000  Uiso   1.00
C338   C     0.83001   0.08001   0.25000   0.00000  Uiso   1.00
C339   C     0.91999   0.33001   0.75000   0.00000  Uiso   1.00
C340   C     0.58002   0.16999   0.25000   0.00000  Uiso   1.00
C341   C     0.83001   0.08001   0.74999   0.00000  Uiso   1.00
C342   C     0.66999   0.41999   0.25001   0.00000  Uiso   1.00
C343   C     0.58001   0.16999   0.75001   0.00000  Uiso   1.00
C344   C     0.91999   0.33001   0.24999   0.00000  Uiso   1.00
C345   C     0.63833   0.38834   0.25001   0.00000  Uiso   1.00
C346   C     0.86167   0.11166   0.74999   0.00000  Uiso   1.00
C347   C     0.61167   0.13834   0.24999   0.00000  Uiso   1.00
C348   C     0.88833   0.36166   0.75001   0.00000  Uiso   1.00
C349   C     0.86167   0.11166   0.25001   0.00000  Uiso   1.00
C350   C     0.63833   0.38834   0.74999   0.00000  Uiso   1.00
C351   C     0.88833   0.36166   0.24999   0.00000  Uiso   1.00
C352   C     0.61167   0.13833   0.75001   0.00000  Uiso   1.00
C353   C     0.63834   0.11167   0.75000   0.00000  Uiso   1.00
C354   C     0.86166   0.38833   0.25000   0.00000  Uiso   1.00
C355   C     0.61166   0.36167   0.74999   0.00000  Uiso   1.00
C356   C     0.88834   0.13833   0.25001   0.00000  Uiso   1.00
C357   C     0.86166   0.38833   0.75001   0.00000  Uiso   1.00
C358   C     0.63834   0.11167   0.24999   0.00000  Uiso   1.00
C359   C     0.88834   0.13833   0.74999   0.00000  Uiso   1.00
C360   C     0.61166   0.36167   0.25000   0.00000  Uiso   1.00
C361   C     0.53049   0.27288   0.41825   0.00000  Uiso   1.00
C362   C     0.96878   0.22812   0.58153   0.00000  Uiso   1.00
C363   C     0.72833   0.46863   0.41849   0.00000  Uiso   1.00
C364   C     0.77274   0.03061   0.58173   0.00000  Uiso   1.00
C365   C     0.96951   0.22711   0.41826   0.00000  Uiso   1.00
C366   C     0.53123   0.27187   0.58151   0.00000  Uiso   1.00
C367   C     0.77171   0.03134   0.41847   0.00000  Uiso   1.00
C368   C     0.72725   0.46942   0.58175   0.00000  Uiso   1.00
C369   C     0.71899   0.02252   0.91841   0.00000  Uiso   1.00
C370   C     0.77955   0.47595   0.08173   0.00000  Uiso   1.00
C371   C     0.97937   0.28196   0.91848   0.00000  Uiso   1.00
C372   C     0.52277   0.21886   0.08165   0.00000  Uiso   1.00
C373   C     0.78000   0.47686   0.91851   0.00000  Uiso   1.00
C374   C     0.71974   0.02322   0.08176   0.00000  Uiso   1.00
C375   C     0.52086   0.21796   0.91837   0.00000  Uiso   1.00
C376   C     0.98176   0.28312   0.08160   0.00000  Uiso   1.00
C377   C     0.50000   0.25000   0.39830   0.00000  Uiso   1.00
C378   C     0.50000   0.25000   0.60157   0.00000  Uiso   1.00
C379   C     0.75002   0.49998   0.39844   0.00000  Uiso   1.00
C380   C     0.74999   0.00001   0.60169   0.00000  Uiso   1.00
C381   C     0.74977   0.49995   0.89841   0.00000  Uiso   1.00
C382   C     0.74986   0.49984   0.10168   0.00000  Uiso   1.00
C383   C     0.99991   0.24988   0.89844   0.00000  Uiso   1.00
C384   C     0.50141   0.25048   0.10163   0.00000  Uiso   1.00
C385   C     0.96801   0.22781   0.45903   0.00000  Uiso   1.00
C386   C     0.53055   0.27406   0.54077   0.00000  Uiso   1.00
C387   C     0.77391   0.03067   0.45921   0.00000  Uiso   1.00
C388   C     0.72797   0.46790   0.54099   0.00000  Uiso   1.00
C389   C     0.53199   0.27219   0.45901   0.00000  Uiso   1.00
C390   C     0.96946   0.22593   0.54079   0.00000  Uiso   1.00
C391   C     0.72613   0.46931   0.45923   0.00000  Uiso   1.00
C392   C     0.77203   0.03211   0.54097   0.00000  Uiso   1.00
C393   C     0.77861   0.47408   0.95917   0.00000  Uiso   1.00
C394   C     0.71792   0.02226   0.04101   0.00000  Uiso   1.00
C395   C     0.52138   0.21722   0.95917   0.00000  Uiso   1.00
C396   C     0.98319   0.28487   0.04092   0.00000  Uiso   1.00
C397   C     0.71932   0.02425   0.95921   0.00000  Uiso   1.00
C398   C     0.78047   0.47589   0.04091   0.00000  Uiso   1.00
C399   C     0.97932   0.28278   0.95928   0.00000  Uiso   1.00
C400   C     0.52485   0.21938   0.04088   0.00000  Uiso   1.00
C401   C     0.50000   0.25000   0.47948   0.00000  Uiso   1.00
C402   C     0.50000   0.25000   0.52031   0.00000  Uiso   1.00
C403   C     0.75001   0.49999   0.47969   0.00000  Uiso   1.00
C404   C     0.75000   0.00000   0.52052   0.00000  Uiso   1.00
C405   C     0.74900   0.49913   0.97967   0.00000  Uiso   1.00
C406   C     0.74912   0.49908   0.02051   0.00000  Uiso   1.00
C407   C     0.50163   0.25076   0.97963   0.00000  Uiso   1.00
C408   C     0.50289   0.25145   0.02044   0.00000  Uiso   1.00
C409   C     0.93606   0.20607   0.47975   0.00000  Uiso   1.00
C410   C     0.56008   0.29897   0.52010   0.00000  Uiso   1.00
C411   C     0.79866   0.06034   0.47987   0.00000  Uiso   1.00
C412   C     0.70641   0.43582   0.52029   0.00000  Uiso   1.00
C413   C     0.56394   0.29393   0.47972   0.00000  Uiso   1.00
C414   C     0.93993   0.20102   0.52013   0.00000  Uiso   1.00
C415   C     0.70137   0.43964   0.47991   0.00000  Uiso   1.00
C416   C     0.79360   0.06417   0.52024   0.00000  Uiso   1.00
C417   C     0.80656   0.44747   0.97973   0.00000  Uiso   1.00
C418   C     0.68638   0.04461   0.02034   0.00000  Uiso   1.00
C419   C     0.54189   0.18443   0.97989   0.00000  Uiso   1.00
C420   C     0.96464   0.31874   0.02037   0.00000  Uiso   1.00
C421   C     0.69029   0.04968   0.97995   0.00000  Uiso   1.00
C422   C     0.81102   0.45234   0.02006   0.00000  Uiso   1.00
C423   C     0.95827   0.31512   0.98015   0.00000  Uiso   1.00
C424   C     0.54776   0.18838   0.02017   0.00000  Uiso   1.00
F425   F     0.55658   0.29793   0.39724   0.00000  Uiso   1.00
F426   F     0.93747   0.20977   0.60236   0.00000  Uiso   1.00
F427   F     0.71017   0.43720   0.39769   0.00000  Uiso   1.00
F428   F     0.79767   0.05682   0.60272   0.00000  Uiso   1.00
F429   F     0.94342   0.20207   0.39726   0.00000  Uiso   1.00
F430   F     0.56253   0.29022   0.60233   0.00000  Uiso   1.00
F431   F     0.78987   0.06276   0.39765   0.00000  Uiso   1.00
F432   F     0.70230   0.44322   0.60276   0.00000  Uiso   1.00
F433   F     0.68855   0.04206   0.89743   0.00000  Uiso   1.00
F434   F     0.80543   0.45085   0.10288   0.00000  Uiso   1.00
F435   F     0.96088   0.31294   0.89740   0.00000  Uiso   1.00
F436   F     0.53961   0.18672   0.10246   0.00000  Uiso   1.00
F437   F     0.81118   0.45798   0.89792   0.00000  Uiso   1.00
F438   F     0.69442   0.04906   0.10273   0.00000  Uiso   1.00
F439   F     0.54367   0.19001   0.89727   0.00000  Uiso   1.00
F440   F     0.95782   0.31063   0.10217   0.00000  Uiso   1.00
C441   C     0.89629   0.19077   0.45972   0.00000  Uiso   1.00
H442   H     0.88474   0.21493   0.43908   0.00000  Uiso   1.00
H443   H     0.90238   0.16057   0.44456   0.00000  Uiso   1.00
H444   H     0.86976   0.18621   0.48016   0.00000  Uiso   1.00
C445   C     0.58500   0.33353   0.54009   0.00000  Uiso   1.00
H446   H     0.56489   0.35044   0.56126   0.00000  Uiso   1.00
H447   H     0.61316   0.32012   0.55459   0.00000  Uiso   1.00
H448   H     0.59524   0.35843   0.51966   0.00000  Uiso   1.00
C449   C     0.83309   0.08545   0.45985   0.00000  Uiso   1.00
H450   H     0.85792   0.09580   0.48027   0.00000  Uiso   1.00
H451   H     0.85008   0.06542   0.43867   0.00000  Uiso   1.00
H452   H     0.81953   0.11354   0.44536   0.00000  Uiso   1.00
C453   C     0.69132   0.39598   0.54035   0.00000  Uiso   1.00
H454   H     0.71552   0.38456   0.56101   0.00000  Uiso   1.00
H455   H     0.66108   0.40190   0.55549   0.00000  Uiso   1.00
H456   H     0.68694   0.36939   0.51992   0.00000  Uiso   1.00
C457   C     0.60371   0.30922   0.45968   0.00000  Uiso   1.00
H458   H     0.61526   0.28506   0.43905   0.00000  Uiso   1.00
H459   H     0.59763   0.33942   0.44450   0.00000  Uiso   1.00
H460   H     0.63025   0.31376   0.48012   0.00000  Uiso   1.00
C461   C     0.91501   0.16645   0.54015   0.00000  Uiso   1.00
H462   H     0.93512   0.14955   0.56133   0.00000  Uiso   1.00
H463   H     0.88685   0.17986   0.55463   0.00000  Uiso   1.00
H464   H     0.90477   0.14156   0.51973   0.00000  Uiso   1.00
C465   C     0.66696   0.41452   0.45990   0.00000  Uiso   1.00
H466   H     0.64996   0.43454   0.43871   0.00000  Uiso   1.00
H467   H     0.68053   0.38643   0.44544   0.00000  Uiso   1.00
H468   H     0.64212   0.40416   0.48033   0.00000  Uiso   1.00
C469   C     0.80869   0.10403   0.54027   0.00000  Uiso   1.00
H470   H     0.78448   0.11546   0.56091   0.00000  Uiso   1.00
H471   H     0.83892   0.09809   0.55543   0.00000  Uiso   1.00
H472   H     0.81310   0.13060   0.51982   0.00000  Uiso   1.00
C473   C     0.82835   0.41088   0.95980   0.00000  Uiso   1.00
H474   H     0.80763   0.39674   0.93744   0.00000  Uiso   1.00
H475   H     0.85851   0.42140   0.94673   0.00000  Uiso   1.00
H476   H     0.83445   0.38466   0.98024   0.00000  Uiso   1.00
C477   C     0.64688   0.06042   0.04044   0.00000  Uiso   1.00
H478   H     0.63524   0.03659   0.06137   0.00000  Uiso   1.00
H479   H     0.65332   0.09073   0.05531   0.00000  Uiso   1.00
H480   H     0.62028   0.06490   0.02006   0.00000  Uiso   1.00
C481   C     0.55487   0.14373   0.96005   0.00000  Uiso   1.00
H482   H     0.55900   0.11730   0.98069   0.00000  Uiso   1.00
H483   H     0.52957   0.13285   0.94027   0.00000  Uiso   1.00
H484   H     0.58479   0.14831   0.94399   0.00000  Uiso   1.00
C485   C     0.95509   0.36032   0.04031   0.00000  Uiso   1.00
H486   H     0.95612   0.38723   0.01984   0.00000  Uiso   1.00
H487   H     0.92358   0.35915   0.05418   0.00000  Uiso   1.00
H488   H     0.97970   0.36782   0.06204   0.00000  Uiso   1.00
C489   C     0.66587   0.08461   0.95999   0.00000  Uiso   1.00
H490   H     0.68641   0.10161   0.93922   0.00000  Uiso   1.00
H491   H     0.63783   0.07153   0.94504   0.00000  Uiso   1.00
H492   H     0.65547   0.10936   0.98047   0.00000  Uiso   1.00
C493   C     0.84974   0.43427   0.03985   0.00000  Uiso   1.00
H494   H     0.86379   0.45804   0.05955   0.00000  Uiso   1.00
H495   H     0.84139   0.40522   0.05599   0.00000  Uiso   1.00
H496   H     0.87530   0.42663   0.01917   0.00000  Uiso   1.00
C497   C     0.92680   0.34416   0.96059   0.00000  Uiso   1.00
H498   H     0.90521   0.32570   0.94186   0.00000  Uiso   1.00
H499   H     0.90569   0.35996   0.98150   0.00000  Uiso   1.00
H500   H     0.94345   0.36869   0.94357   0.00000  Uiso   1.00
C501   C     0.58131   0.16196   0.03998   0.00000  Uiso   1.00
H502   H     0.59924   0.18126   0.06108   0.00000  Uiso   1.00
H503   H     0.56678   0.13437   0.05451   0.00000  Uiso   1.00
H504   H     0.60557   0.15078   0.01936   0.00000  Uiso   1.00
Zn505  Zn    0.20053   0.50000   0.21730   0.00000  Uiso   1.00
Zn506  Zn    0.29948   0.50000   0.78270   0.00000  Uiso   1.00
Zn507  Zn    0.00000   0.70052   0.21730   0.00000  Uiso   1.00
Zn508  Zn    0.00000   0.79947   0.78270   0.00000  Uiso   1.00
Zn509  Zn    0.29948   0.50000   0.21730   0.00000  Uiso   1.00
Zn510  Zn    0.20053   0.50000   0.78270   0.00000  Uiso   1.00
Zn511  Zn    0.00000   0.79947   0.21730   0.00000  Uiso   1.00
Zn512  Zn    0.00000   0.70052   0.78270   0.00000  Uiso   1.00
Zn513  Zn    0.45053   0.75000   0.71730   0.00000  Uiso   1.00
Zn514  Zn    0.04948   0.75000   0.28270   0.00000  Uiso   1.00
Zn515  Zn    0.25000   0.95052   0.71730   0.00000  Uiso   1.00
Zn516  Zn    0.25000   0.54947   0.28270   0.00000  Uiso   1.00
Zn517  Zn    0.04948   0.75000   0.71730   0.00000  Uiso   1.00
Zn518  Zn    0.45053   0.75000   0.28270   0.00000  Uiso   1.00
Zn519  Zn    0.25000   0.54947   0.71730   0.00000  Uiso   1.00
Zn520  Zn    0.25000   0.95052   0.28270   0.00000  Uiso   1.00
O521   O     0.25000   0.50000   0.25000   0.00000  Uiso   1.00
O522   O     0.25000   0.50000   0.75000   0.00000  Uiso   1.00
O523   O     0.00000   0.75000   0.25000   0.00000  Uiso   1.00
O524   O     0.00000   0.75000   0.75000   0.00000  Uiso   1.00
O525   O     0.25000   0.96538   0.33749   0.00000  Uiso   1.00
O526   O     0.25000   0.53461   0.66251   0.00000  Uiso   1.00
O527   O     0.03462   0.75000   0.33749   0.00000  Uiso   1.00
O528   O     0.46539   0.75000   0.66251   0.00000  Uiso   1.00
O529   O     0.25000   0.53461   0.33749   0.00000  Uiso   1.00
O530   O     0.25000   0.96538   0.66251   0.00000  Uiso   1.00
O531   O     0.46539   0.75000   0.33749   0.00000  Uiso   1.00
O532   O     0.03462   0.75000   0.66251   0.00000  Uiso   1.00
O533   O     0.00000   0.71538   0.83749   0.00000  Uiso   1.00
O534   O     0.00000   0.78461   0.16251   0.00000  Uiso   1.00
O535   O     0.28462   0.50000   0.83749   0.00000  Uiso   1.00
O536   O     0.21539   0.50000   0.16251   0.00000  Uiso   1.00
O537   O     0.00000   0.78461   0.83749   0.00000  Uiso   1.00
O538   O     0.00000   0.71538   0.16251   0.00000  Uiso   1.00
O539   O     0.21539   0.50000   0.83749   0.00000  Uiso   1.00
O540   O     0.28462   0.50000   0.16251   0.00000  Uiso   1.00
O541   O     0.20127   0.58332   0.27298   0.00000  Uiso   1.00
O542   O     0.29874   0.91668   0.72702   0.00000  Uiso   1.00
O543   O     0.41668   0.70126   0.27298   0.00000  Uiso   1.00
O544   O     0.08332   0.79873   0.72702   0.00000  Uiso   1.00
O545   O     0.29874   0.91668   0.27298   0.00000  Uiso   1.00
O546   O     0.20127   0.58332   0.72702   0.00000  Uiso   1.00
O547   O     0.08332   0.79873   0.27298   0.00000  Uiso   1.00
O548   O     0.41668   0.70126   0.72702   0.00000  Uiso   1.00
O549   O     0.20127   0.91668   0.72702   0.00000  Uiso   1.00
O550   O     0.29874   0.58332   0.27298   0.00000  Uiso   1.00
O551   O     0.41668   0.79873   0.72702   0.00000  Uiso   1.00
O552   O     0.08332   0.70126   0.27298   0.00000  Uiso   1.00
O553   O     0.29874   0.58332   0.72702   0.00000  Uiso   1.00
O554   O     0.20127   0.91668   0.27298   0.00000  Uiso   1.00
O555   O     0.08332   0.70126   0.72702   0.00000  Uiso   1.00
O556   O     0.41668   0.79873   0.27298   0.00000  Uiso   1.00
O557   O     0.45127   0.83332   0.77298   0.00000  Uiso   1.00
O558   O     0.04874   0.66668   0.22702   0.00000  Uiso   1.00
O559   O     0.16668   0.95126   0.77298   0.00000  Uiso   1.00
O560   O     0.33332   0.54873   0.22702   0.00000  Uiso   1.00
O561   O     0.04874   0.66668   0.77298   0.00000  Uiso   1.00
O562   O     0.45127   0.83332   0.22702   0.00000  Uiso   1.00
O563   O     0.33332   0.54873   0.77298   0.00000  Uiso   1.00
O564   O     0.16668   0.95126   0.22702   0.00000  Uiso   1.00
O565   O     0.45127   0.66668   0.22702   0.00000  Uiso   1.00
O566   O     0.04874   0.83332   0.77298   0.00000  Uiso   1.00
O567   O     0.16668   0.54873   0.22702   0.00000  Uiso   1.00
O568   O     0.33332   0.95126   0.77298   0.00000  Uiso   1.00
O569   O     0.04874   0.83332   0.22702   0.00000  Uiso   1.00
O570   O     0.45127   0.66668   0.77298   0.00000  Uiso   1.00
O571   O     0.33332   0.95126   0.22702   0.00000  Uiso   1.00
O572   O     0.16668   0.54873   0.77298   0.00000  Uiso   1.00
C573   C     0.25000   0.99999   0.35601   0.00000  Uiso   1.00
C574   C     0.25000   0.50001   0.64404   0.00000  Uiso   1.00
C575   C    -0.00000   0.75000   0.35596   0.00000  Uiso   1.00
C576   C     0.00000   0.75000   0.64399   0.00000  Uiso   1.00
C577   C     0.00003   0.74999   0.85601   0.00000  Uiso   1.00
C578   C     0.00009   0.75003   0.14400   0.00000  Uiso   1.00
C579   C     0.24997   0.50007   0.85600   0.00000  Uiso   1.00
C580   C     0.24999   0.50003   0.14403   0.00000  Uiso   1.00
C581   C     0.16999   0.58001   0.25000   0.00000  Uiso   1.00
C582   C     0.33001   0.91999   0.75000   0.00000  Uiso   1.00
C583   C     0.41999   0.66999   0.25000   0.00000  Uiso   1.00
C584   C     0.08001   0.83001   0.75000   0.00000  Uiso   1.00
C585   C     0.33001   0.91998   0.25000   0.00000  Uiso   1.00
C586   C     0.16999   0.58002   0.75000   0.00000  Uiso   1.00
C587   C     0.08001   0.83002   0.25000   0.00000  Uiso   1.00
C588   C     0.41999   0.66998   0.75000   0.00000  Uiso   1.00
C589   C     0.16999   0.91999   0.75000   0.00000  Uiso   1.00
C590   C     0.33001   0.58001   0.25000   0.00000  Uiso   1.00
C591   C     0.41999   0.83001   0.75000   0.00000  Uiso   1.00
C592   C     0.08002   0.66999   0.25000   0.00000  Uiso   1.00
C593   C     0.33001   0.58001   0.74999   0.00000  Uiso   1.00
C594   C     0.16999   0.91999   0.25001   0.00000  Uiso   1.00
C595   C     0.08001   0.66999   0.75001   0.00000  Uiso   1.00
C596   C     0.41999   0.83001   0.24999   0.00000  Uiso   1.00
C597   C     0.13833   0.88834   0.25001   0.00000  Uiso   1.00
C598   C     0.36167   0.61166   0.74999   0.00000  Uiso   1.00
C599   C     0.11167   0.63834   0.24999   0.00000  Uiso   1.00
C600   C     0.38833   0.86166   0.75001   0.00000  Uiso   1.00
C601   C     0.36167   0.61166   0.25001   0.00000  Uiso   1.00
C602   C     0.13833   0.88834   0.74999   0.00000  Uiso   1.00
C603   C     0.38833   0.86166   0.24999   0.00000  Uiso   1.00
C604   C     0.11167   0.63833   0.75001   0.00000  Uiso   1.00
C605   C     0.13834   0.61167   0.75000   0.00000  Uiso   1.00
C606   C     0.36166   0.88833   0.25000   0.00000  Uiso   1.00
C607   C     0.11166   0.86167   0.74999   0.00000  Uiso   1.00
C608   C     0.38834   0.63833   0.25001   0.00000  Uiso   1.00
C609   C     0.36166   0.88833   0.75001   0.00000  Uiso   1.00
C610   C     0.13834   0.61167   0.24999   0.00000  Uiso   1.00
C611   C     0.38834   0.63833   0.74999   0.00000  Uiso   1.00
C612   C     0.11166   0.86167   0.25000   0.00000  Uiso   1.00
C613   C     0.03049   0.77288   0.41825   0.00000  Uiso   1.00
C614   C     0.46878   0.72812   0.58153   0.00000  Uiso   1.00
C615   C     0.22833   0.96863   0.41849   0.00000  Uiso   1.00
C616   C     0.27274   0.53061   0.58173   0.00000  Uiso   1.00
C617   C     0.46951   0.72711   0.41826   0.00000  Uiso   1.00
C618   C     0.03123   0.77187   0.58151   0.00000  Uiso   1.00
C619   C     0.27171   0.53134   0.41847   0.00000  Uiso   1.00
C620   C     0.22725   0.96942   0.58175   0.00000  Uiso   1.00
C621   C     0.21899   0.52252   0.91841   0.00000  Uiso   1.00
C622   C     0.27955   0.97595   0.08173   0.00000  Uiso   1.00
C623   C     0.47937   0.78196   0.91848   0.00000  Uiso   1.00
C624   C     0.02277   0.71886   0.08165   0.00000  Uiso   1.00
C625   C     0.28000   0.97686   0.91851   0.00000  Uiso   1.00
C626   C     0.21974   0.52322   0.08176   0.00000  Uiso   1.00
C627   C     0.02086   0.71796   0.91837   0.00000  Uiso   1.00
C628   C     0.48176   0.78312   0.08160   0.00000  Uiso   1.00
C629   C    -0.00000   0.75000   0.39830   0.00000  Uiso   1.00
C630   C     0.00000   0.75000   0.60157   0.00000  Uiso   1.00
C631   C     0.25002   0.99998   0.39844   0.00000  Uiso   1.00
C632   C     0.24999   0.50001   0.60169   0.00000  Uiso   1.00
C633   C     0.24977   0.99995   0.89841   0.00000  Uiso   1.00
C634   C     0.24986   0.99984   0.10168   0.00000  Uiso   1.00
C635   C     0.49991   0.74988   0.89844   0.00000  Uiso   1.00
C636   C     0.00141   0.75048   0.10163   0.00000  Uiso   1.00
C637   C     0.46801   0.72781   0.45903   0.00000  Uiso   1.00
C638   C     0.03055   0.77406   0.54077   0.00000  Uiso   1.00
C639   C     0.27391   0.53067   0.45921   0.00000  Uiso   1.00
C640   C     0.22797   0.96790   0.54099   0.00000  Uiso   1.00
C641   C     0.03199   0.77219   0.45901   0.00000  Uiso   1.00
C642   C     0.46946   0.72593   0.54079   0.00000  Uiso   1.00
C643   C     0.22613   0.96931   0.45923   0.00000  Uiso   1.00
C644   C     0.27203   0.53211   0.54097   0.00000  Uiso   1.00
C645   C     0.27861   0.97408   0.95917   0.00000  Uiso   1.00
C646   C     0.21792   0.52226   0.04101   0.00000  Uiso   1.00
C647   C     0.02138   0.71722   0.95917   0.00000  Uiso   1.00
C648   C     0.48319   0.78487   0.04092   0.00000  Uiso   1.00
C649   C     0.21932   0.52425   0.95921   0.00000  Uiso   1.00
C650   C     0.28047   0.97589   0.04091   0.00000  Uiso   1.00
C651   C     0.47932   0.78278   0.95928   0.00000  Uiso   1.00
C652   C     0.02485   0.71938   0.04088   0.00000  Uiso   1.00
C653   C     0.00000   0.75000   0.47948   0.00000  Uiso   1.00
C654   C     0.00000   0.75000   0.52031   0.00000  Uiso   1.00
C655   C     0.25001   0.99999   0.47969   0.00000  Uiso   1.00
C656   C     0.25000   0.50000   0.52052   0.00000  Uiso   1.00
C657   C     0.24900   0.99913   0.97967   0.00000  Uiso   1.00
C658   C     0.24912   0.99908   0.02051   0.00000  Uiso   1.00
C659   C     0.00163   0.75076   0.97963   0.00000  Uiso   1.00
C660   C     0.00289   0.75145   0.02044   0.00000  Uiso   1.00
C661   C     0.43606   0.70607   0.47975   0.00000  Uiso   1.00
C662   C     0.06008   0.79897   0.52010   0.00000  Uiso   1.00
C663   C     0.29866   0.56034   0.47987   0.00000  Uiso   1.00
C664   C     0.20641   0.93582   0.52029   0.00000  Uiso   1.00
C665   C     0.06394   0.79393   0.47972   0.00000  Uiso   1.00
C666   C     0.43993   0.70102   0.52013   0.00000  Uiso   1.00
C667   C     0.20137   0.93964   0.47991   0.00000  Uiso   1.00
C668   C     0.29360   0.56417   0.52024   0.00000  Uiso   1.00
C669   C     0.30656   0.94747   0.97973   0.00000  Uiso   1.00
C670   C     0.18638   0.54461   0.02034   0.00000  Uiso   1.00
C671   C     0.04189   0.68443   0.97989   0.00000  Uiso   1.00
C672   C     0.46464   0.81874   0.02037   0.00000  Uiso   1.00
C673   C     0.19029   0.54968   0.97995   0.00000  Uiso   1.00
C674   C     0.31102   0.95234   0.02006   0.00000  Uiso   1.00
C675   C     0.45827   0.81512   0.98015   0.00000  Uiso   1.00
C676   C     0.04776   0.68838   0.02017   0.00000  Uiso   1.00
F677   F     0.05658   0.79793   0.39724   0.00000  Uiso   1.00
F678   F     0.43747   0.70977   0.60236   0.00000  Uiso   1.00
F679   F     0.21017   0.93720   0.39769   0.00000  Uiso   1.00
F680   F     0.29767   0.55682   0.60272   0.00000  Uiso   1.00
F681   F     0.44342   0.70207   0.39726   0.00000  Uiso   1.00
F682   F     0.06253   0.79022   0.60233   0.00000  Uiso   1.00
F683   F     0.28987   0.56276   0.39765   0.00000  Uiso   1.00
F684   F     0.20230   0.94322   0.60276   0.00000  Uiso   1.00
F685   F     0.18855   0.54206   0.89743   0.00000  Uiso   1.00
F686   F     0.30543   0.95085   0.10288   0.00000  Uiso   1.00
F687   F     0.46088   0.81294   0.89740   0.00000  Uiso   1.00
F688   F     0.03961   0.68672   0.10246   0.00000  Uiso   1.00
F689   F     0.31118   0.95798   0.89792   0.00000  Uiso   1.00
F690   F     0.19442   0.54906   0.10273   0.00000  Uiso   1.00
F691   F     0.04367   0.69001   0.89727   0.00000  Uiso   1.00
F692   F     0.45782   0.81063   0.10217   0.00000  Uiso   1.00
C693   C     0.39629   0.69077   0.45972   0.00000  Uiso   1.00
H694   H     0.38474   0.71493   0.43908   0.00000  Uiso   1.00
H695   H     0.40238   0.66057   0.44456   0.00000  Uiso   1.00
H696   H     0.36976   0.68621   0.48016   0.00000  Uiso   1.00
C697   C     0.08500   0.83353   0.54009   0.00000  Uiso   1.00
H698   H     0.06489   0.85044   0.56126   0.00000  Uiso   1.00
H699   H     0.11316   0.82012   0.55459   0.00000  Uiso   1.00
H700   H     0.09524   0.85843   0.51966   0.00000  Uiso   1.00
C701   C     0.33309   0.58545   0.45985   0.00000  Uiso   1.00
H702   H     0.35792   0.59580   0.48027   0.00000  Uiso   1.00
H703   H     0.35008   0.56542   0.43867   0.00000  Uiso   1.00
H704   H     0.31953   0.61354   0.44536   0.00000  Uiso   1.00
C705   C     0.19132   0.89598   0.54035   0.00000  Uiso   1.00
H706   H     0.21552   0.88456   0.56101   0.00000  Uiso   1.00
H707   H     0.16108   0.90190   0.55549   0.00000  Uiso   1.00
H708   H     0.18694   0.86939   0.51992   0.00000  Uiso   1.00
C709   C     0.10371   0.80922   0.45968   0.00000  Uiso   1.00
H710   H     0.11526   0.78506   0.43905   0.00000  Uiso   1.00
H711   H     0.09763   0.83942   0.44450   0.00000  Uiso   1.00
H712   H     0.13025   0.81376   0.48012   0.00000  Uiso   1.00
C713   C     0.41501   0.66645   0.54015   0.00000  Uiso   1.00
H714   H     0.43512   0.64955   0.56133   0.00000  Uiso   1.00
H715   H     0.38685   0.67986   0.55463   0.00000  Uiso   1.00
H716   H     0.40477   0.64156   0.51973   0.00000  Uiso   1.00
C717   C     0.16696   0.91452   0.45990   0.00000  Uiso   1.00
H718   H     0.14996   0.93454   0.43871   0.00000  Uiso   1.00
H719   H     0.18053   0.88643   0.44544   0.00000  Uiso   1.00
H720   H     0.14212   0.90416   0.48033   0.00000  Uiso   1.00
C721   C     0.30869   0.60403   0.54027   0.00000  Uiso   1.00
H722   H     0.28448   0.61546   0.56091   0.00000  Uiso   1.00
H723   H     0.33892   0.59809   0.55543   0.00000  Uiso   1.00
H724   H     0.31310   0.63060   0.51982   0.00000  Uiso   1.00
C725   C     0.32835   0.91088   0.95980   0.00000  Uiso   1.00
H726   H     0.30763   0.89674   0.93744   0.00000  Uiso   1.00
H727   H     0.35851   0.92140   0.94673   0.00000  Uiso   1.00
H728   H     0.33445   0.88466   0.98024   0.00000  Uiso   1.00
C729   C     0.14688   0.56042   0.04044   0.00000  Uiso   1.00
H730   H     0.13524   0.53659   0.06137   0.00000  Uiso   1.00
H731   H     0.15332   0.59073   0.05531   0.00000  Uiso   1.00
H732   H     0.12028   0.56490   0.02006   0.00000  Uiso   1.00
C733   C     0.05487   0.64373   0.96005   0.00000  Uiso   1.00
H734   H     0.05900   0.61730   0.98069   0.00000  Uiso   1.00
H735   H     0.02957   0.63285   0.94027   0.00000  Uiso   1.00
H736   H     0.08479   0.64831   0.94399   0.00000  Uiso   1.00
C737   C     0.45509   0.86032   0.04031   0.00000  Uiso   1.00
H738   H     0.45612   0.88723   0.01984   0.00000  Uiso   1.00
H739   H     0.42358   0.85915   0.05418   0.00000  Uiso   1.00
H740   H     0.47970   0.86782   0.06204   0.00000  Uiso   1.00
C741   C     0.16587   0.58461   0.95999   0.00000  Uiso   1.00
H742   H     0.18641   0.60161   0.93922   0.00000  Uiso   1.00
H743   H     0.13783   0.57153   0.94504   0.00000  Uiso   1.00
H744   H     0.15547   0.60936   0.98047   0.00000  Uiso   1.00
C745   C     0.34974   0.93427   0.03985   0.00000  Uiso   1.00
H746   H     0.36379   0.95804   0.05955   0.00000  Uiso   1.00
H747   H     0.34139   0.90522   0.05599   0.00000  Uiso   1.00
H748   H     0.37530   0.92663   0.01917   0.00000  Uiso   1.00
C749   C     0.42680   0.84416   0.96059   0.00000  Uiso   1.00
H750   H     0.40521   0.82570   0.94186   0.00000  Uiso   1.00
H751   H     0.40569   0.85996   0.98150   0.00000  Uiso   1.00
H752   H     0.44345   0.86869   0.94357   0.00000  Uiso   1.00
C753   C     0.08131   0.66196   0.03998   0.00000  Uiso   1.00
H754   H     0.09924   0.68126   0.06108   0.00000  Uiso   1.00
H755   H     0.06678   0.63437   0.05451   0.00000  Uiso   1.00
H756   H     0.10557   0.65078   0.01936   0.00000  Uiso   1.00
Zn757  Zn    0.70053   0.50000   0.21730   0.00000  Uiso   1.00
Zn758  Zn    0.79948   0.50000   0.78270   0.00000  Uiso   1.00
Zn759  Zn    0.50000   0.70052   0.21730   0.00000  Uiso   1.00
Zn760  Zn    0.50000   0.79947   0.78270   0.00000  Uiso   1.00
Zn761  Zn    0.79948   0.50000   0.21730   0.00000  Uiso   1.00
Zn762  Zn    0.70053   0.50000   0.78270   0.00000  Uiso   1.00
Zn763  Zn    0.50000   0.79947   0.21730   0.00000  Uiso   1.00
Zn764  Zn    0.50000   0.70052   0.78270   0.00000  Uiso   1.00
Zn765  Zn    0.95053   0.75000   0.71730   0.00000  Uiso   1.00
Zn766  Zn    0.54948   0.75000   0.28270   0.00000  Uiso   1.00
Zn767  Zn    0.75000   0.95052   0.71730   0.00000  Uiso   1.00
Zn768  Zn    0.75000   0.54947   0.28270   0.00000  Uiso   1.00
Zn769  Zn    0.54948   0.75000   0.71730   0.00000  Uiso   1.00
Zn770  Zn    0.95053   0.75000   0.28270   0.00000  Uiso   1.00
Zn771  Zn    0.75000   0.54947   0.71730   0.00000  Uiso   1.00
Zn772  Zn    0.75000   0.95052   0.28270   0.00000  Uiso   1.00
O773   O     0.75000   0.50000   0.25000   0.00000  Uiso   1.00
O774   O     0.75000   0.50000   0.75000   0.00000  Uiso   1.00
O775   O     0.50000   0.75000   0.25000   0.00000  Uiso   1.00
O776   O     0.50000   0.75000   0.75000   0.00000  Uiso   1.00
O777   O     0.75000   0.96538   0.33749   0.00000  Uiso   1.00
O778   O     0.75000   0.53461   0.66251   0.00000  Uiso   1.00
O779   O     0.53462   0.75000   0.33749   0.00000  Uiso   1.00
O780   O     0.96539   0.75000   0.66251   0.00000  Uiso   1.00
O781   O     0.75000   0.53461   0.33749   0.00000  Uiso   1.00
O782   O     0.75000   0.96538   0.66251   0.00000  Uiso   1.00
O783   O     0.96539   0.75000   0.33749   0.00000  Uiso   1.00
O784   O     0.53462   0.75000   0.66251   0.00000  Uiso   1.00
O785   O     0.50000   0.71538   0.83749   0.00000  Uiso   1.00
O786   O     0.50000   0.78461   0.16251   0.00000  Uiso   1.00
O787   O     0.78462   0.50000   0.83749   0.00000  Uiso   1.00
O788   O     0.71539   0.50000   0.16251   0.00000  Uiso   1.00
O789   O     0.50000   0.78461   0.83749   0.00000  Uiso   1.00
O790   O     0.50000   0.71538   0.16251   0.00000  Uiso   1.00
O791   O     0.71539   0.50000   0.83749   0.00000  Uiso   1.00
O792   O     0.78462   0.50000   0.16251   0.00000  Uiso   1.00
O793   O     0.70127   0.58332   0.27298   0.00000  Uiso   1.00
O794   O     0.79874   0.91668   0.72702   0.00000  Uiso   1.00
O795   O     0.91668   0.70126   0.27298   0.00000  Uiso   1.00
O796   O     0.58332   0.79873   0.72702   0.00000  Uiso   1.00
O797   O     0.79874   0.91668   0.27298   0.00000  Uiso   1.00
O798   O     0.70127   0.58332   0.72702   0.00000  Uiso   1.00
O799   O     0.58332   0.79873   0.27298   0.00000  Uiso   1.00
O800   O     0.91668   0.70126   0.72702   0.00000  Uiso   1.00
O801   O     0.70127   0.91668   0.72702   0.00000  Uiso   1.00
O802   O     0.79874   0.58332   0.27298   0.00000  Uiso   1.00
O803   O     0.91668   0.79873   0.72702   0.00000  Uiso   1.00
O804   O     0.58332   0.70126   0.27298   0.00000  Uiso   1.00
O805   O     0.79874   0.58332   0.72702   0.00000  Uiso   1.00
O806   O     0.70127   0.91668   0.27298   0.00000  Uiso   1.00
O807   O     0.58332   0.70126   0.72702   0.00000  Uiso   1.00
O808   O     0.91668   0.79873   0.27298   0.00000  Uiso   1.00
O809   O     0.95127   0.83332   0.77298   0.00000  Uiso   1.00
O810   O     0.54874   0.66668   0.22702   0.00000  Uiso   1.00
O811   O     0.66668   0.95126   0.77298   0.00000  Uiso   1.00
O812   O     0.83332   0.54873   0.22702   0.00000  Uiso   1.00
O813   O     0.54874   0.66668   0.77298   0.00000  Uiso   1.00
O814   O     0.95127   0.83332   0.22702   0.00000  Uiso   1.00
O815   O     0.83332   0.54873   0.77298   0.00000  Uiso   1.00
O816   O     0.66668   0.95126   0.22702   0.00000  Uiso   1.00
O817   O     0.95127   0.66668   0.22702   0.00000  Uiso   1.00
O818   O     0.54874   0.83332   0.77298   0.00000  Uiso   1.00
O819   O     0.66668   0.54873   0.22702   0.00000  Uiso   1.00
O820   O     0.83332   0.95126   0.77298   0.00000  Uiso   1.00
O821   O     0.54874   0.83332   0.22702   0.00000  Uiso   1.00
O822   O     0.95127   0.66668   0.77298   0.00000  Uiso   1.00
O823   O     0.83332   0.95126   0.22702   0.00000  Uiso   1.00
O824   O     0.66668   0.54873   0.77298   0.00000  Uiso   1.00
C825   C     0.75000   0.99999   0.35601   0.00000  Uiso   1.00
C826   C     0.75000   0.50001   0.64404   0.00000  Uiso   1.00
C827   C     0.50000   0.75000   0.35596   0.00000  Uiso   1.00
C828   C     0.50000   0.75000   0.64399   0.00000  Uiso   1.00
C829   C     0.50003   0.74999   0.85601   0.00000  Uiso   1.00
C830   C     0.50009   0.75003   0.14400   0.00000  Uiso   1.00
C831   C     0.74997   0.50007   0.85600   0.00000  Uiso   1.00
C832   C     0.74999   0.50003   0.14403   0.00000  Uiso   1.00
C833   C     0.66999   0.58001   0.25000   0.00000  Uiso   1.00
C834   C     0.83001   0.91999   0.75000   0.00000  Uiso   1.00
C835   C     0.91999   0.66999   0.25000   0.00000  Uiso   1.00
C836   C     0.58001   0.83001   0.75000   0.00000  Uiso   1.00
C837   C     0.83001   0.91998   0.25000   0.00000  Uiso   1.00
C838   C     0.66999   0.58002   0.75000   0.00000  Uiso   1.00
C839   C     0.58001   0.83002   0.25000   0.00000  Uiso   1.00
C840   C     0.91999   0.66998   0.75000   0.00000  Uiso   1.00
C841   C     0.66999   0.91999   0.75000   0.00000  Uiso   1.00
C842   C     0.83001   0.58001   0.25000   0.00000  Uiso   1.00
C843   C     0.91999   0.83001   0.75000   0.00000  Uiso   1.00
C844   C     0.58002   0.66999   0.25000   0.00000  Uiso   1.00
C845   C     0.83001   0.58001   0.74999   0.00000  Uiso   1.00
C846   C     0.66999   0.91999   0.25001   0.00000  Uiso   1.00
C847   C     0.58001   0.66999   0.75001   0.00000  Uiso   1.00
C848   C     0.91999   0.83001   0.24999   0.00000  Uiso   1.00
C849   C     0.63833   0.88834   0.25001   0.00000  Uiso   1.00
C850   C     0.86167   0.61166   0.74999   0.00000  Uiso   1.00
C851   C     0.61167   0.63834   0.24999   0.00000  Uiso   1.00
C852   C     0.88833   0.86166   0.75001   0.00000  Uiso   1.00
C853   C     0.86167   0.61166   0.25001   0.00000  Uiso   1.00
C854   C     0.63833   0.88834   0.74999   0.00000  Uiso   1.00
C855   C     0.88833   0.86166   0.24999   0.00000  Uiso   1.00
C856   C     0.61167   0.63833   0.75001   0.00000  Uiso   1.00
C857   C     0.63834   0.61167   0.75000   0.00000  Uiso   1.00
C858   C     0.86166   0.88833   0.25000   0.00000  Uiso   1.00
C859   C     0.61166   0.86167   0.74999   0.00000  Uiso   1.00
C860   C     0.88834   0.63833   0.25001   0.00000  Uiso   1.00
C861   C     0.86166   0.88833   0.75001   0.00000  Uiso   1.00
C862   C     0.63834   0.61167   0.24999   0.00000  Uiso   1.00
C863   C     0.88834   0.63833   0.74999   0.00000  Uiso   1.00
C864   C     0.61166   0.86167   0.25000   0.00000  Uiso   1.00
C865   C     0.53049   0.77288   0.41825   0.00000  Uiso   1.00
C866   C     0.96878   0.72812   0.58153   0.00000  Uiso   1.00
C867   C     0.72833   0.96863   0.41849   0.00000  Uiso   1.00
C868   C     0.77274   0.53061   0.58173   0.00000  Uiso   1.00
C869   C     0.96951   0.72711   0.41826   0.00000  Uiso   1.00
C870   C     0.53123   0.77187   0.58151   0.00000  Uiso   1.00
C871   C     0.77171   0.53134   0.41847   0.00000  Uiso   1.00
C872   C     0.72725   0.96942   0.58175   0.00000  Uiso   1.00
C873   C     0.71899   0.52252   0.91841   0.00000  Uiso   1.00
C874   C     0.77955   0.97595   0.08173   0.00000  Uiso   1.00
C875   C     0.97937   0.78196   0.91848   0.00000  Uiso   1.00
C876   C     0.52277   0.71886   0.08165   0.00000  Uiso   1.00
C877   C     0.78000   0.97686   0.91851   0.00000  Uiso   1.00
C878   C     0.71974   0.52322   0.08176   0.00000  Uiso   1.00
C879   C     0.52086   0.71796   0.91837   0.00000  Uiso   1.00
C880   C     0.98176   0.78312   0.08160   0.00000  Uiso   1.00
C881   C     0.50000   0.75000   0.39830   0.00000  Uiso   1.00
C882   C     0.50000   0.75000   0.60157   0.00000  Uiso   1.00
C883   C     0.75002   0.99998   0.39844   0.00000  Uiso   1.00
C884   C     0.74999   0.50001   0.60169   0.00000  Uiso   1.00
C885   C     0.74977   0.99995   0.89841   0.00000  Uiso   1.00
C886   C     0.74986   0.99984   0.10168   0.00000  Uiso   1.00
C887   C     0.99991   0.74988   0.89844   0.00000  Uiso   1.00
C888   C     0.50141   0.75048   0.10163   0.00000  Uiso   1.00
C889   C     0.96801   0.72781   0.45903   0.00000  Uiso   1.00
C890   C     0.53055   0.77406   0.54077   0.00000  Uiso   1.00
C891   C     0.77391   0.53067   0.45921   0.00000  Uiso   1.00
C892   C     0.72797   0.96790   0.54099   0.00000  Uiso   1.00
C893   C     0.53199   0.77219   0.45901   0.00000  Uiso   1.00
C894   C     0.96946   0.72593   0.54079   0.00000  Uiso   1.00
C895   C     0.72613   0.96931   0.45923   0.00000  Uiso   1.00
C896   C     0.77203   0.53211   0.54097   0.00000  Uiso   1.00
C897   C     0.77861   0.97408   0.95917   0.00000  Uiso   1.00
C898   C     0.71792   0.52226   0.04101   0.00000  Uiso   1.00
C899   C     0.52138   0.71722   0.95917   0.00000  Uiso   1.00
C900   C     0.98319   0.78487   0.04092   0.00000  Uiso   1.00
C901   C     0.71932   0.52425   0.95921   0.00000  Uiso   1.00
C902   C     0.78047   0.97589   0.04091   0.00000  Uiso   1.00
C903   C     0.97932   0.78278   0.95928   0.00000  Uiso   1.00
C904   C     0.52485   0.71938   0.04088   0.00000  Uiso   1.00
C905   C     0.50000   0.75000   0.47948   0.00000  Uiso   1.00
C906   C     0.50000   0.75000   0.52031   0.00000  Uiso   1.00
C907   C     0.75001   0.99999   0.47969   0.00000  Uiso   1.00
C908   C     0.75000   0.50000   0.52052   0.00000  Uiso   1.00
C909   C     0.74900   0.99913   0.97967   0.00000  Uiso   1.00
C910   C     0.74912   0.99908   0.02051   0.00000  Uiso   1.00
C911   C     0.50163   0.75076   0.97963   0.00000  Uiso   1.00
C912   C     0.50289   0.75145   0.02044   0.00000  Uiso   1.00
C913   C     0.93606   0.70607   0.47975   0.00000  Uiso   1.00
C914   C     0.56008   0.79897   0.52010   0.00000  Uiso   1.00
C915   C     0.79866   0.56034   0.47987   0.00000  Uiso   1.00
C916   C     0.70641   0.93582   0.52029   0.00000  Uiso   1.00
C917   C     0.56394   0.79393   0.47972   0.00000  Uiso   1.00
C918   C     0.93993   0.70102   0.52013   0.00000  Uiso   1.00
C919   C     0.70137   0.93964   0.47991   0.00000  Uiso   1.00
C920   C     0.79360   0.56417   0.52024   0.00000  Uiso   1.00
C921   C     0.80656   0.94747   0.97973   0.00000  Uiso   1.00
C922   C     0.68638   0.54461   0.02034   0.00000  Uiso   1.00
C923   C     0.54189   0.68443   0.97989   0.00000  Uiso   1.00
C924   C     0.96464   0.81874   0.02037   0.00000  Uiso   1.00
C925   C     0.69029   0.54968   0.97995   0.00000  Uiso   1.00
C926   C     0.81102   0.95234   0.02006   0.00000  Uiso   1.00
C927   C     0.95827   0.81512   0.98015   0.00000  Uiso   1.00
C928   C     0.54776   0.68838   0.02017   0.00000  Uiso   1.00
F929   F     0.55658   0.79793   0.39724   0.00000  Uiso   1.00
F930   F     0.93747   0.70977   0.60236   0.00000  Uiso   1.00
F931   F     0.71017   0.93720   0.39769   0.00000  Uiso   1.00
F932   F     0.79767   0.55682   0.60272   0.00000  Uiso   1.00
F933   F     0.94342   0.70207   0.39726   0.00000  Uiso   1.00
F934   F     0.56253   0.79022   0.60233   0.00000  Uiso   1.00
F935   F     0.78987   0.56276   0.39765   0.00000  Uiso   1.00
F936   F     0.70230   0.94322   0.60276   0.00000  Uiso   1.00
F937   F     0.68855   0.54206   0.89743   0.00000  Uiso   1.00
F938   F     0.80543   0.95085   0.10288   0.00000  Uiso   1.00
F939   F     0.96088   0.81294   0.89740   0.00000  Uiso   1.00
F940   F     0.53961   0.68672   0.10246   0.00000  Uiso   1.00
F941   F     0.81118   0.95798   0.89792   0.00000  Uiso   1.00
F942   F     0.69442   0.54906   0.10273   0.00000  Uiso   1.00
F943   F     0.54367   0.69001   0.89727   0.00000  Uiso   1.00
F944   F     0.95782   0.81063   0.10217   0.00000  Uiso   1.00
C945   C     0.89629   0.69077   0.45972   0.00000  Uiso   1.00
H946   H     0.88474   0.71493   0.43908   0.00000  Uiso   1.00
H947   H     0.90238   0.66057   0.44456   0.00000  Uiso   1.00
H948   H     0.86976   0.68621   0.48016   0.00000  Uiso   1.00
C949   C     0.58500   0.83353   0.54009   0.00000  Uiso   1.00
H950   H     0.56489   0.85044   0.56126   0.00000  Uiso   1.00
H951   H     0.61316   0.82012   0.55459   0.00000  Uiso   1.00
H952   H     0.59524   0.85843   0.51966   0.00000  Uiso   1.00
C953   C     0.83309   0.58545   0.45985   0.00000  Uiso   1.00
H954   H     0.85792   0.59580   0.48027   0.00000  Uiso   1.00
H955   H     0.85008   0.56542   0.43867   0.00000  Uiso   1.00
H956   H     0.81953   0.61354   0.44536   0.00000  Uiso   1.00
C957   C     0.69132   0.89598   0.54035   0.00000  Uiso   1.00
H958   H     0.71552   0.88456   0.56101   0.00000  Uiso   1.00
H959   H     0.66108   0.90190   0.55549   0.00000  Uiso   1.00
H960   H     0.68694   0.86939   0.51992   0.00000  Uiso   1.00
C961   C     0.60371   0.80922   0.45968   0.00000  Uiso   1.00
H962   H     0.61526   0.78506   0.43905   0.00000  Uiso   1.00
H963   H     0.59763   0.83942   0.44450   0.00000  Uiso   1.00
H964   H     0.63025   0.81376   0.48012   0.00000  Uiso   1.00
C965   C     0.91501   0.66645   0.54015   0.00000  Uiso   1.00
H966   H     0.93512   0.64955   0.56133   0.00000  Uiso   1.00
H967   H     0.88685   0.67986   0.55463   0.00000  Uiso   1.00
H968   H     0.90477   0.64156   0.51973   0.00000  Uiso   1.00
C969   C     0.66696   0.91452   0.45990   0.00000  Uiso   1.00
H970   H     0.64996   0.93454   0.43871   0.00000  Uiso   1.00
H971   H     0.68053   0.88643   0.44544   0.00000  Uiso   1.00
H972   H     0.64212   0.90416   0.48033   0.00000  Uiso   1.00
C973   C     0.80869   0.60403   0.54027   0.00000  Uiso   1.00
H974   H     0.78448   0.61546   0.56091   0.00000  Uiso   1.00
H975   H     0.83892   0.59809   0.55543   0.00000  Uiso   1.00
H976   H     0.81310   0.63060   0.51982   0.00000  Uiso   1.00
C977   C     0.82835   0.91088   0.95980   0.00000  Uiso   1.00
H978   H     0.80763   0.89674   0.93744   0.00000  Uiso   1.00
H979   H     0.85851   0.92140   0.94673   0.00000  Uiso   1.00
H980   H     0.83445   0.88466   0.98024   0.00000  Uiso   1.00
C981   C     0.64688   0.56042   0.04044   0.00000  Uiso   1.00
H982   H     0.63524   0.53659   0.06137   0.00000  Uiso   1.00
H983   H     0.65332   0.59073   0.05531   0.00000  Uiso   1.00
H984   H     0.62028   0.56490   0.02006   0.00000  Uiso   1.00
C985   C     0.55487   0.64373   0.96005   0.00000  Uiso   1.00
H986   H     0.55900   0.61730   0.98069   0.00000  Uiso   1.00
H987   H     0.52957   0.63285   0.94027   0.00000  Uiso   1.00
H988   H     0.58479   0.64831   0.94399   0.00000  Uiso   1.00
C989   C     0.95509   0.86032   0.04031   0.00000  Uiso   1.00
H990   H     0.95612   0.88723   0.01984   0.00000  Uiso   1.00
H991   H     0.92358   0.85915   0.05418   0.00000  Uiso   1.00
H992   H     0.97970   0.86782   0.06204   0.00000  Uiso   1.00
C993   C     0.66587   0.58461   0.95999   0.00000  Uiso   1.00
H994   H     0.68641   0.60161   0.93922   0.00000  Uiso   1.00
H995   H     0.63783   0.57153   0.94504   0.00000  Uiso   1.00
H996   H     0.65547   0.60936   0.98047   0.00000  Uiso   1.00
C997   C     0.84974   0.93427   0.03985   0.00000  Uiso   1.00
H998   H     0.86379   0.95804   0.05955   0.00000  Uiso   1.00
H999   H     0.84139   0.90522   0.05599   0.00000  Uiso   1.00
H1000  H     0.87530   0.92663   0.01917   0.00000  Uiso   1.00
C1001  C     0.92680   0.84416   0.96059   0.00000  Uiso   1.00
H1002  H     0.90521   0.82570   0.94186   0.00000  Uiso   1.00
H1003  H     0.90569   0.85996   0.98150   0.00000  Uiso   1.00
H1004  H     0.94345   0.86869   0.94357   0.00000  Uiso   1.00
C1005  C     0.58131   0.66196   0.03998   0.00000  Uiso   1.00
H1006  H     0.59924   0.68126   0.06108   0.00000  Uiso   1.00
H1007  H     0.56678   0.63437   0.05451   0.00000  Uiso   1.00
H1008  H     0.60557   0.65078   0.01936   0.00000  Uiso   1.00
loop_
_geom_bond_atom_site_label_1
_geom_bond_atom_site_label_2
_geom_bond_distance
_geom_bond_site_symmetry_2
_ccdc_geom_bond_type
Zn1    O63     1.915   .     S
Zn1    O17     1.936   .     S
Zn1    O32     1.952   .     S
Zn1    O564    1.914   1_545 S
Zn2    O18     1.936   .     S
Zn2    O568    1.915   1_545 S
Zn2    O31     1.952   .     S
Zn2    O59     1.914   .     S
Zn3    O19     1.936   .     S
Zn3    O313    1.914   1_455 S
Zn3    O34     1.952   .     S
Zn3    O54     1.915   .     S
Zn4    O305    1.915   1_455 S
Zn4    O33     1.952   .     S
Zn4    O20     1.936   .     S
Zn4    O62     1.914   .     S
Zn5    O56     1.914   .     S
Zn5    O17     1.936   .     S
Zn5    O36     1.952   .     S
Zn5    O571    1.914   1_545 S
Zn6    O559    1.914   1_545 S
Zn6    O18     1.936   .     S
Zn6    O35     1.952   .     S
Zn6    O68     1.914   .     S
Zn7    O310    1.915   1_455 S
Zn7    O30     1.952   .     S
Zn7    O19     1.935   .     S
Zn7    O65     1.914   .     S
Zn8    O318    1.914   1_455 S
Zn8    O29     1.952   .     S
Zn8    O20     1.935   .     S
Zn8    O57     1.915   .     S
Zn9    O272    1.936   .     S
Zn9    O44     1.914   .     S
Zn9    O24     1.952   .     S
Zn9    O47     1.915   .     S
Zn10   O48     1.915   .     S
Zn10   O43     1.914   .     S
Zn10   O23     1.952   .     S
Zn10   O19     1.936   .     S
Zn11   O522    1.936   .     S
Zn11   O26     1.952   .     S
Zn11   O45     1.914   .     S
Zn11   O38     1.915   .     S
Zn12   O37     1.915   .     S
Zn12   O17     1.936   .     S
Zn12   O46     1.914   .     S
Zn12   O25     1.952   .     S
Zn13   O40     1.914   .     S
Zn13   O51     1.914   .     S
Zn13   O28     1.952   .     S
Zn13   O20     1.936   .     S
Zn14   O39     1.914   .     S
Zn14   O52     1.914   .     S
Zn14   O27     1.952   .     S
Zn14   O271    1.936   .     S
Zn15   O22     1.952   .     S
Zn15   O42     1.915   .     S
Zn15   O49     1.914   .     S
Zn15   O18     1.935   .     S
Zn16   O21     1.952   .     S
Zn16   O50     1.914   .     S
Zn16   O41     1.915   .     S
Zn16   O521    1.935   .     S
O17    Zn520   1.935   1_545 S
O18    Zn515   1.936   1_545 S
O19    Zn266   1.936   1_455 S
O20    Zn261   1.936   1_455 S
O21    C69     1.272   .     A
O22    C70     1.271   .     A
O23    C71     1.272   .     S
O24    C324    1.272   .     S
O25    C573    1.272   1_545 S
O26    C574    1.271   .     S
O27    C323    1.272   .     A
O28    C72     1.272   .     A
O29    C73     1.272   .     S
O30    C74     1.271   .     S
O31    C75     1.273   .     A
O32    C76     1.271   .     S
O33    C73     1.272   .     S
O34    C74     1.273   .     A
O35    C75     1.272   .     A
O36    C76     1.272   .     S
O37    C77     1.276   .     A
O38    C78     1.276   .     A
O39    C79     1.276   .     A
O40    C80     1.276   .     A
O41    C81     1.276   .     A
O42    C82     1.276   .     A
O43    C83     1.276   .     A
O44    C84     1.276   .     A
O45    C85     1.276   .     A
O46    C86     1.276   .     A
O47    C87     1.277   .     A
O48    C88     1.277   .     A
O49    C89     1.276   .     A
O50    C90     1.276   .     A
O51    C91     1.276   .     A
O52    C92     1.276   .     A
O53    Zn256   1.915   .     S
O53    C87     1.276   .     A
O54    C88     1.276   .     A
O55    Zn510   1.914   .     S
O55    C85     1.277   .     A
O56    C86     1.277   .     A
O57    C91     1.276   .     A
O58    Zn259   1.915   .     S
O58    C92     1.276   .     A
O59    C89     1.276   .     A
O60    C90     1.276   .     A
O60    Zn505   1.914   .     S
O61    Zn255   1.914   .     S
O61    C79     1.276   .     A
O62    C80     1.276   .     A
O63    C77     1.276   .     A
O64    Zn506   1.915   .     S
O64    C78     1.276   .     A
O65    C83     1.276   .     A
O66    Zn260   1.914   .     S
O66    C84     1.276   .     A
O67    C81     1.276   .     A
O67    Zn509   1.914   .     S
O68    C82     1.276   .     A
C69    C127    1.467   .     S
C69    O529    1.272   .     S
C70    C128    1.464   .     S
C70    O530    1.271   1_545 S
C71    O279    1.272   1_455 A
C71    C125    1.464   .     S
C72    C126    1.467   .     S
C72    O276    1.272   1_455 S
C73    C383    1.467   1_455 S
C74    C132    1.466   .     S
C75    C633    1.466   1_545 S
C76    C634    1.464   1_545 S
C77    C106    1.422   .     S
C78    C105    1.422   .     S
C79    C104    1.422   .     S
C80    C103    1.422   .     S
C81    C102    1.422   .     S
C82    C101    1.422   .     S
C83    C108    1.422   .     S
C84    C107    1.422   .     S
C85    C98     1.422   .     S
C86    C97     1.422   .     S
C87    C96     1.422   .     S
C88    C95     1.422   .     S
C89    C94     1.422   .     S
C90    C93     1.422   .     S
C91    C100    1.422   .     S
C92    C99     1.422   .     S
C93    C108    1.198   .     T
C94    C107    1.198   .     T
C95    C106    1.198   .     T
C96    C105    1.198   .     T
C97    C104    1.198   .     T
C98    C103    1.198   .     T
C99    C102    1.198   .     T
C100   C101    1.198   .     T
C109   F173    1.359   .     S
C109   C137    1.410   .     A
C109   C125    1.393   .     S
C110   C138    1.410   .     A
C110   F174    1.359   .     S
C110   C378    1.395   .     S
C111   F175    1.359   .     S
C111   C139    1.410   .     A
C111   C127    1.395   .     A
C112   C140    1.410   .     A
C112   C128    1.393   .     A
C112   F176    1.359   .     S
C113   F177    1.359   .     S
C113   C133    1.410   .     A
C113   C377    1.393   .     A
C114   F178    1.359   .     S
C114   C134    1.410   .     A
C114   C126    1.395   .     A
C115   C135    1.410   .     A
C115   F179    1.359   .     S
C115   C631    1.395   1_545 S
C116   F180    1.359   .     S
C116   C136    1.410   .     A
C116   C632    1.393   .     S
C117   C145    1.412   .     A
C117   F181    1.359   .     S
C117   C633    1.396   1_545 S
C118   F182    1.359   .     S
C118   C130    1.393   .     A
C118   C146    1.411   .     A
C119   C147    1.411   .     A
C119   C131    1.395   .     A
C119   F183    1.358   .     S
C120   F184    1.359   .     S
C120   C148    1.411   .     A
C120   C132    1.395   .     A
C121   F185    1.359   .     S
C121   C141    1.409   .     A
C121   C129    1.394   .     A
C122   F186    1.359   .     S
C122   C142    1.410   .     A
C122   C634    1.393   1_545 S
C123   C143    1.411   .     A
C123   F187    1.359   .     S
C123   C383    1.395   1_455 S
C124   F188    1.360   .     S
C124   C144    1.408   .     A
C124   C384    1.394   .     S
C125   C365    1.393   1_455 A
C126   C362    1.395   1_455 S
C127   C619    1.395   .     S
C128   C620    1.393   1_545 S
C129   C621    1.396   .     S
C129   C579    1.466   .     S
C130   C580    1.464   .     S
C130   C626    1.393   .     S
C131   C375    1.395   .     S
C131   C325    1.467   .     S
C132   C376    1.394   1_455 S
C133   C157    1.421   .     A
C133   C401    1.425   .     S
C134   C150    1.423   .     A
C134   C158    1.420   .     A
C135   C159    1.420   .     A
C135   C655    1.423   1_545 S
C136   C160    1.421   .     A
C136   C656    1.424   .     S
C137   C149    1.425   .     A
C137   C161    1.421   .     A
C138   C162    1.420   .     A
C138   C402    1.423   .     S
C139   C163    1.420   .     A
C139   C151    1.423   .     A
C140   C152    1.425   .     A
C140   C164    1.421   .     A
C141   C165    1.417   .     A
C141   C153    1.422   .     A
C142   C166    1.421   .     A
C142   C658    1.424   1_545 S
C143   C167    1.422   .     A
C143   C155    1.425   .     A
C144   C168    1.417   .     A
C144   C408    1.422   .     S
C145   C169    1.420   .     A
C145   C657    1.423   1_545 S
C146   C154    1.426   .     A
C146   C170    1.422   .     A
C147   C171    1.422   .     A
C147   C407    1.425   .     S
C148   C172    1.419   .     A
C148   C156    1.423   .     A
C149   C150    1.412   .     A
C149   C385    1.425   1_455 S
C150   C390    1.423   1_455 S
C151   C639    1.423   .     S
C151   C656    1.412   .     S
C152   C640    1.424   1_545 S
C152   C655    1.412   1_545 S
C153   C649    1.423   .     S
C153   C154    1.412   1_556 S
C154   C646    1.424   .     S
C154   C153    1.412   1_554 S
C155   C399    1.425   1_455 S
C155   C156    1.412   1_556 S
C156   C396    1.422   1_455 S
C156   C155    1.412   1_554 S
C157   C189    1.520   .     S
C157   C162    1.410   .     A
C158   C161    1.410   .     A
C158   C193    1.520   .     S
C159   C197    1.520   .     S
C159   C164    1.410   .     A
C160   C163    1.410   .     A
C160   C201    1.520   .     S
C161   C205    1.520   .     S
C162   C209    1.520   .     S
C163   C213    1.520   .     S
C164   C217    1.520   .     S
C165   C221    1.518   .     S
C165   C170    1.410   1_556 S
C166   C225    1.520   .     S
C166   C169    1.411   1_554 S
C167   C229    1.521   .     S
C167   C172    1.411   1_556 S
C168   C233    1.520   .     S
C168   C171    1.410   1_554 S
C169   C237    1.520   .     S
C169   C166    1.411   1_556 S
C170   C241    1.520   .     S
C170   C165    1.410   1_554 S
C171   C245    1.519   .     S
C171   C168    1.410   1_556 S
C172   C249    1.519   .     S
C172   C167    1.411   1_554 S
C189   H191    1.110   .     S
C189   H192    1.109   .     S
C189   H190    1.110   .     S
C193   H195    1.110   .     S
C193   H196    1.109   .     S
C193   H194    1.110   .     S
C197   H199    1.110   .     S
C197   H200    1.110   .     S
C197   H198    1.109   .     S
C201   H202    1.110   .     S
C201   H203    1.110   .     S
C201   H204    1.109   .     S
C205   H206    1.110   .     S
C205   H208    1.109   .     S
C205   H207    1.110   .     S
C209   H212    1.109   .     S
C209   H210    1.110   .     S
C209   H211    1.110   .     S
C213   H214    1.110   .     S
C213   H216    1.109   .     S
C213   H215    1.110   .     S
C217   H220    1.109   .     S
C217   H218    1.110   .     S
C217   H219    1.110   .     S
C221   H222    1.110   .     S
C221   H224    1.109   .     S
C221   H223    1.110   .     S
C225   H227    1.110   .     S
C225   H228    1.110   .     S
C225   H226    1.110   .     S
C229   H231    1.110   .     S
C229   H232    1.110   .     S
C229   H230    1.109   .     S
C233   H234    1.110   .     S
C233   H235    1.110   .     S
C233   H236    1.110   .     S
C237   H238    1.110   .     S
C237   H239    1.110   .     S
C237   H240    1.108   .     S
C241   H242    1.110   .     S
C241   H243    1.110   .     S
C241   H244    1.109   .     S
C245   H248    1.110   .     S
C245   H247    1.107   .     S
C245   H246    1.110   .     S
C249   H250    1.110   .     S
C249   H251    1.110   .     S
C249   H252    1.108   .     S
Zn253  O315    1.915   .     S
Zn253  O269    1.936   .     S
Zn253  O284    1.952   .     S
Zn253  O816    1.914   1_545 S
Zn254  O270    1.936   .     S
Zn254  O820    1.915   1_545 S
Zn254  O283    1.952   .     S
Zn254  O311    1.914   .     S
Zn255  O271    1.936   .     S
Zn255  O286    1.952   .     S
Zn255  O306    1.915   .     S
Zn256  O285    1.952   .     S
Zn256  O272    1.936   .     S
Zn256  O314    1.914   .     S
Zn257  O308    1.914   .     S
Zn257  O269    1.936   .     S
Zn257  O288    1.952   .     S
Zn257  O823    1.914   1_545 S
Zn258  O811    1.914   1_545 S
Zn258  O270    1.936   .     S
Zn258  O287    1.952   .     S
Zn258  O320    1.914   .     S
Zn259  O282    1.952   .     S
Zn259  O271    1.935   .     S
Zn259  O317    1.914   .     S
Zn260  O281    1.952   .     S
Zn260  O272    1.935   .     S
Zn260  O309    1.915   .     S
Zn261  O20     1.936   1_655 S
Zn261  O296    1.914   .     S
Zn261  O276    1.952   .     S
Zn261  O299    1.915   .     S
Zn262  O300    1.915   .     S
Zn262  O295    1.914   .     S
Zn262  O275    1.952   .     S
Zn262  O271    1.936   .     S
Zn263  O774    1.936   .     S
Zn263  O278    1.952   .     S
Zn263  O297    1.914   .     S
Zn263  O290    1.915   .     S
Zn264  O289    1.915   .     S
Zn264  O269    1.936   .     S
Zn264  O298    1.914   .     S
Zn264  O277    1.952   .     S
Zn265  O292    1.914   .     S
Zn265  O303    1.914   .     S
Zn265  O280    1.952   .     S
Zn265  O272    1.936   .     S
Zn266  O291    1.914   .     S
Zn266  O304    1.914   .     S
Zn266  O279    1.952   .     S
Zn266  O19     1.936   1_655 S
Zn267  O274    1.952   .     S
Zn267  O294    1.915   .     S
Zn267  O301    1.914   .     S
Zn267  O270    1.935   .     S
Zn268  O273    1.952   .     S
Zn268  O302    1.914   .     S
Zn268  O293    1.915   .     S
Zn268  O773    1.935   .     S
O269   Zn772   1.935   1_545 S
O270   Zn767   1.936   1_545 S
O273   C321    1.272   .     A
O274   C322    1.271   .     A
O275   C323    1.272   .     S
O276   C72     1.272   1_655 S
O277   C825    1.272   1_545 S
O278   C826    1.271   .     S
O279   C71     1.272   1_655 A
O280   C324    1.272   .     A
O281   C325    1.272   .     S
O282   C326    1.271   .     S
O283   C327    1.273   .     A
O284   C328    1.271   .     S
O285   C325    1.272   .     S
O286   C326    1.273   .     A
O287   C327    1.272   .     A
O288   C328    1.272   .     S
O289   C329    1.276   .     A
O290   C330    1.276   .     A
O291   C331    1.276   .     A
O292   C332    1.276   .     A
O293   C333    1.276   .     A
O294   C334    1.276   .     A
O295   C335    1.276   .     A
O296   C336    1.276   .     A
O297   C337    1.276   .     A
O298   C338    1.276   .     A
O299   C339    1.277   .     A
O300   C340    1.277   .     A
O301   C341    1.276   .     A
O302   C342    1.276   .     A
O303   C343    1.276   .     A
O304   C344    1.276   .     A
O305   Zn4     1.915   1_655 S
O305   C339    1.276   .     A
O306   C340    1.276   .     A
O307   Zn762   1.914   .     S
O307   C337    1.277   .     A
O308   C338    1.277   .     A
O309   C343    1.276   .     A
O310   Zn7     1.915   1_655 S
O310   C344    1.276   .     A
O311   C341    1.276   .     A
O312   C342    1.276   .     A
O312   Zn757   1.914   .     S
O313   Zn3     1.914   1_655 S
O313   C331    1.276   .     A
O314   C332    1.276   .     A
O315   C329    1.276   .     A
O316   Zn758   1.915   .     S
O316   C330    1.276   .     A
O317   C335    1.276   .     A
O318   Zn8     1.914   1_655 S
O318   C336    1.276   .     A
O319   C333    1.276   .     A
O319   Zn761   1.914   .     S
O320   C334    1.276   .     A
C321   C379    1.467   .     S
C321   O781    1.272   .     S
C322   C380    1.464   .     S
C322   O782    1.271   1_545 S
C323   C377    1.464   .     S
C324   C378    1.467   .     S
C326   C384    1.466   .     S
C327   C885    1.466   1_545 S
C328   C886    1.464   1_545 S
C329   C358    1.422   .     S
C330   C357    1.422   .     S
C331   C356    1.422   .     S
C332   C355    1.422   .     S
C333   C354    1.422   .     S
C334   C353    1.422   .     S
C335   C360    1.422   .     S
C336   C359    1.422   .     S
C337   C350    1.422   .     S
C338   C349    1.422   .     S
C339   C348    1.422   .     S
C340   C347    1.422   .     S
C341   C346    1.422   .     S
C342   C345    1.422   .     S
C343   C352    1.422   .     S
C344   C351    1.422   .     S
C345   C360    1.198   .     T
C346   C359    1.198   .     T
C347   C358    1.198   .     T
C348   C357    1.198   .     T
C349   C356    1.198   .     T
C350   C355    1.198   .     T
C351   C354    1.198   .     T
C352   C353    1.198   .     T
C361   F425    1.359   .     S
C361   C389    1.410   .     A
C361   C377    1.393   .     S
C362   C390    1.410   .     A
C362   F426    1.359   .     S
C362   C126    1.395   1_655 S
C363   F427    1.359   .     S
C363   C391    1.410   .     A
C363   C379    1.395   .     A
C364   C392    1.410   .     A
C364   C380    1.393   .     A
C364   F428    1.359   .     S
C365   F429    1.359   .     S
C365   C385    1.410   .     A
C365   C125    1.393   1_655 A
C366   F430    1.359   .     S
C366   C386    1.410   .     A
C366   C378    1.395   .     A
C367   C387    1.410   .     A
C367   F431    1.359   .     S
C367   C883    1.395   1_545 S
C368   F432    1.359   .     S
C368   C388    1.410   .     A
C368   C884    1.393   .     S
C369   C397    1.412   .     A
C369   F433    1.359   .     S
C369   C885    1.396   1_545 S
C370   F434    1.359   .     S
C370   C382    1.393   .     A
C370   C398    1.411   .     A
C371   C399    1.411   .     A
C371   C383    1.395   .     A
C371   F435    1.358   .     S
C372   F436    1.359   .     S
C372   C400    1.411   .     A
C372   C384    1.395   .     A
C373   F437    1.359   .     S
C373   C393    1.409   .     A
C373   C381    1.394   .     A
C374   F438    1.359   .     S
C374   C394    1.410   .     A
C374   C886    1.393   1_545 S
C375   C395    1.411   .     A
C375   F439    1.359   .     S
C376   F440    1.360   .     S
C376   C396    1.408   .     A
C376   C132    1.394   1_655 S
C379   C871    1.395   .     S
C380   C872    1.393   1_545 S
C381   C873    1.396   .     S
C381   C831    1.466   .     S
C382   C832    1.464   .     S
C382   C878    1.393   .     S
C383   C123    1.395   1_655 S
C383   C73     1.467   1_655 S
C385   C409    1.421   .     A
C385   C149    1.425   1_655 S
C386   C402    1.423   .     A
C386   C410    1.420   .     A
C387   C411    1.420   .     A
C387   C907    1.423   1_545 S
C388   C412    1.421   .     A
C388   C908    1.424   .     S
C389   C401    1.425   .     A
C389   C413    1.421   .     A
C390   C414    1.420   .     A
C390   C150    1.423   1_655 S
C391   C415    1.420   .     A
C391   C403    1.423   .     A
C392   C404    1.425   .     A
C392   C416    1.421   .     A
C393   C417    1.417   .     A
C393   C405    1.422   .     A
C394   C418    1.421   .     A
C394   C910    1.424   1_545 S
C395   C419    1.422   .     A
C395   C407    1.425   .     A
C396   C420    1.417   .     A
C396   C156    1.422   1_655 S
C397   C421    1.420   .     A
C397   C909    1.423   1_545 S
C398   C406    1.426   .     A
C398   C422    1.422   .     A
C399   C423    1.422   .     A
C399   C155    1.425   1_655 S
C400   C424    1.419   .     A
C400   C408    1.423   .     A
C401   C402    1.412   .     A
C403   C891    1.423   .     S
C403   C908    1.412   .     S
C404   C892    1.424   1_545 S
C404   C907    1.412   1_545 S
C405   C901    1.423   .     S
C405   C406    1.412   1_556 S
C406   C898    1.424   .     S
C406   C405    1.412   1_554 S
C407   C408    1.412   1_556 S
C408   C407    1.412   1_554 S
C409   C441    1.520   .     S
C409   C414    1.410   .     A
C410   C413    1.410   .     A
C410   C445    1.520   .     S
C411   C449    1.520   .     S
C411   C416    1.410   .     A
C412   C415    1.410   .     A
C412   C453    1.520   .     S
C413   C457    1.520   .     S
C414   C461    1.520   .     S
C415   C465    1.520   .     S
C416   C469    1.520   .     S
C417   C473    1.518   .     S
C417   C422    1.410   1_556 S
C418   C477    1.520   .     S
C418   C421    1.411   1_554 S
C419   C481    1.521   .     S
C419   C424    1.411   1_556 S
C420   C485    1.520   .     S
C420   C423    1.410   1_554 S
C421   C489    1.520   .     S
C421   C418    1.411   1_556 S
C422   C493    1.520   .     S
C422   C417    1.410   1_554 S
C423   C497    1.519   .     S
C423   C420    1.410   1_556 S
C424   C501    1.519   .     S
C424   C419    1.411   1_554 S
C441   H443    1.110   .     S
C441   H444    1.109   .     S
C441   H442    1.110   .     S
C445   H447    1.110   .     S
C445   H448    1.109   .     S
C445   H446    1.110   .     S
C449   H451    1.110   .     S
C449   H452    1.110   .     S
C449   H450    1.109   .     S
C453   H454    1.110   .     S
C453   H455    1.110   .     S
C453   H456    1.109   .     S
C457   H458    1.110   .     S
C457   H460    1.109   .     S
C457   H459    1.110   .     S
C461   H464    1.109   .     S
C461   H462    1.110   .     S
C461   H463    1.110   .     S
C465   H466    1.110   .     S
C465   H468    1.109   .     S
C465   H467    1.110   .     S
C469   H472    1.109   .     S
C469   H470    1.110   .     S
C469   H471    1.110   .     S
C473   H474    1.110   .     S
C473   H476    1.109   .     S
C473   H475    1.110   .     S
C477   H479    1.110   .     S
C477   H480    1.110   .     S
C477   H478    1.110   .     S
C481   H483    1.110   .     S
C481   H484    1.110   .     S
C481   H482    1.109   .     S
C485   H486    1.110   .     S
C485   H487    1.110   .     S
C485   H488    1.110   .     S
C489   H490    1.110   .     S
C489   H491    1.110   .     S
C489   H492    1.108   .     S
C493   H494    1.110   .     S
C493   H495    1.110   .     S
C493   H496    1.109   .     S
C497   H500    1.110   .     S
C497   H499    1.107   .     S
C497   H498    1.110   .     S
C501   H502    1.110   .     S
C501   H503    1.110   .     S
C501   H504    1.108   .     S
Zn505  O567    1.915   .     S
Zn505  O521    1.936   .     S
Zn505  O536    1.952   .     S
Zn506  O522    1.936   .     S
Zn506  O535    1.952   .     S
Zn506  O563    1.914   .     S
Zn507  O523    1.936   .     S
Zn507  O817    1.914   1_455 S
Zn507  O538    1.952   .     S
Zn507  O558    1.915   .     S
Zn508  O809    1.915   1_455 S
Zn508  O537    1.952   .     S
Zn508  O524    1.936   .     S
Zn508  O566    1.914   .     S
Zn509  O560    1.914   .     S
Zn509  O521    1.936   .     S
Zn509  O540    1.952   .     S
Zn510  O522    1.936   .     S
Zn510  O539    1.952   .     S
Zn510  O572    1.914   .     S
Zn511  O814    1.915   1_455 S
Zn511  O534    1.952   .     S
Zn511  O523    1.935   .     S
Zn511  O569    1.914   .     S
Zn512  O822    1.914   1_455 S
Zn512  O533    1.952   .     S
Zn512  O524    1.935   .     S
Zn512  O561    1.915   .     S
Zn513  O776    1.936   .     S
Zn513  O548    1.914   .     S
Zn513  O528    1.952   .     S
Zn513  O551    1.915   .     S
Zn514  O552    1.915   .     S
Zn514  O547    1.914   .     S
Zn514  O527    1.952   .     S
Zn514  O523    1.936   .     S
Zn515  O18     1.936   1_565 S
Zn515  O530    1.952   .     S
Zn515  O549    1.914   .     S
Zn515  O542    1.915   .     S
Zn516  O541    1.915   .     S
Zn516  O521    1.936   .     S
Zn516  O550    1.914   .     S
Zn516  O529    1.952   .     S
Zn517  O544    1.914   .     S
Zn517  O555    1.914   .     S
Zn517  O532    1.952   .     S
Zn517  O524    1.936   .     S
Zn518  O543    1.914   .     S
Zn518  O556    1.914   .     S
Zn518  O531    1.952   .     S
Zn518  O775    1.936   .     S
Zn519  O526    1.952   .     S
Zn519  O546    1.915   .     S
Zn519  O553    1.914   .     S
Zn519  O522    1.935   .     S
Zn520  O525    1.952   .     S
Zn520  O554    1.914   .     S
Zn520  O545    1.915   .     S
Zn520  O17     1.935   1_565 S
O523   Zn770   1.936   1_455 S
O524   Zn765   1.936   1_455 S
O525   C573    1.272   .     A
O526   C574    1.271   .     A
O527   C575    1.272   .     S
O528   C828    1.272   .     S
O530   C70     1.271   1_565 S
O531   C827    1.272   .     A
O532   C576    1.272   .     A
O533   C577    1.272   .     S
O534   C578    1.271   .     S
O535   C579    1.273   .     A
O536   C580    1.271   .     S
O537   C577    1.272   .     S
O538   C578    1.273   .     A
O539   C579    1.272   .     A
O540   C580    1.272   .     S
O541   C581    1.276   .     A
O542   C582    1.276   .     A
O543   C583    1.276   .     A
O544   C584    1.276   .     A
O545   C585    1.276   .     A
O546   C586    1.276   .     A
O547   C587    1.276   .     A
O548   C588    1.276   .     A
O549   C589    1.276   .     A
O550   C590    1.276   .     A
O551   C591    1.277   .     A
O552   C592    1.277   .     A
O553   C593    1.276   .     A
O554   C594    1.276   .     A
O555   C595    1.276   .     A
O556   C596    1.276   .     A
O557   Zn760   1.915   .     S
O557   C591    1.276   .     A
O558   C592    1.276   .     A
O559   Zn6     1.914   1_565 S
O559   C589    1.277   .     A
O560   C590    1.277   .     A
O561   C595    1.276   .     A
O562   Zn763   1.915   .     S
O562   C596    1.276   .     A
O563   C593    1.276   .     A
O564   C594    1.276   .     A
O564   Zn1     1.914   1_565 S
O565   Zn759   1.914   .     S
O565   C583    1.276   .     A
O566   C584    1.276   .     A
O567   C581    1.276   .     A
O568   Zn2     1.915   1_565 S
O568   C582    1.276   .     A
O569   C587    1.276   .     A
O570   Zn764   1.914   .     S
O570   C588    1.276   .     A
O571   C585    1.276   .     A
O571   Zn5     1.914   1_565 S
O572   C586    1.276   .     A
C573   C631    1.467   .     S
C573   O25     1.272   1_565 S
C574   C632    1.464   .     S
C575   O783    1.272   1_455 A
C575   C629    1.464   .     S
C576   C630    1.467   .     S
C576   O780    1.272   1_455 S
C577   C887    1.467   1_455 S
C578   C636    1.466   .     S
C581   C610    1.422   .     S
C582   C609    1.422   .     S
C583   C608    1.422   .     S
C584   C607    1.422   .     S
C585   C606    1.422   .     S
C586   C605    1.422   .     S
C587   C612    1.422   .     S
C588   C611    1.422   .     S
C589   C602    1.422   .     S
C590   C601    1.422   .     S
C591   C600    1.422   .     S
C592   C599    1.422   .     S
C593   C598    1.422   .     S
C594   C597    1.422   .     S
C595   C604    1.422   .     S
C596   C603    1.422   .     S
C597   C612    1.198   .     T
C598   C611    1.198   .     T
C599   C610    1.198   .     T
C600   C609    1.198   .     T
C601   C608    1.198   .     T
C602   C607    1.198   .     T
C603   C606    1.198   .     T
C604   C605    1.198   .     T
C613   F677    1.359   .     S
C613   C641    1.410   .     A
C613   C629    1.393   .     S
C614   C642    1.410   .     A
C614   F678    1.359   .     S
C614   C882    1.395   .     S
C615   F679    1.359   .     S
C615   C643    1.410   .     A
C615   C631    1.395   .     A
C616   C644    1.410   .     A
C616   C632    1.393   .     A
C616   F680    1.359   .     S
C617   F681    1.359   .     S
C617   C637    1.410   .     A
C617   C881    1.393   .     A
C618   F682    1.359   .     S
C618   C638    1.410   .     A
C618   C630    1.395   .     A
C619   C639    1.410   .     A
C619   F683    1.359   .     S
C620   F684    1.359   .     S
C620   C640    1.410   .     A
C620   C128    1.393   1_565 S
C621   C649    1.412   .     A
C621   F685    1.359   .     S
C622   F686    1.359   .     S
C622   C634    1.393   .     A
C622   C650    1.411   .     A
C623   C651    1.411   .     A
C623   C635    1.395   .     A
C623   F687    1.358   .     S
C624   F688    1.359   .     S
C624   C652    1.411   .     A
C624   C636    1.395   .     A
C625   F689    1.359   .     S
C625   C645    1.409   .     A
C625   C633    1.394   .     A
C626   F690    1.359   .     S
C626   C646    1.410   .     A
C627   C647    1.411   .     A
C627   F691    1.359   .     S
C627   C887    1.395   1_455 S
C628   F692    1.360   .     S
C628   C648    1.408   .     A
C628   C888    1.394   .     S
C629   C869    1.393   1_455 A
C630   C866    1.395   1_455 S
C631   C115    1.395   1_565 S
C633   C117    1.396   1_565 S
C633   C75     1.466   1_565 S
C634   C76     1.464   1_565 S
C634   C122    1.393   1_565 S
C635   C879    1.395   .     S
C635   C829    1.467   .     S
C636   C880    1.394   1_455 S
C637   C661    1.421   .     A
C637   C905    1.425   .     S
C638   C654    1.423   .     A
C638   C662    1.420   .     A
C639   C663    1.420   .     A
C640   C664    1.421   .     A
C640   C152    1.424   1_565 S
C641   C653    1.425   .     A
C641   C665    1.421   .     A
C642   C666    1.420   .     A
C642   C906    1.423   .     S
C643   C667    1.420   .     A
C643   C655    1.423   .     A
C644   C656    1.425   .     A
C644   C668    1.421   .     A
C645   C669    1.417   .     A
C645   C657    1.422   .     A
C646   C670    1.421   .     A
C647   C671    1.422   .     A
C647   C659    1.425   .     A
C648   C672    1.417   .     A
C648   C912    1.422   .     S
C649   C673    1.420   .     A
C650   C658    1.426   .     A
C650   C674    1.422   .     A
C651   C675    1.422   .     A
C651   C911    1.425   .     S
C652   C676    1.419   .     A
C652   C660    1.423   .     A
C653   C654    1.412   .     A
C653   C889    1.425   1_455 S
C654   C894    1.423   1_455 S
C655   C135    1.423   1_565 S
C655   C152    1.412   1_565 S
C657   C145    1.423   1_565 S
C657   C658    1.412   1_556 S
C658   C142    1.424   1_565 S
C658   C657    1.412   1_554 S
C659   C903    1.425   1_455 S
C659   C660    1.412   1_556 S
C660   C900    1.422   1_455 S
C660   C659    1.412   1_554 S
C661   C693    1.520   .     S
C661   C666    1.410   .     A
C662   C665    1.410   .     A
C662   C697    1.520   .     S
C663   C701    1.520   .     S
C663   C668    1.410   .     A
C664   C667    1.410   .     A
C664   C705    1.520   .     S
C665   C709    1.520   .     S
C666   C713    1.520   .     S
C667   C717    1.520   .     S
C668   C721    1.520   .     S
C669   C725    1.518   .     S
C669   C674    1.410   1_556 S
C670   C729    1.520   .     S
C670   C673    1.411   1_554 S
C671   C733    1.521   .     S
C671   C676    1.411   1_556 S
C672   C737    1.520   .     S
C672   C675    1.410   1_554 S
C673   C741    1.520   .     S
C673   C670    1.411   1_556 S
C674   C745    1.520   .     S
C674   C669    1.410   1_554 S
C675   C749    1.519   .     S
C675   C672    1.410   1_556 S
C676   C753    1.519   .     S
C676   C671    1.411   1_554 S
C693   H695    1.110   .     S
C693   H696    1.109   .     S
C693   H694    1.110   .     S
C697   H699    1.110   .     S
C697   H700    1.109   .     S
C697   H698    1.110   .     S
C701   H703    1.110   .     S
C701   H704    1.110   .     S
C701   H702    1.109   .     S
C705   H706    1.110   .     S
C705   H707    1.110   .     S
C705   H708    1.109   .     S
C709   H710    1.110   .     S
C709   H712    1.109   .     S
C709   H711    1.110   .     S
C713   H716    1.109   .     S
C713   H714    1.110   .     S
C713   H715    1.110   .     S
C717   H718    1.110   .     S
C717   H720    1.109   .     S
C717   H719    1.110   .     S
C721   H724    1.109   .     S
C721   H722    1.110   .     S
C721   H723    1.110   .     S
C725   H726    1.110   .     S
C725   H728    1.109   .     S
C725   H727    1.110   .     S
C729   H731    1.110   .     S
C729   H732    1.110   .     S
C729   H730    1.110   .     S
C733   H735    1.110   .     S
C733   H736    1.110   .     S
C733   H734    1.109   .     S
C737   H738    1.110   .     S
C737   H739    1.110   .     S
C737   H740    1.110   .     S
C741   H742    1.110   .     S
C741   H743    1.110   .     S
C741   H744    1.108   .     S
C745   H746    1.110   .     S
C745   H747    1.110   .     S
C745   H748    1.109   .     S
C749   H752    1.110   .     S
C749   H751    1.107   .     S
C749   H750    1.110   .     S
C753   H754    1.110   .     S
C753   H755    1.110   .     S
C753   H756    1.108   .     S
Zn757  O819    1.915   .     S
Zn757  O773    1.936   .     S
Zn757  O788    1.952   .     S
Zn758  O774    1.936   .     S
Zn758  O787    1.952   .     S
Zn758  O815    1.914   .     S
Zn759  O775    1.936   .     S
Zn759  O790    1.952   .     S
Zn759  O810    1.915   .     S
Zn760  O789    1.952   .     S
Zn760  O776    1.936   .     S
Zn760  O818    1.914   .     S
Zn761  O812    1.914   .     S
Zn761  O773    1.936   .     S
Zn761  O792    1.952   .     S
Zn762  O774    1.936   .     S
Zn762  O791    1.952   .     S
Zn762  O824    1.914   .     S
Zn763  O786    1.952   .     S
Zn763  O775    1.935   .     S
Zn763  O821    1.914   .     S
Zn764  O785    1.952   .     S
Zn764  O776    1.935   .     S
Zn764  O813    1.915   .     S
Zn765  O524    1.936   1_655 S
Zn765  O800    1.914   .     S
Zn765  O780    1.952   .     S
Zn765  O803    1.915   .     S
Zn766  O804    1.915   .     S
Zn766  O799    1.914   .     S
Zn766  O779    1.952   .     S
Zn766  O775    1.936   .     S
Zn767  O270    1.936   1_565 S
Zn767  O782    1.952   .     S
Zn767  O801    1.914   .     S
Zn767  O794    1.915   .     S
Zn768  O793    1.915   .     S
Zn768  O773    1.936   .     S
Zn768  O802    1.914   .     S
Zn768  O781    1.952   .     S
Zn769  O796    1.914   .     S
Zn769  O807    1.914   .     S
Zn769  O784    1.952   .     S
Zn769  O776    1.936   .     S
Zn770  O795    1.914   .     S
Zn770  O808    1.914   .     S
Zn770  O783    1.952   .     S
Zn770  O523    1.936   1_655 S
Zn771  O778    1.952   .     S
Zn771  O798    1.915   .     S
Zn771  O805    1.914   .     S
Zn771  O774    1.935   .     S
Zn772  O777    1.952   .     S
Zn772  O806    1.914   .     S
Zn772  O797    1.915   .     S
Zn772  O269    1.935   1_565 S
O777   C825    1.272   .     A
O778   C826    1.271   .     A
O779   C827    1.272   .     S
O780   C576    1.272   1_655 S
O782   C322    1.271   1_565 S
O783   C575    1.272   1_655 A
O784   C828    1.272   .     A
O785   C829    1.272   .     S
O786   C830    1.271   .     S
O787   C831    1.273   .     A
O788   C832    1.271   .     S
O789   C829    1.272   .     S
O790   C830    1.273   .     A
O791   C831    1.272   .     A
O792   C832    1.272   .     S
O793   C833    1.276   .     A
O794   C834    1.276   .     A
O795   C835    1.276   .     A
O796   C836    1.276   .     A
O797   C837    1.276   .     A
O798   C838    1.276   .     A
O799   C839    1.276   .     A
O800   C840    1.276   .     A
O801   C841    1.276   .     A
O802   C842    1.276   .     A
O803   C843    1.277   .     A
O804   C844    1.277   .     A
O805   C845    1.276   .     A
O806   C846    1.276   .     A
O807   C847    1.276   .     A
O808   C848    1.276   .     A
O809   Zn508   1.915   1_655 S
O809   C843    1.276   .     A
O810   C844    1.276   .     A
O811   Zn258   1.914   1_565 S
O811   C841    1.277   .     A
O812   C842    1.277   .     A
O813   C847    1.276   .     A
O814   Zn511   1.915   1_655 S
O814   C848    1.276   .     A
O815   C845    1.276   .     A
O816   C846    1.276   .     A
O816   Zn253   1.914   1_565 S
O817   Zn507   1.914   1_655 S
O817   C835    1.276   .     A
O818   C836    1.276   .     A
O819   C833    1.276   .     A
O820   Zn254   1.915   1_565 S
O820   C834    1.276   .     A
O821   C839    1.276   .     A
O822   Zn512   1.914   1_655 S
O822   C840    1.276   .     A
O823   C837    1.276   .     A
O823   Zn257   1.914   1_565 S
O824   C838    1.276   .     A
C825   C883    1.467   .     S
C825   O277    1.272   1_565 S
C826   C884    1.464   .     S
C827   C881    1.464   .     S
C828   C882    1.467   .     S
C830   C888    1.466   .     S
C833   C862    1.422   .     S
C834   C861    1.422   .     S
C835   C860    1.422   .     S
C836   C859    1.422   .     S
C837   C858    1.422   .     S
C838   C857    1.422   .     S
C839   C864    1.422   .     S
C840   C863    1.422   .     S
C841   C854    1.422   .     S
C842   C853    1.422   .     S
C843   C852    1.422   .     S
C844   C851    1.422   .     S
C845   C850    1.422   .     S
C846   C849    1.422   .     S
C847   C856    1.422   .     S
C848   C855    1.422   .     S
C849   C864    1.198   .     T
C850   C863    1.198   .     T
C851   C862    1.198   .     T
C852   C861    1.198   .     T
C853   C860    1.198   .     T
C854   C859    1.198   .     T
C855   C858    1.198   .     T
C856   C857    1.198   .     T
C865   F929    1.359   .     S
C865   C893    1.410   .     A
C865   C881    1.393   .     S
C866   C894    1.410   .     A
C866   F930    1.359   .     S
C866   C630    1.395   1_655 S
C867   F931    1.359   .     S
C867   C895    1.410   .     A
C867   C883    1.395   .     A
C868   C896    1.410   .     A
C868   C884    1.393   .     A
C868   F932    1.359   .     S
C869   F933    1.359   .     S
C869   C889    1.410   .     A
C869   C629    1.393   1_655 A
C870   F934    1.359   .     S
C870   C890    1.410   .     A
C870   C882    1.395   .     A
C871   C891    1.410   .     A
C871   F935    1.359   .     S
C872   F936    1.359   .     S
C872   C892    1.410   .     A
C872   C380    1.393   1_565 S
C873   C901    1.412   .     A
C873   F937    1.359   .     S
C874   F938    1.359   .     S
C874   C886    1.393   .     A
C874   C902    1.411   .     A
C875   C903    1.411   .     A
C875   C887    1.395   .     A
C875   F939    1.358   .     S
C876   F940    1.359   .     S
C876   C904    1.411   .     A
C876   C888    1.395   .     A
C877   F941    1.359   .     S
C877   C897    1.409   .     A
C877   C885    1.394   .     A
C878   F942    1.359   .     S
C878   C898    1.410   .     A
C879   C899    1.411   .     A
C879   F943    1.359   .     S
C880   F944    1.360   .     S
C880   C900    1.408   .     A
C880   C636    1.394   1_655 S
C883   C367    1.395   1_565 S
C885   C369    1.396   1_565 S
C885   C327    1.466   1_565 S
C886   C328    1.464   1_565 S
C886   C374    1.393   1_565 S
C887   C627    1.395   1_655 S
C887   C577    1.467   1_655 S
C889   C913    1.421   .     A
C889   C653    1.425   1_655 S
C890   C906    1.423   .     A
C890   C914    1.420   .     A
C891   C915    1.420   .     A
C892   C916    1.421   .     A
C892   C404    1.424   1_565 S
C893   C905    1.425   .     A
C893   C917    1.421   .     A
C894   C918    1.420   .     A
C894   C654    1.423   1_655 S
C895   C919    1.420   .     A
C895   C907    1.423   .     A
C896   C908    1.425   .     A
C896   C920    1.421   .     A
C897   C921    1.417   .     A
C897   C909    1.422   .     A
C898   C922    1.421   .     A
C899   C923    1.422   .     A
C899   C911    1.425   .     A
C900   C924    1.417   .     A
C900   C660    1.422   1_655 S
C901   C925    1.420   .     A
C902   C910    1.426   .     A
C902   C926    1.422   .     A
C903   C927    1.422   .     A
C903   C659    1.425   1_655 S
C904   C928    1.419   .     A
C904   C912    1.423   .     A
C905   C906    1.412   .     A
C907   C387    1.423   1_565 S
C907   C404    1.412   1_565 S
C909   C397    1.423   1_565 S
C909   C910    1.412   1_556 S
C910   C394    1.424   1_565 S
C910   C909    1.412   1_554 S
C911   C912    1.412   1_556 S
C912   C911    1.412   1_554 S
C913   C945    1.520   .     S
C913   C918    1.410   .     A
C914   C917    1.410   .     A
C914   C949    1.520   .     S
C915   C953    1.520   .     S
C915   C920    1.410   .     A
C916   C919    1.410   .     A
C916   C957    1.520   .     S
C917   C961    1.520   .     S
C918   C965    1.520   .     S
C919   C969    1.520   .     S
C920   C973    1.520   .     S
C921   C977    1.518   .     S
C921   C926    1.410   1_556 S
C922   C981    1.520   .     S
C922   C925    1.411   1_554 S
C923   C985    1.521   .     S
C923   C928    1.411   1_556 S
C924   C989    1.520   .     S
C924   C927    1.410   1_554 S
C925   C993    1.520   .     S
C925   C922    1.411   1_556 S
C926   C997    1.520   .     S
C926   C921    1.410   1_554 S
C927   C1001   1.519   .     S
C927   C924    1.410   1_556 S
C928   C1005   1.519   .     S
C928   C923    1.411   1_554 S
C945   H947    1.110   .     S
C945   H948    1.109   .     S
C945   H946    1.110   .     S
C949   H951    1.110   .     S
C949   H952    1.109   .     S
C949   H950    1.110   .     S
C953   H955    1.110   .     S
C953   H956    1.110   .     S
C953   H954    1.109   .     S
C957   H958    1.110   .     S
C957   H959    1.110   .     S
C957   H960    1.109   .     S
C961   H962    1.110   .     S
C961   H964    1.109   .     S
C961   H963    1.110   .     S
C965   H968    1.109   .     S
C965   H966    1.110   .     S
C965   H967    1.110   .     S
C969   H970    1.110   .     S
C969   H972    1.109   .     S
C969   H971    1.110   .     S
C973   H976    1.109   .     S
C973   H974    1.110   .     S
C973   H975    1.110   .     S
C977   H978    1.110   .     S
C977   H980    1.109   .     S
C977   H979    1.110   .     S
C981   H983    1.110   .     S
C981   H984    1.110   .     S
C981   H982    1.110   .     S
C985   H987    1.110   .     S
C985   H988    1.110   .     S
C985   H986    1.109   .     S
C989   H990    1.110   .     S
C989   H991    1.110   .     S
C989   H992    1.110   .     S
C993   H994    1.110   .     S
C993   H995    1.110   .     S
C993   H996    1.108   .     S
C997   H998    1.110   .     S
C997   H999    1.110   .     S
C997   H1000   1.109   .     S
C1001  H1004   1.110   .     S
C1001  H1003   1.107   .     S
C1001  H1002   1.110   .     S
C1005  H1006   1.110   .     S
C1005  H1007   1.110   .     S
C1005  H1008   1.108   .     S
