data_str_m3_o1_o10_pcu_sym.141
_audit_creation_date              2020-01-03
_audit_creation_method            'Materials Studio'
_symmetry_space_group_name_H-M    'P1'
_symmetry_Int_Tables_number       1
_symmetry_cell_setting            triclinic
loop_
_symmetry_equiv_pos_as_xyz
  x,y,z
_cell_length_a                    25.7723
_cell_length_b                    31.9901
_cell_length_c                    29.5697
_cell_angle_alpha                 90.3167
_cell_angle_beta                  98.6513
_cell_angle_gamma                 89.9622
loop_
_atom_site_label
_atom_site_type_symbol
_atom_site_fract_x
_atom_site_fract_y
_atom_site_fract_z
_atom_site_U_iso_or_equiv
_atom_site_adp_type
_atom_site_occupancy
O1     O     0.16666   0.10558   0.20487   0.00000  Uiso   1.00
O2     O     0.16667   0.22775   0.12846   0.00000  Uiso   1.00
O3     O     0.16666   0.10559   0.12843   0.00000  Uiso   1.00
O4     O     0.16667   0.22774   0.20490   0.00000  Uiso   1.00
C5     C     0.16827   0.08674   0.16672   0.00000  Uiso   1.00
C6     C     0.16507   0.24659   0.16661   0.00000  Uiso   1.00
O7     O     0.09058   0.16666   0.19595   0.00000  Uiso   1.00
O8     O     0.24275   0.16667   0.13739   0.00000  Uiso   1.00
O9     O     0.09058   0.16667   0.11950   0.00000  Uiso   1.00
O10    O     0.24275   0.16666   0.21383   0.00000  Uiso   1.00
C11    C     0.06704   0.16657   0.15470   0.00000  Uiso   1.00
C12    C     0.26629   0.16676   0.17864   0.00000  Uiso   1.00
Zn13   Zn    0.16667   0.16666   0.21771   0.00000  Uiso   1.00
Zn14   Zn    0.16667   0.16667   0.11563   0.00000  Uiso   1.00
N15    N     0.16665   0.16666   0.28573   0.00000  Uiso   1.00
N16    N     0.16668   0.16668   0.04760   0.00000  Uiso   1.00
C17    C     0.01199   0.16667   0.14826   0.00000  Uiso   1.00
C18    C     0.32134   0.16666   0.18507   0.00000  Uiso   1.00
H19    H     0.32469   0.16682   0.11334   0.00000  Uiso   1.00
H20    H     0.00864   0.16651   0.21999   0.00000  Uiso   1.00
C21    C     0.13577   0.02226   0.13203   0.00000  Uiso   1.00
C22    C     0.19756   0.31107   0.20130   0.00000  Uiso   1.00
C23    C     0.13176   0.31267   0.13218   0.00000  Uiso   1.00
C24    C     0.20158   0.02067   0.20115   0.00000  Uiso   1.00
C25    C     0.16364   0.29075   0.16692   0.00000  Uiso   1.00
C26    C     0.16969   0.04258   0.16641   0.00000  Uiso   1.00
C27    C     0.19887   0.19295   0.02833   0.00000  Uiso   1.00
C28    C     0.13447   0.14038   0.30500   0.00000  Uiso   1.00
H29    H     0.22464   0.21398   0.04995   0.00000  Uiso   1.00
H30    H     0.10870   0.11935   0.28339   0.00000  Uiso   1.00
C31    C     0.19885   0.19295   0.31373   0.00000  Uiso   1.00
C32    C     0.13449   0.14039   0.01960   0.00000  Uiso   1.00
H33    H     0.22459   0.21398   0.29909   0.00000  Uiso   1.00
H34    H     0.10874   0.11936   0.03425   0.00000  Uiso   1.00
H35    H     0.11069   0.04004   0.10629   0.00000  Uiso   1.00
H36    H     0.22265   0.29329   0.22705   0.00000  Uiso   1.00
N37    N     0.09401   0.29216   0.09848   0.00000  Uiso   1.00
O38    O     0.06519   0.26192   0.11033   0.00000  Uiso   1.00
O39    O     0.08295   0.30757   0.05752   0.00000  Uiso   1.00
N40    N     0.23934   0.04117   0.23485   0.00000  Uiso   1.00
O41    O     0.26814   0.07142   0.22300   0.00000  Uiso   1.00
O42    O     0.25042   0.02576   0.27580   0.00000  Uiso   1.00
O43    O     0.50000   0.10558   0.20487   0.00000  Uiso   1.00
O44    O     0.50000   0.22775   0.12846   0.00000  Uiso   1.00
O45    O     0.50000   0.10559   0.12843   0.00000  Uiso   1.00
O46    O     0.50000   0.22774   0.20490   0.00000  Uiso   1.00
C47    C     0.50160   0.08674   0.16672   0.00000  Uiso   1.00
C48    C     0.49840   0.24659   0.16661   0.00000  Uiso   1.00
O49    O     0.42392   0.16666   0.19595   0.00000  Uiso   1.00
O50    O     0.57608   0.16667   0.13739   0.00000  Uiso   1.00
O51    O     0.42392   0.16667   0.11950   0.00000  Uiso   1.00
O52    O     0.57608   0.16666   0.21383   0.00000  Uiso   1.00
C53    C     0.40037   0.16657   0.15470   0.00000  Uiso   1.00
C54    C     0.59963   0.16676   0.17864   0.00000  Uiso   1.00
Zn55   Zn    0.50000   0.16666   0.21771   0.00000  Uiso   1.00
Zn56   Zn    0.50000   0.16667   0.11563   0.00000  Uiso   1.00
N57    N     0.49999   0.16666   0.28573   0.00000  Uiso   1.00
N58    N     0.50001   0.16668   0.04760   0.00000  Uiso   1.00
C59    C     0.34533   0.16667   0.14826   0.00000  Uiso   1.00
C60    C     0.65467   0.16666   0.18507   0.00000  Uiso   1.00
H61    H     0.65803   0.16682   0.11334   0.00000  Uiso   1.00
H62    H     0.34197   0.16651   0.21999   0.00000  Uiso   1.00
C63    C     0.46911   0.02226   0.13203   0.00000  Uiso   1.00
C64    C     0.53090   0.31107   0.20130   0.00000  Uiso   1.00
C65    C     0.46510   0.31267   0.13218   0.00000  Uiso   1.00
C66    C     0.53491   0.02067   0.20115   0.00000  Uiso   1.00
C67    C     0.49698   0.29075   0.16692   0.00000  Uiso   1.00
C68    C     0.50303   0.04258   0.16641   0.00000  Uiso   1.00
C69    C     0.53220   0.19295   0.02833   0.00000  Uiso   1.00
C70    C     0.46780   0.14038   0.30500   0.00000  Uiso   1.00
H71    H     0.55797   0.21398   0.04995   0.00000  Uiso   1.00
H72    H     0.44203   0.11935   0.28339   0.00000  Uiso   1.00
C73    C     0.53218   0.19295   0.31373   0.00000  Uiso   1.00
C74    C     0.46782   0.14039   0.01960   0.00000  Uiso   1.00
H75    H     0.55792   0.21398   0.29909   0.00000  Uiso   1.00
H76    H     0.44208   0.11936   0.03425   0.00000  Uiso   1.00
H77    H     0.44402   0.04004   0.10629   0.00000  Uiso   1.00
H78    H     0.55598   0.29329   0.22705   0.00000  Uiso   1.00
N79    N     0.42734   0.29216   0.09848   0.00000  Uiso   1.00
O80    O     0.39852   0.26192   0.11033   0.00000  Uiso   1.00
O81    O     0.41628   0.30757   0.05752   0.00000  Uiso   1.00
N82    N     0.57267   0.04117   0.23485   0.00000  Uiso   1.00
O83    O     0.60147   0.07142   0.22300   0.00000  Uiso   1.00
O84    O     0.58375   0.02576   0.27580   0.00000  Uiso   1.00
O85    O     0.83333   0.10558   0.20487   0.00000  Uiso   1.00
O86    O     0.83334   0.22775   0.12846   0.00000  Uiso   1.00
O87    O     0.83333   0.10559   0.12843   0.00000  Uiso   1.00
O88    O     0.83334   0.22774   0.20490   0.00000  Uiso   1.00
C89    C     0.83493   0.08674   0.16672   0.00000  Uiso   1.00
C90    C     0.83173   0.24659   0.16661   0.00000  Uiso   1.00
O91    O     0.75725   0.16666   0.19595   0.00000  Uiso   1.00
O92    O     0.90942   0.16667   0.13739   0.00000  Uiso   1.00
O93    O     0.75725   0.16667   0.11950   0.00000  Uiso   1.00
O94    O     0.90942   0.16666   0.21383   0.00000  Uiso   1.00
C95    C     0.73371   0.16657   0.15470   0.00000  Uiso   1.00
C96    C     0.93296   0.16676   0.17864   0.00000  Uiso   1.00
Zn97   Zn    0.83333   0.16666   0.21771   0.00000  Uiso   1.00
Zn98   Zn    0.83333   0.16667   0.11563   0.00000  Uiso   1.00
N99    N     0.83332   0.16666   0.28573   0.00000  Uiso   1.00
N100   N     0.83335   0.16668   0.04760   0.00000  Uiso   1.00
C101   C     0.67866   0.16667   0.14826   0.00000  Uiso   1.00
C102   C     0.98801   0.16666   0.18507   0.00000  Uiso   1.00
H103   H     0.99136   0.16682   0.11334   0.00000  Uiso   1.00
H104   H     0.67531   0.16651   0.21999   0.00000  Uiso   1.00
C105   C     0.80244   0.02226   0.13203   0.00000  Uiso   1.00
C106   C     0.86423   0.31107   0.20130   0.00000  Uiso   1.00
C107   C     0.79843   0.31267   0.13218   0.00000  Uiso   1.00
C108   C     0.86824   0.02067   0.20115   0.00000  Uiso   1.00
C109   C     0.83031   0.29075   0.16692   0.00000  Uiso   1.00
C110   C     0.83636   0.04258   0.16641   0.00000  Uiso   1.00
C111   C     0.86553   0.19295   0.02833   0.00000  Uiso   1.00
C112   C     0.80113   0.14038   0.30500   0.00000  Uiso   1.00
H113   H     0.89131   0.21398   0.04995   0.00000  Uiso   1.00
H114   H     0.77536   0.11935   0.28339   0.00000  Uiso   1.00
C115   C     0.86551   0.19295   0.31373   0.00000  Uiso   1.00
C116   C     0.80115   0.14039   0.01960   0.00000  Uiso   1.00
H117   H     0.89126   0.21398   0.29909   0.00000  Uiso   1.00
H118   H     0.77541   0.11936   0.03425   0.00000  Uiso   1.00
H119   H     0.77736   0.04004   0.10629   0.00000  Uiso   1.00
H120   H     0.88931   0.29329   0.22705   0.00000  Uiso   1.00
N121   N     0.76067   0.29216   0.09848   0.00000  Uiso   1.00
O122   O     0.73186   0.26192   0.11033   0.00000  Uiso   1.00
O123   O     0.74961   0.30757   0.05752   0.00000  Uiso   1.00
N124   N     0.90601   0.04117   0.23485   0.00000  Uiso   1.00
O125   O     0.93481   0.07142   0.22300   0.00000  Uiso   1.00
O126   O     0.91709   0.02576   0.27580   0.00000  Uiso   1.00
O127   O     0.16666   0.43892   0.20487   0.00000  Uiso   1.00
O128   O     0.16667   0.56108   0.12846   0.00000  Uiso   1.00
O129   O     0.16666   0.43893   0.12843   0.00000  Uiso   1.00
O130   O     0.16667   0.56107   0.20490   0.00000  Uiso   1.00
C131   C     0.16827   0.42008   0.16672   0.00000  Uiso   1.00
C132   C     0.16507   0.57992   0.16661   0.00000  Uiso   1.00
O133   O     0.09058   0.50000   0.19595   0.00000  Uiso   1.00
O134   O     0.24275   0.50000   0.13739   0.00000  Uiso   1.00
O135   O     0.09058   0.50000   0.11950   0.00000  Uiso   1.00
O136   O     0.24275   0.50000   0.21383   0.00000  Uiso   1.00
C137   C     0.06704   0.49991   0.15470   0.00000  Uiso   1.00
C138   C     0.26629   0.50009   0.17864   0.00000  Uiso   1.00
Zn139  Zn    0.16667   0.49999   0.21771   0.00000  Uiso   1.00
Zn140  Zn    0.16667   0.50001   0.11563   0.00000  Uiso   1.00
N141   N     0.16665   0.49999   0.28573   0.00000  Uiso   1.00
N142   N     0.16668   0.50001   0.04760   0.00000  Uiso   1.00
C143   C     0.01199   0.50001   0.14826   0.00000  Uiso   1.00
C144   C     0.32134   0.49999   0.18507   0.00000  Uiso   1.00
H145   H     0.32469   0.50016   0.11334   0.00000  Uiso   1.00
H146   H     0.00864   0.49984   0.21999   0.00000  Uiso   1.00
C147   C     0.13577   0.35560   0.13203   0.00000  Uiso   1.00
C148   C     0.19756   0.64440   0.20130   0.00000  Uiso   1.00
C149   C     0.13176   0.64600   0.13218   0.00000  Uiso   1.00
C150   C     0.20158   0.35400   0.20115   0.00000  Uiso   1.00
C151   C     0.16364   0.62408   0.16692   0.00000  Uiso   1.00
C152   C     0.16969   0.37592   0.16641   0.00000  Uiso   1.00
C153   C     0.19887   0.52629   0.02833   0.00000  Uiso   1.00
C154   C     0.13447   0.47371   0.30500   0.00000  Uiso   1.00
H155   H     0.22464   0.54731   0.04995   0.00000  Uiso   1.00
H156   H     0.10870   0.45269   0.28339   0.00000  Uiso   1.00
C157   C     0.19885   0.52628   0.31373   0.00000  Uiso   1.00
C158   C     0.13449   0.47372   0.01960   0.00000  Uiso   1.00
H159   H     0.22459   0.54731   0.29909   0.00000  Uiso   1.00
H160   H     0.10874   0.45269   0.03425   0.00000  Uiso   1.00
H161   H     0.11069   0.37338   0.10629   0.00000  Uiso   1.00
H162   H     0.22265   0.62662   0.22705   0.00000  Uiso   1.00
N163   N     0.09401   0.62550   0.09848   0.00000  Uiso   1.00
O164   O     0.06519   0.59525   0.11033   0.00000  Uiso   1.00
O165   O     0.08295   0.64090   0.05752   0.00000  Uiso   1.00
N166   N     0.23934   0.37450   0.23485   0.00000  Uiso   1.00
O167   O     0.26814   0.40476   0.22300   0.00000  Uiso   1.00
O168   O     0.25042   0.35909   0.27580   0.00000  Uiso   1.00
O169   O     0.50000   0.43892   0.20487   0.00000  Uiso   1.00
O170   O     0.50000   0.56108   0.12846   0.00000  Uiso   1.00
O171   O     0.50000   0.43893   0.12843   0.00000  Uiso   1.00
O172   O     0.50000   0.56107   0.20490   0.00000  Uiso   1.00
C173   C     0.50160   0.42008   0.16672   0.00000  Uiso   1.00
C174   C     0.49840   0.57992   0.16661   0.00000  Uiso   1.00
O175   O     0.42392   0.50000   0.19595   0.00000  Uiso   1.00
O176   O     0.57608   0.50000   0.13739   0.00000  Uiso   1.00
O177   O     0.42392   0.50000   0.11950   0.00000  Uiso   1.00
O178   O     0.57608   0.50000   0.21383   0.00000  Uiso   1.00
C179   C     0.40037   0.49991   0.15470   0.00000  Uiso   1.00
C180   C     0.59963   0.50009   0.17864   0.00000  Uiso   1.00
Zn181  Zn    0.50000   0.49999   0.21771   0.00000  Uiso   1.00
Zn182  Zn    0.50000   0.50001   0.11563   0.00000  Uiso   1.00
N183   N     0.49999   0.49999   0.28573   0.00000  Uiso   1.00
N184   N     0.50001   0.50001   0.04760   0.00000  Uiso   1.00
C185   C     0.34533   0.50001   0.14826   0.00000  Uiso   1.00
C186   C     0.65467   0.49999   0.18507   0.00000  Uiso   1.00
H187   H     0.65803   0.50016   0.11334   0.00000  Uiso   1.00
H188   H     0.34197   0.49984   0.21999   0.00000  Uiso   1.00
C189   C     0.46911   0.35560   0.13203   0.00000  Uiso   1.00
C190   C     0.53090   0.64440   0.20130   0.00000  Uiso   1.00
C191   C     0.46510   0.64600   0.13218   0.00000  Uiso   1.00
C192   C     0.53491   0.35400   0.20115   0.00000  Uiso   1.00
C193   C     0.49698   0.62408   0.16692   0.00000  Uiso   1.00
C194   C     0.50303   0.37592   0.16641   0.00000  Uiso   1.00
C195   C     0.53220   0.52629   0.02833   0.00000  Uiso   1.00
C196   C     0.46780   0.47371   0.30500   0.00000  Uiso   1.00
H197   H     0.55797   0.54731   0.04995   0.00000  Uiso   1.00
H198   H     0.44203   0.45269   0.28339   0.00000  Uiso   1.00
C199   C     0.53218   0.52628   0.31373   0.00000  Uiso   1.00
C200   C     0.46782   0.47372   0.01960   0.00000  Uiso   1.00
H201   H     0.55792   0.54731   0.29909   0.00000  Uiso   1.00
H202   H     0.44208   0.45269   0.03425   0.00000  Uiso   1.00
H203   H     0.44402   0.37338   0.10629   0.00000  Uiso   1.00
H204   H     0.55598   0.62662   0.22705   0.00000  Uiso   1.00
N205   N     0.42734   0.62550   0.09848   0.00000  Uiso   1.00
O206   O     0.39852   0.59525   0.11033   0.00000  Uiso   1.00
O207   O     0.41628   0.64090   0.05752   0.00000  Uiso   1.00
N208   N     0.57267   0.37450   0.23485   0.00000  Uiso   1.00
O209   O     0.60147   0.40476   0.22300   0.00000  Uiso   1.00
O210   O     0.58375   0.35909   0.27580   0.00000  Uiso   1.00
O211   O     0.83333   0.43892   0.20487   0.00000  Uiso   1.00
O212   O     0.83334   0.56108   0.12846   0.00000  Uiso   1.00
O213   O     0.83333   0.43893   0.12843   0.00000  Uiso   1.00
O214   O     0.83334   0.56107   0.20490   0.00000  Uiso   1.00
C215   C     0.83493   0.42008   0.16672   0.00000  Uiso   1.00
C216   C     0.83173   0.57992   0.16661   0.00000  Uiso   1.00
O217   O     0.75725   0.50000   0.19595   0.00000  Uiso   1.00
O218   O     0.90942   0.50000   0.13739   0.00000  Uiso   1.00
O219   O     0.75725   0.50000   0.11950   0.00000  Uiso   1.00
O220   O     0.90942   0.50000   0.21383   0.00000  Uiso   1.00
C221   C     0.73371   0.49991   0.15470   0.00000  Uiso   1.00
C222   C     0.93296   0.50009   0.17864   0.00000  Uiso   1.00
Zn223  Zn    0.83333   0.49999   0.21771   0.00000  Uiso   1.00
Zn224  Zn    0.83333   0.50001   0.11563   0.00000  Uiso   1.00
N225   N     0.83332   0.49999   0.28573   0.00000  Uiso   1.00
N226   N     0.83335   0.50001   0.04760   0.00000  Uiso   1.00
C227   C     0.67866   0.50001   0.14826   0.00000  Uiso   1.00
C228   C     0.98801   0.49999   0.18507   0.00000  Uiso   1.00
H229   H     0.99136   0.50016   0.11334   0.00000  Uiso   1.00
H230   H     0.67531   0.49984   0.21999   0.00000  Uiso   1.00
C231   C     0.80244   0.35560   0.13203   0.00000  Uiso   1.00
C232   C     0.86423   0.64440   0.20130   0.00000  Uiso   1.00
C233   C     0.79843   0.64600   0.13218   0.00000  Uiso   1.00
C234   C     0.86824   0.35400   0.20115   0.00000  Uiso   1.00
C235   C     0.83031   0.62408   0.16692   0.00000  Uiso   1.00
C236   C     0.83636   0.37592   0.16641   0.00000  Uiso   1.00
C237   C     0.86553   0.52629   0.02833   0.00000  Uiso   1.00
C238   C     0.80113   0.47371   0.30500   0.00000  Uiso   1.00
H239   H     0.89131   0.54731   0.04995   0.00000  Uiso   1.00
H240   H     0.77536   0.45269   0.28339   0.00000  Uiso   1.00
C241   C     0.86551   0.52628   0.31373   0.00000  Uiso   1.00
C242   C     0.80115   0.47372   0.01960   0.00000  Uiso   1.00
H243   H     0.89126   0.54731   0.29909   0.00000  Uiso   1.00
H244   H     0.77541   0.45269   0.03425   0.00000  Uiso   1.00
H245   H     0.77736   0.37338   0.10629   0.00000  Uiso   1.00
H246   H     0.88931   0.62662   0.22705   0.00000  Uiso   1.00
N247   N     0.76067   0.62550   0.09848   0.00000  Uiso   1.00
O248   O     0.73186   0.59525   0.11033   0.00000  Uiso   1.00
O249   O     0.74961   0.64090   0.05752   0.00000  Uiso   1.00
N250   N     0.90601   0.37450   0.23485   0.00000  Uiso   1.00
O251   O     0.93481   0.40476   0.22300   0.00000  Uiso   1.00
O252   O     0.91709   0.35909   0.27580   0.00000  Uiso   1.00
O253   O     0.16666   0.77225   0.20487   0.00000  Uiso   1.00
O254   O     0.16667   0.89442   0.12846   0.00000  Uiso   1.00
O255   O     0.16666   0.77226   0.12843   0.00000  Uiso   1.00
O256   O     0.16667   0.89441   0.20490   0.00000  Uiso   1.00
C257   C     0.16827   0.75341   0.16672   0.00000  Uiso   1.00
C258   C     0.16507   0.91326   0.16661   0.00000  Uiso   1.00
O259   O     0.09058   0.83333   0.19595   0.00000  Uiso   1.00
O260   O     0.24275   0.83334   0.13739   0.00000  Uiso   1.00
O261   O     0.09058   0.83334   0.11950   0.00000  Uiso   1.00
O262   O     0.24275   0.83333   0.21383   0.00000  Uiso   1.00
C263   C     0.06704   0.83324   0.15470   0.00000  Uiso   1.00
C264   C     0.26629   0.83343   0.17864   0.00000  Uiso   1.00
Zn265  Zn    0.16667   0.83333   0.21771   0.00000  Uiso   1.00
Zn266  Zn    0.16667   0.83334   0.11563   0.00000  Uiso   1.00
N267   N     0.16665   0.83332   0.28573   0.00000  Uiso   1.00
N268   N     0.16668   0.83334   0.04760   0.00000  Uiso   1.00
C269   C     0.01199   0.83334   0.14826   0.00000  Uiso   1.00
C270   C     0.32134   0.83333   0.18507   0.00000  Uiso   1.00
H271   H     0.32469   0.83349   0.11334   0.00000  Uiso   1.00
H272   H     0.00864   0.83318   0.21999   0.00000  Uiso   1.00
C273   C     0.13577   0.68893   0.13203   0.00000  Uiso   1.00
C274   C     0.19756   0.97773   0.20130   0.00000  Uiso   1.00
C275   C     0.13176   0.97933   0.13218   0.00000  Uiso   1.00
C276   C     0.20158   0.68733   0.20115   0.00000  Uiso   1.00
C277   C     0.16364   0.95742   0.16692   0.00000  Uiso   1.00
C278   C     0.16969   0.70925   0.16641   0.00000  Uiso   1.00
C279   C     0.19887   0.85962   0.02833   0.00000  Uiso   1.00
C280   C     0.13447   0.80705   0.30500   0.00000  Uiso   1.00
H281   H     0.22464   0.88065   0.04995   0.00000  Uiso   1.00
H282   H     0.10870   0.78602   0.28339   0.00000  Uiso   1.00
C283   C     0.19885   0.85961   0.31373   0.00000  Uiso   1.00
C284   C     0.13449   0.80705   0.01960   0.00000  Uiso   1.00
H285   H     0.22459   0.88064   0.29909   0.00000  Uiso   1.00
H286   H     0.10874   0.78602   0.03425   0.00000  Uiso   1.00
H287   H     0.11069   0.70671   0.10629   0.00000  Uiso   1.00
H288   H     0.22265   0.95996   0.22705   0.00000  Uiso   1.00
N289   N     0.09401   0.95883   0.09848   0.00000  Uiso   1.00
O290   O     0.06519   0.92858   0.11033   0.00000  Uiso   1.00
O291   O     0.08295   0.97424   0.05752   0.00000  Uiso   1.00
N292   N     0.23934   0.70784   0.23485   0.00000  Uiso   1.00
O293   O     0.26814   0.73809   0.22300   0.00000  Uiso   1.00
O294   O     0.25042   0.69242   0.27580   0.00000  Uiso   1.00
O295   O     0.50000   0.77225   0.20487   0.00000  Uiso   1.00
O296   O     0.50000   0.89442   0.12846   0.00000  Uiso   1.00
O297   O     0.50000   0.77226   0.12843   0.00000  Uiso   1.00
O298   O     0.50000   0.89441   0.20490   0.00000  Uiso   1.00
C299   C     0.50160   0.75341   0.16672   0.00000  Uiso   1.00
C300   C     0.49840   0.91326   0.16661   0.00000  Uiso   1.00
O301   O     0.42392   0.83333   0.19595   0.00000  Uiso   1.00
O302   O     0.57608   0.83334   0.13739   0.00000  Uiso   1.00
O303   O     0.42392   0.83334   0.11950   0.00000  Uiso   1.00
O304   O     0.57608   0.83333   0.21383   0.00000  Uiso   1.00
C305   C     0.40037   0.83324   0.15470   0.00000  Uiso   1.00
C306   C     0.59963   0.83343   0.17864   0.00000  Uiso   1.00
Zn307  Zn    0.50000   0.83333   0.21771   0.00000  Uiso   1.00
Zn308  Zn    0.50000   0.83334   0.11563   0.00000  Uiso   1.00
N309   N     0.49999   0.83332   0.28573   0.00000  Uiso   1.00
N310   N     0.50001   0.83334   0.04760   0.00000  Uiso   1.00
C311   C     0.34533   0.83334   0.14826   0.00000  Uiso   1.00
C312   C     0.65467   0.83333   0.18507   0.00000  Uiso   1.00
H313   H     0.65803   0.83349   0.11334   0.00000  Uiso   1.00
H314   H     0.34197   0.83318   0.21999   0.00000  Uiso   1.00
C315   C     0.46911   0.68893   0.13203   0.00000  Uiso   1.00
C316   C     0.53090   0.97773   0.20130   0.00000  Uiso   1.00
C317   C     0.46510   0.97933   0.13218   0.00000  Uiso   1.00
C318   C     0.53491   0.68733   0.20115   0.00000  Uiso   1.00
C319   C     0.49698   0.95742   0.16692   0.00000  Uiso   1.00
C320   C     0.50303   0.70925   0.16641   0.00000  Uiso   1.00
C321   C     0.53220   0.85962   0.02833   0.00000  Uiso   1.00
C322   C     0.46780   0.80705   0.30500   0.00000  Uiso   1.00
H323   H     0.55797   0.88065   0.04995   0.00000  Uiso   1.00
H324   H     0.44203   0.78602   0.28339   0.00000  Uiso   1.00
C325   C     0.53218   0.85961   0.31373   0.00000  Uiso   1.00
C326   C     0.46782   0.80705   0.01960   0.00000  Uiso   1.00
H327   H     0.55792   0.88064   0.29909   0.00000  Uiso   1.00
H328   H     0.44208   0.78602   0.03425   0.00000  Uiso   1.00
H329   H     0.44402   0.70671   0.10629   0.00000  Uiso   1.00
H330   H     0.55598   0.95996   0.22705   0.00000  Uiso   1.00
N331   N     0.42734   0.95883   0.09848   0.00000  Uiso   1.00
O332   O     0.39852   0.92858   0.11033   0.00000  Uiso   1.00
O333   O     0.41628   0.97424   0.05752   0.00000  Uiso   1.00
N334   N     0.57267   0.70784   0.23485   0.00000  Uiso   1.00
O335   O     0.60147   0.73809   0.22300   0.00000  Uiso   1.00
O336   O     0.58375   0.69242   0.27580   0.00000  Uiso   1.00
O337   O     0.83333   0.77225   0.20487   0.00000  Uiso   1.00
O338   O     0.83334   0.89442   0.12846   0.00000  Uiso   1.00
O339   O     0.83333   0.77226   0.12843   0.00000  Uiso   1.00
O340   O     0.83334   0.89441   0.20490   0.00000  Uiso   1.00
C341   C     0.83493   0.75341   0.16672   0.00000  Uiso   1.00
C342   C     0.83173   0.91326   0.16661   0.00000  Uiso   1.00
O343   O     0.75725   0.83333   0.19595   0.00000  Uiso   1.00
O344   O     0.90942   0.83334   0.13739   0.00000  Uiso   1.00
O345   O     0.75725   0.83334   0.11950   0.00000  Uiso   1.00
O346   O     0.90942   0.83333   0.21383   0.00000  Uiso   1.00
C347   C     0.73371   0.83324   0.15470   0.00000  Uiso   1.00
C348   C     0.93296   0.83343   0.17864   0.00000  Uiso   1.00
Zn349  Zn    0.83333   0.83333   0.21771   0.00000  Uiso   1.00
Zn350  Zn    0.83333   0.83334   0.11563   0.00000  Uiso   1.00
N351   N     0.83332   0.83332   0.28573   0.00000  Uiso   1.00
N352   N     0.83335   0.83334   0.04760   0.00000  Uiso   1.00
C353   C     0.67866   0.83334   0.14826   0.00000  Uiso   1.00
C354   C     0.98801   0.83333   0.18507   0.00000  Uiso   1.00
H355   H     0.99136   0.83349   0.11334   0.00000  Uiso   1.00
H356   H     0.67531   0.83318   0.21999   0.00000  Uiso   1.00
C357   C     0.80244   0.68893   0.13203   0.00000  Uiso   1.00
C358   C     0.86423   0.97773   0.20130   0.00000  Uiso   1.00
C359   C     0.79843   0.97933   0.13218   0.00000  Uiso   1.00
C360   C     0.86824   0.68733   0.20115   0.00000  Uiso   1.00
C361   C     0.83031   0.95742   0.16692   0.00000  Uiso   1.00
C362   C     0.83636   0.70925   0.16641   0.00000  Uiso   1.00
C363   C     0.86553   0.85962   0.02833   0.00000  Uiso   1.00
C364   C     0.80113   0.80705   0.30500   0.00000  Uiso   1.00
H365   H     0.89131   0.88065   0.04995   0.00000  Uiso   1.00
H366   H     0.77536   0.78602   0.28339   0.00000  Uiso   1.00
C367   C     0.86551   0.85961   0.31373   0.00000  Uiso   1.00
C368   C     0.80115   0.80705   0.01960   0.00000  Uiso   1.00
H369   H     0.89126   0.88064   0.29909   0.00000  Uiso   1.00
H370   H     0.77541   0.78602   0.03425   0.00000  Uiso   1.00
H371   H     0.77736   0.70671   0.10629   0.00000  Uiso   1.00
H372   H     0.88931   0.95996   0.22705   0.00000  Uiso   1.00
N373   N     0.76067   0.95883   0.09848   0.00000  Uiso   1.00
O374   O     0.73186   0.92858   0.11033   0.00000  Uiso   1.00
O375   O     0.74961   0.97424   0.05752   0.00000  Uiso   1.00
N376   N     0.90601   0.70784   0.23485   0.00000  Uiso   1.00
O377   O     0.93481   0.73809   0.22300   0.00000  Uiso   1.00
O378   O     0.91709   0.69242   0.27580   0.00000  Uiso   1.00
O379   O     0.16666   0.10558   0.53821   0.00000  Uiso   1.00
O380   O     0.16667   0.22775   0.46179   0.00000  Uiso   1.00
O381   O     0.16666   0.10559   0.46176   0.00000  Uiso   1.00
O382   O     0.16667   0.22774   0.53824   0.00000  Uiso   1.00
C383   C     0.16827   0.08674   0.50006   0.00000  Uiso   1.00
C384   C     0.16507   0.24659   0.49994   0.00000  Uiso   1.00
O385   O     0.09058   0.16666   0.52928   0.00000  Uiso   1.00
O386   O     0.24275   0.16667   0.47072   0.00000  Uiso   1.00
O387   O     0.09058   0.16667   0.45284   0.00000  Uiso   1.00
O388   O     0.24275   0.16666   0.54716   0.00000  Uiso   1.00
C389   C     0.06704   0.16657   0.48803   0.00000  Uiso   1.00
C390   C     0.26629   0.16676   0.51197   0.00000  Uiso   1.00
Zn391  Zn    0.16667   0.16666   0.55104   0.00000  Uiso   1.00
Zn392  Zn    0.16667   0.16667   0.44896   0.00000  Uiso   1.00
N393   N     0.16665   0.16666   0.61907   0.00000  Uiso   1.00
N394   N     0.16668   0.16668   0.38093   0.00000  Uiso   1.00
C395   C     0.01199   0.16667   0.48159   0.00000  Uiso   1.00
C396   C     0.32134   0.16666   0.51841   0.00000  Uiso   1.00
H397   H     0.32469   0.16682   0.44667   0.00000  Uiso   1.00
H398   H     0.00864   0.16651   0.55333   0.00000  Uiso   1.00
C399   C     0.13577   0.02226   0.46536   0.00000  Uiso   1.00
C400   C     0.19756   0.31107   0.53463   0.00000  Uiso   1.00
C401   C     0.13176   0.31267   0.46551   0.00000  Uiso   1.00
C402   C     0.20158   0.02067   0.53449   0.00000  Uiso   1.00
C403   C     0.16364   0.29075   0.50025   0.00000  Uiso   1.00
C404   C     0.16969   0.04258   0.49975   0.00000  Uiso   1.00
C405   C     0.19887   0.19295   0.36166   0.00000  Uiso   1.00
C406   C     0.13447   0.14038   0.63834   0.00000  Uiso   1.00
H407   H     0.22464   0.21398   0.38328   0.00000  Uiso   1.00
H408   H     0.10870   0.11935   0.61672   0.00000  Uiso   1.00
C409   C     0.19885   0.19295   0.64706   0.00000  Uiso   1.00
C410   C     0.13449   0.14039   0.35294   0.00000  Uiso   1.00
H411   H     0.22459   0.21398   0.63242   0.00000  Uiso   1.00
H412   H     0.10874   0.11936   0.36758   0.00000  Uiso   1.00
H413   H     0.11069   0.04004   0.43962   0.00000  Uiso   1.00
H414   H     0.22265   0.29329   0.56038   0.00000  Uiso   1.00
N415   N     0.09401   0.29216   0.43182   0.00000  Uiso   1.00
O416   O     0.06519   0.26192   0.44366   0.00000  Uiso   1.00
O417   O     0.08295   0.30757   0.39085   0.00000  Uiso   1.00
N418   N     0.23934   0.04117   0.56818   0.00000  Uiso   1.00
O419   O     0.26814   0.07142   0.55633   0.00000  Uiso   1.00
O420   O     0.25042   0.02576   0.60914   0.00000  Uiso   1.00
O421   O     0.50000   0.10558   0.53821   0.00000  Uiso   1.00
O422   O     0.50000   0.22775   0.46179   0.00000  Uiso   1.00
O423   O     0.50000   0.10559   0.46176   0.00000  Uiso   1.00
O424   O     0.50000   0.22774   0.53824   0.00000  Uiso   1.00
C425   C     0.50160   0.08674   0.50006   0.00000  Uiso   1.00
C426   C     0.49840   0.24659   0.49994   0.00000  Uiso   1.00
O427   O     0.42392   0.16666   0.52928   0.00000  Uiso   1.00
O428   O     0.57608   0.16667   0.47072   0.00000  Uiso   1.00
O429   O     0.42392   0.16667   0.45284   0.00000  Uiso   1.00
O430   O     0.57608   0.16666   0.54716   0.00000  Uiso   1.00
C431   C     0.40037   0.16657   0.48803   0.00000  Uiso   1.00
C432   C     0.59963   0.16676   0.51197   0.00000  Uiso   1.00
Zn433  Zn    0.50000   0.16666   0.55104   0.00000  Uiso   1.00
Zn434  Zn    0.50000   0.16667   0.44896   0.00000  Uiso   1.00
N435   N     0.49999   0.16666   0.61907   0.00000  Uiso   1.00
N436   N     0.50001   0.16668   0.38093   0.00000  Uiso   1.00
C437   C     0.34533   0.16667   0.48159   0.00000  Uiso   1.00
C438   C     0.65467   0.16666   0.51841   0.00000  Uiso   1.00
H439   H     0.65803   0.16682   0.44667   0.00000  Uiso   1.00
H440   H     0.34197   0.16651   0.55333   0.00000  Uiso   1.00
C441   C     0.46911   0.02226   0.46536   0.00000  Uiso   1.00
C442   C     0.53090   0.31107   0.53463   0.00000  Uiso   1.00
C443   C     0.46510   0.31267   0.46551   0.00000  Uiso   1.00
C444   C     0.53491   0.02067   0.53449   0.00000  Uiso   1.00
C445   C     0.49698   0.29075   0.50025   0.00000  Uiso   1.00
C446   C     0.50303   0.04258   0.49975   0.00000  Uiso   1.00
C447   C     0.53220   0.19295   0.36166   0.00000  Uiso   1.00
C448   C     0.46780   0.14038   0.63834   0.00000  Uiso   1.00
H449   H     0.55797   0.21398   0.38328   0.00000  Uiso   1.00
H450   H     0.44203   0.11935   0.61672   0.00000  Uiso   1.00
C451   C     0.53218   0.19295   0.64706   0.00000  Uiso   1.00
C452   C     0.46782   0.14039   0.35294   0.00000  Uiso   1.00
H453   H     0.55792   0.21398   0.63242   0.00000  Uiso   1.00
H454   H     0.44208   0.11936   0.36758   0.00000  Uiso   1.00
H455   H     0.44402   0.04004   0.43962   0.00000  Uiso   1.00
H456   H     0.55598   0.29329   0.56038   0.00000  Uiso   1.00
N457   N     0.42734   0.29216   0.43182   0.00000  Uiso   1.00
O458   O     0.39852   0.26192   0.44366   0.00000  Uiso   1.00
O459   O     0.41628   0.30757   0.39085   0.00000  Uiso   1.00
N460   N     0.57267   0.04117   0.56818   0.00000  Uiso   1.00
O461   O     0.60147   0.07142   0.55633   0.00000  Uiso   1.00
O462   O     0.58375   0.02576   0.60914   0.00000  Uiso   1.00
O463   O     0.83333   0.10558   0.53821   0.00000  Uiso   1.00
O464   O     0.83334   0.22775   0.46179   0.00000  Uiso   1.00
O465   O     0.83333   0.10559   0.46176   0.00000  Uiso   1.00
O466   O     0.83334   0.22774   0.53824   0.00000  Uiso   1.00
C467   C     0.83493   0.08674   0.50006   0.00000  Uiso   1.00
C468   C     0.83173   0.24659   0.49994   0.00000  Uiso   1.00
O469   O     0.75725   0.16666   0.52928   0.00000  Uiso   1.00
O470   O     0.90942   0.16667   0.47072   0.00000  Uiso   1.00
O471   O     0.75725   0.16667   0.45284   0.00000  Uiso   1.00
O472   O     0.90942   0.16666   0.54716   0.00000  Uiso   1.00
C473   C     0.73371   0.16657   0.48803   0.00000  Uiso   1.00
C474   C     0.93296   0.16676   0.51197   0.00000  Uiso   1.00
Zn475  Zn    0.83333   0.16666   0.55104   0.00000  Uiso   1.00
Zn476  Zn    0.83333   0.16667   0.44896   0.00000  Uiso   1.00
N477   N     0.83332   0.16666   0.61907   0.00000  Uiso   1.00
N478   N     0.83335   0.16668   0.38093   0.00000  Uiso   1.00
C479   C     0.67866   0.16667   0.48159   0.00000  Uiso   1.00
C480   C     0.98801   0.16666   0.51841   0.00000  Uiso   1.00
H481   H     0.99136   0.16682   0.44667   0.00000  Uiso   1.00
H482   H     0.67531   0.16651   0.55333   0.00000  Uiso   1.00
C483   C     0.80244   0.02226   0.46536   0.00000  Uiso   1.00
C484   C     0.86423   0.31107   0.53463   0.00000  Uiso   1.00
C485   C     0.79843   0.31267   0.46551   0.00000  Uiso   1.00
C486   C     0.86824   0.02067   0.53449   0.00000  Uiso   1.00
C487   C     0.83031   0.29075   0.50025   0.00000  Uiso   1.00
C488   C     0.83636   0.04258   0.49975   0.00000  Uiso   1.00
C489   C     0.86553   0.19295   0.36166   0.00000  Uiso   1.00
C490   C     0.80113   0.14038   0.63834   0.00000  Uiso   1.00
H491   H     0.89131   0.21398   0.38328   0.00000  Uiso   1.00
H492   H     0.77536   0.11935   0.61672   0.00000  Uiso   1.00
C493   C     0.86551   0.19295   0.64706   0.00000  Uiso   1.00
C494   C     0.80115   0.14039   0.35294   0.00000  Uiso   1.00
H495   H     0.89126   0.21398   0.63242   0.00000  Uiso   1.00
H496   H     0.77541   0.11936   0.36758   0.00000  Uiso   1.00
H497   H     0.77736   0.04004   0.43962   0.00000  Uiso   1.00
H498   H     0.88931   0.29329   0.56038   0.00000  Uiso   1.00
N499   N     0.76067   0.29216   0.43182   0.00000  Uiso   1.00
O500   O     0.73186   0.26192   0.44366   0.00000  Uiso   1.00
O501   O     0.74961   0.30757   0.39085   0.00000  Uiso   1.00
N502   N     0.90601   0.04117   0.56818   0.00000  Uiso   1.00
O503   O     0.93481   0.07142   0.55633   0.00000  Uiso   1.00
O504   O     0.91709   0.02576   0.60914   0.00000  Uiso   1.00
O505   O     0.16666   0.43892   0.53821   0.00000  Uiso   1.00
O506   O     0.16667   0.56108   0.46179   0.00000  Uiso   1.00
O507   O     0.16666   0.43893   0.46176   0.00000  Uiso   1.00
O508   O     0.16667   0.56107   0.53824   0.00000  Uiso   1.00
C509   C     0.16827   0.42008   0.50006   0.00000  Uiso   1.00
C510   C     0.16507   0.57992   0.49994   0.00000  Uiso   1.00
O511   O     0.09058   0.50000   0.52928   0.00000  Uiso   1.00
O512   O     0.24275   0.50000   0.47072   0.00000  Uiso   1.00
O513   O     0.09058   0.50000   0.45284   0.00000  Uiso   1.00
O514   O     0.24275   0.50000   0.54716   0.00000  Uiso   1.00
C515   C     0.06704   0.49991   0.48803   0.00000  Uiso   1.00
C516   C     0.26629   0.50009   0.51197   0.00000  Uiso   1.00
Zn517  Zn    0.16667   0.49999   0.55104   0.00000  Uiso   1.00
Zn518  Zn    0.16667   0.50001   0.44896   0.00000  Uiso   1.00
N519   N     0.16665   0.49999   0.61907   0.00000  Uiso   1.00
N520   N     0.16668   0.50001   0.38093   0.00000  Uiso   1.00
C521   C     0.01199   0.50001   0.48159   0.00000  Uiso   1.00
C522   C     0.32134   0.49999   0.51841   0.00000  Uiso   1.00
H523   H     0.32469   0.50016   0.44667   0.00000  Uiso   1.00
H524   H     0.00864   0.49984   0.55333   0.00000  Uiso   1.00
C525   C     0.13577   0.35560   0.46536   0.00000  Uiso   1.00
C526   C     0.19756   0.64440   0.53463   0.00000  Uiso   1.00
C527   C     0.13176   0.64600   0.46551   0.00000  Uiso   1.00
C528   C     0.20158   0.35400   0.53449   0.00000  Uiso   1.00
C529   C     0.16364   0.62408   0.50025   0.00000  Uiso   1.00
C530   C     0.16969   0.37592   0.49975   0.00000  Uiso   1.00
C531   C     0.19887   0.52629   0.36166   0.00000  Uiso   1.00
C532   C     0.13447   0.47371   0.63834   0.00000  Uiso   1.00
H533   H     0.22464   0.54731   0.38328   0.00000  Uiso   1.00
H534   H     0.10870   0.45269   0.61672   0.00000  Uiso   1.00
C535   C     0.19885   0.52628   0.64706   0.00000  Uiso   1.00
C536   C     0.13449   0.47372   0.35294   0.00000  Uiso   1.00
H537   H     0.22459   0.54731   0.63242   0.00000  Uiso   1.00
H538   H     0.10874   0.45269   0.36758   0.00000  Uiso   1.00
H539   H     0.11069   0.37338   0.43962   0.00000  Uiso   1.00
H540   H     0.22265   0.62662   0.56038   0.00000  Uiso   1.00
N541   N     0.09401   0.62550   0.43182   0.00000  Uiso   1.00
O542   O     0.06519   0.59525   0.44366   0.00000  Uiso   1.00
O543   O     0.08295   0.64090   0.39085   0.00000  Uiso   1.00
N544   N     0.23934   0.37450   0.56818   0.00000  Uiso   1.00
O545   O     0.26814   0.40476   0.55633   0.00000  Uiso   1.00
O546   O     0.25042   0.35909   0.60914   0.00000  Uiso   1.00
O547   O     0.50000   0.43892   0.53821   0.00000  Uiso   1.00
O548   O     0.50000   0.56108   0.46179   0.00000  Uiso   1.00
O549   O     0.50000   0.43893   0.46176   0.00000  Uiso   1.00
O550   O     0.50000   0.56107   0.53824   0.00000  Uiso   1.00
C551   C     0.50160   0.42008   0.50006   0.00000  Uiso   1.00
C552   C     0.49840   0.57992   0.49994   0.00000  Uiso   1.00
O553   O     0.42392   0.50000   0.52928   0.00000  Uiso   1.00
O554   O     0.57608   0.50000   0.47072   0.00000  Uiso   1.00
O555   O     0.42392   0.50000   0.45284   0.00000  Uiso   1.00
O556   O     0.57608   0.50000   0.54716   0.00000  Uiso   1.00
C557   C     0.40037   0.49991   0.48803   0.00000  Uiso   1.00
C558   C     0.59963   0.50009   0.51197   0.00000  Uiso   1.00
Zn559  Zn    0.50000   0.49999   0.55104   0.00000  Uiso   1.00
Zn560  Zn    0.50000   0.50001   0.44896   0.00000  Uiso   1.00
N561   N     0.49999   0.49999   0.61907   0.00000  Uiso   1.00
N562   N     0.50001   0.50001   0.38093   0.00000  Uiso   1.00
C563   C     0.34533   0.50001   0.48159   0.00000  Uiso   1.00
C564   C     0.65467   0.49999   0.51841   0.00000  Uiso   1.00
H565   H     0.65803   0.50016   0.44667   0.00000  Uiso   1.00
H566   H     0.34197   0.49984   0.55333   0.00000  Uiso   1.00
C567   C     0.46911   0.35560   0.46536   0.00000  Uiso   1.00
C568   C     0.53090   0.64440   0.53463   0.00000  Uiso   1.00
C569   C     0.46510   0.64600   0.46551   0.00000  Uiso   1.00
C570   C     0.53491   0.35400   0.53449   0.00000  Uiso   1.00
C571   C     0.49698   0.62408   0.50025   0.00000  Uiso   1.00
C572   C     0.50303   0.37592   0.49975   0.00000  Uiso   1.00
C573   C     0.53220   0.52629   0.36166   0.00000  Uiso   1.00
C574   C     0.46780   0.47371   0.63834   0.00000  Uiso   1.00
H575   H     0.55797   0.54731   0.38328   0.00000  Uiso   1.00
H576   H     0.44203   0.45269   0.61672   0.00000  Uiso   1.00
C577   C     0.53218   0.52628   0.64706   0.00000  Uiso   1.00
C578   C     0.46782   0.47372   0.35294   0.00000  Uiso   1.00
H579   H     0.55792   0.54731   0.63242   0.00000  Uiso   1.00
H580   H     0.44208   0.45269   0.36758   0.00000  Uiso   1.00
H581   H     0.44402   0.37338   0.43962   0.00000  Uiso   1.00
H582   H     0.55598   0.62662   0.56038   0.00000  Uiso   1.00
N583   N     0.42734   0.62550   0.43182   0.00000  Uiso   1.00
O584   O     0.39852   0.59525   0.44366   0.00000  Uiso   1.00
O585   O     0.41628   0.64090   0.39085   0.00000  Uiso   1.00
N586   N     0.57267   0.37450   0.56818   0.00000  Uiso   1.00
O587   O     0.60147   0.40476   0.55633   0.00000  Uiso   1.00
O588   O     0.58375   0.35909   0.60914   0.00000  Uiso   1.00
O589   O     0.83333   0.43892   0.53821   0.00000  Uiso   1.00
O590   O     0.83334   0.56108   0.46179   0.00000  Uiso   1.00
O591   O     0.83333   0.43893   0.46176   0.00000  Uiso   1.00
O592   O     0.83334   0.56107   0.53824   0.00000  Uiso   1.00
C593   C     0.83493   0.42008   0.50006   0.00000  Uiso   1.00
C594   C     0.83173   0.57992   0.49994   0.00000  Uiso   1.00
O595   O     0.75725   0.50000   0.52928   0.00000  Uiso   1.00
O596   O     0.90942   0.50000   0.47072   0.00000  Uiso   1.00
O597   O     0.75725   0.50000   0.45284   0.00000  Uiso   1.00
O598   O     0.90942   0.50000   0.54716   0.00000  Uiso   1.00
C599   C     0.73371   0.49991   0.48803   0.00000  Uiso   1.00
C600   C     0.93296   0.50009   0.51197   0.00000  Uiso   1.00
Zn601  Zn    0.83333   0.49999   0.55104   0.00000  Uiso   1.00
Zn602  Zn    0.83333   0.50001   0.44896   0.00000  Uiso   1.00
N603   N     0.83332   0.49999   0.61907   0.00000  Uiso   1.00
N604   N     0.83335   0.50001   0.38093   0.00000  Uiso   1.00
C605   C     0.67866   0.50001   0.48159   0.00000  Uiso   1.00
C606   C     0.98801   0.49999   0.51841   0.00000  Uiso   1.00
H607   H     0.99136   0.50016   0.44667   0.00000  Uiso   1.00
H608   H     0.67531   0.49984   0.55333   0.00000  Uiso   1.00
C609   C     0.80244   0.35560   0.46536   0.00000  Uiso   1.00
C610   C     0.86423   0.64440   0.53463   0.00000  Uiso   1.00
C611   C     0.79843   0.64600   0.46551   0.00000  Uiso   1.00
C612   C     0.86824   0.35400   0.53449   0.00000  Uiso   1.00
C613   C     0.83031   0.62408   0.50025   0.00000  Uiso   1.00
C614   C     0.83636   0.37592   0.49975   0.00000  Uiso   1.00
C615   C     0.86553   0.52629   0.36166   0.00000  Uiso   1.00
C616   C     0.80113   0.47371   0.63834   0.00000  Uiso   1.00
H617   H     0.89131   0.54731   0.38328   0.00000  Uiso   1.00
H618   H     0.77536   0.45269   0.61672   0.00000  Uiso   1.00
C619   C     0.86551   0.52628   0.64706   0.00000  Uiso   1.00
C620   C     0.80115   0.47372   0.35294   0.00000  Uiso   1.00
H621   H     0.89126   0.54731   0.63242   0.00000  Uiso   1.00
H622   H     0.77541   0.45269   0.36758   0.00000  Uiso   1.00
H623   H     0.77736   0.37338   0.43962   0.00000  Uiso   1.00
H624   H     0.88931   0.62662   0.56038   0.00000  Uiso   1.00
N625   N     0.76067   0.62550   0.43182   0.00000  Uiso   1.00
O626   O     0.73186   0.59525   0.44366   0.00000  Uiso   1.00
O627   O     0.74961   0.64090   0.39085   0.00000  Uiso   1.00
N628   N     0.90601   0.37450   0.56818   0.00000  Uiso   1.00
O629   O     0.93481   0.40476   0.55633   0.00000  Uiso   1.00
O630   O     0.91709   0.35909   0.60914   0.00000  Uiso   1.00
O631   O     0.16666   0.77225   0.53821   0.00000  Uiso   1.00
O632   O     0.16667   0.89442   0.46179   0.00000  Uiso   1.00
O633   O     0.16666   0.77226   0.46176   0.00000  Uiso   1.00
O634   O     0.16667   0.89441   0.53824   0.00000  Uiso   1.00
C635   C     0.16827   0.75341   0.50006   0.00000  Uiso   1.00
C636   C     0.16507   0.91326   0.49994   0.00000  Uiso   1.00
O637   O     0.09058   0.83333   0.52928   0.00000  Uiso   1.00
O638   O     0.24275   0.83334   0.47072   0.00000  Uiso   1.00
O639   O     0.09058   0.83334   0.45284   0.00000  Uiso   1.00
O640   O     0.24275   0.83333   0.54716   0.00000  Uiso   1.00
C641   C     0.06704   0.83324   0.48803   0.00000  Uiso   1.00
C642   C     0.26629   0.83343   0.51197   0.00000  Uiso   1.00
Zn643  Zn    0.16667   0.83333   0.55104   0.00000  Uiso   1.00
Zn644  Zn    0.16667   0.83334   0.44896   0.00000  Uiso   1.00
N645   N     0.16665   0.83332   0.61907   0.00000  Uiso   1.00
N646   N     0.16668   0.83334   0.38093   0.00000  Uiso   1.00
C647   C     0.01199   0.83334   0.48159   0.00000  Uiso   1.00
C648   C     0.32134   0.83333   0.51841   0.00000  Uiso   1.00
H649   H     0.32469   0.83349   0.44667   0.00000  Uiso   1.00
H650   H     0.00864   0.83318   0.55333   0.00000  Uiso   1.00
C651   C     0.13577   0.68893   0.46536   0.00000  Uiso   1.00
C652   C     0.19756   0.97773   0.53463   0.00000  Uiso   1.00
C653   C     0.13176   0.97933   0.46551   0.00000  Uiso   1.00
C654   C     0.20158   0.68733   0.53449   0.00000  Uiso   1.00
C655   C     0.16364   0.95742   0.50025   0.00000  Uiso   1.00
C656   C     0.16969   0.70925   0.49975   0.00000  Uiso   1.00
C657   C     0.19887   0.85962   0.36166   0.00000  Uiso   1.00
C658   C     0.13447   0.80705   0.63834   0.00000  Uiso   1.00
H659   H     0.22464   0.88065   0.38328   0.00000  Uiso   1.00
H660   H     0.10870   0.78602   0.61672   0.00000  Uiso   1.00
C661   C     0.19885   0.85961   0.64706   0.00000  Uiso   1.00
C662   C     0.13449   0.80705   0.35294   0.00000  Uiso   1.00
H663   H     0.22459   0.88064   0.63242   0.00000  Uiso   1.00
H664   H     0.10874   0.78602   0.36758   0.00000  Uiso   1.00
H665   H     0.11069   0.70671   0.43962   0.00000  Uiso   1.00
H666   H     0.22265   0.95996   0.56038   0.00000  Uiso   1.00
N667   N     0.09401   0.95883   0.43182   0.00000  Uiso   1.00
O668   O     0.06519   0.92858   0.44366   0.00000  Uiso   1.00
O669   O     0.08295   0.97424   0.39085   0.00000  Uiso   1.00
N670   N     0.23934   0.70784   0.56818   0.00000  Uiso   1.00
O671   O     0.26814   0.73809   0.55633   0.00000  Uiso   1.00
O672   O     0.25042   0.69242   0.60914   0.00000  Uiso   1.00
O673   O     0.50000   0.77225   0.53821   0.00000  Uiso   1.00
O674   O     0.50000   0.89442   0.46179   0.00000  Uiso   1.00
O675   O     0.50000   0.77226   0.46176   0.00000  Uiso   1.00
O676   O     0.50000   0.89441   0.53824   0.00000  Uiso   1.00
C677   C     0.50160   0.75341   0.50006   0.00000  Uiso   1.00
C678   C     0.49840   0.91326   0.49994   0.00000  Uiso   1.00
O679   O     0.42392   0.83333   0.52928   0.00000  Uiso   1.00
O680   O     0.57608   0.83334   0.47072   0.00000  Uiso   1.00
O681   O     0.42392   0.83334   0.45284   0.00000  Uiso   1.00
O682   O     0.57608   0.83333   0.54716   0.00000  Uiso   1.00
C683   C     0.40037   0.83324   0.48803   0.00000  Uiso   1.00
C684   C     0.59963   0.83343   0.51197   0.00000  Uiso   1.00
Zn685  Zn    0.50000   0.83333   0.55104   0.00000  Uiso   1.00
Zn686  Zn    0.50000   0.83334   0.44896   0.00000  Uiso   1.00
N687   N     0.49999   0.83332   0.61907   0.00000  Uiso   1.00
N688   N     0.50001   0.83334   0.38093   0.00000  Uiso   1.00
C689   C     0.34533   0.83334   0.48159   0.00000  Uiso   1.00
C690   C     0.65467   0.83333   0.51841   0.00000  Uiso   1.00
H691   H     0.65803   0.83349   0.44667   0.00000  Uiso   1.00
H692   H     0.34197   0.83318   0.55333   0.00000  Uiso   1.00
C693   C     0.46911   0.68893   0.46536   0.00000  Uiso   1.00
C694   C     0.53090   0.97773   0.53463   0.00000  Uiso   1.00
C695   C     0.46510   0.97933   0.46551   0.00000  Uiso   1.00
C696   C     0.53491   0.68733   0.53449   0.00000  Uiso   1.00
C697   C     0.49698   0.95742   0.50025   0.00000  Uiso   1.00
C698   C     0.50303   0.70925   0.49975   0.00000  Uiso   1.00
C699   C     0.53220   0.85962   0.36166   0.00000  Uiso   1.00
C700   C     0.46780   0.80705   0.63834   0.00000  Uiso   1.00
H701   H     0.55797   0.88065   0.38328   0.00000  Uiso   1.00
H702   H     0.44203   0.78602   0.61672   0.00000  Uiso   1.00
C703   C     0.53218   0.85961   0.64706   0.00000  Uiso   1.00
C704   C     0.46782   0.80705   0.35294   0.00000  Uiso   1.00
H705   H     0.55792   0.88064   0.63242   0.00000  Uiso   1.00
H706   H     0.44208   0.78602   0.36758   0.00000  Uiso   1.00
H707   H     0.44402   0.70671   0.43962   0.00000  Uiso   1.00
H708   H     0.55598   0.95996   0.56038   0.00000  Uiso   1.00
N709   N     0.42734   0.95883   0.43182   0.00000  Uiso   1.00
O710   O     0.39852   0.92858   0.44366   0.00000  Uiso   1.00
O711   O     0.41628   0.97424   0.39085   0.00000  Uiso   1.00
N712   N     0.57267   0.70784   0.56818   0.00000  Uiso   1.00
O713   O     0.60147   0.73809   0.55633   0.00000  Uiso   1.00
O714   O     0.58375   0.69242   0.60914   0.00000  Uiso   1.00
O715   O     0.83333   0.77225   0.53821   0.00000  Uiso   1.00
O716   O     0.83334   0.89442   0.46179   0.00000  Uiso   1.00
O717   O     0.83333   0.77226   0.46176   0.00000  Uiso   1.00
O718   O     0.83334   0.89441   0.53824   0.00000  Uiso   1.00
C719   C     0.83493   0.75341   0.50006   0.00000  Uiso   1.00
C720   C     0.83173   0.91326   0.49994   0.00000  Uiso   1.00
O721   O     0.75725   0.83333   0.52928   0.00000  Uiso   1.00
O722   O     0.90942   0.83334   0.47072   0.00000  Uiso   1.00
O723   O     0.75725   0.83334   0.45284   0.00000  Uiso   1.00
O724   O     0.90942   0.83333   0.54716   0.00000  Uiso   1.00
C725   C     0.73371   0.83324   0.48803   0.00000  Uiso   1.00
C726   C     0.93296   0.83343   0.51197   0.00000  Uiso   1.00
Zn727  Zn    0.83333   0.83333   0.55104   0.00000  Uiso   1.00
Zn728  Zn    0.83333   0.83334   0.44896   0.00000  Uiso   1.00
N729   N     0.83332   0.83332   0.61907   0.00000  Uiso   1.00
N730   N     0.83335   0.83334   0.38093   0.00000  Uiso   1.00
C731   C     0.67866   0.83334   0.48159   0.00000  Uiso   1.00
C732   C     0.98801   0.83333   0.51841   0.00000  Uiso   1.00
H733   H     0.99136   0.83349   0.44667   0.00000  Uiso   1.00
H734   H     0.67531   0.83318   0.55333   0.00000  Uiso   1.00
C735   C     0.80244   0.68893   0.46536   0.00000  Uiso   1.00
C736   C     0.86423   0.97773   0.53463   0.00000  Uiso   1.00
C737   C     0.79843   0.97933   0.46551   0.00000  Uiso   1.00
C738   C     0.86824   0.68733   0.53449   0.00000  Uiso   1.00
C739   C     0.83031   0.95742   0.50025   0.00000  Uiso   1.00
C740   C     0.83636   0.70925   0.49975   0.00000  Uiso   1.00
C741   C     0.86553   0.85962   0.36166   0.00000  Uiso   1.00
C742   C     0.80113   0.80705   0.63834   0.00000  Uiso   1.00
H743   H     0.89131   0.88065   0.38328   0.00000  Uiso   1.00
H744   H     0.77536   0.78602   0.61672   0.00000  Uiso   1.00
C745   C     0.86551   0.85961   0.64706   0.00000  Uiso   1.00
C746   C     0.80115   0.80705   0.35294   0.00000  Uiso   1.00
H747   H     0.89126   0.88064   0.63242   0.00000  Uiso   1.00
H748   H     0.77541   0.78602   0.36758   0.00000  Uiso   1.00
H749   H     0.77736   0.70671   0.43962   0.00000  Uiso   1.00
H750   H     0.88931   0.95996   0.56038   0.00000  Uiso   1.00
N751   N     0.76067   0.95883   0.43182   0.00000  Uiso   1.00
O752   O     0.73186   0.92858   0.44366   0.00000  Uiso   1.00
O753   O     0.74961   0.97424   0.39085   0.00000  Uiso   1.00
N754   N     0.90601   0.70784   0.56818   0.00000  Uiso   1.00
O755   O     0.93481   0.73809   0.55633   0.00000  Uiso   1.00
O756   O     0.91709   0.69242   0.60914   0.00000  Uiso   1.00
O757   O     0.16666   0.10558   0.87154   0.00000  Uiso   1.00
O758   O     0.16667   0.22775   0.79513   0.00000  Uiso   1.00
O759   O     0.16666   0.10559   0.79510   0.00000  Uiso   1.00
O760   O     0.16667   0.22774   0.87157   0.00000  Uiso   1.00
C761   C     0.16827   0.08674   0.83339   0.00000  Uiso   1.00
C762   C     0.16507   0.24659   0.83328   0.00000  Uiso   1.00
O763   O     0.09058   0.16666   0.86261   0.00000  Uiso   1.00
O764   O     0.24275   0.16667   0.80405   0.00000  Uiso   1.00
O765   O     0.09058   0.16667   0.78617   0.00000  Uiso   1.00
O766   O     0.24275   0.16666   0.88050   0.00000  Uiso   1.00
C767   C     0.06704   0.16657   0.82136   0.00000  Uiso   1.00
C768   C     0.26629   0.16676   0.84530   0.00000  Uiso   1.00
Zn769  Zn    0.16667   0.16666   0.88437   0.00000  Uiso   1.00
Zn770  Zn    0.16667   0.16667   0.78229   0.00000  Uiso   1.00
N771   N     0.16665   0.16666   0.95240   0.00000  Uiso   1.00
N772   N     0.16668   0.16668   0.71427   0.00000  Uiso   1.00
C773   C     0.01199   0.16667   0.81493   0.00000  Uiso   1.00
C774   C     0.32134   0.16666   0.85174   0.00000  Uiso   1.00
H775   H     0.32469   0.16682   0.78001   0.00000  Uiso   1.00
H776   H     0.00864   0.16651   0.88666   0.00000  Uiso   1.00
C777   C     0.13577   0.02226   0.79870   0.00000  Uiso   1.00
C778   C     0.19756   0.31107   0.86797   0.00000  Uiso   1.00
C779   C     0.13176   0.31267   0.79885   0.00000  Uiso   1.00
C780   C     0.20158   0.02067   0.86782   0.00000  Uiso   1.00
C781   C     0.16364   0.29075   0.83359   0.00000  Uiso   1.00
C782   C     0.16969   0.04258   0.83308   0.00000  Uiso   1.00
C783   C     0.19887   0.19295   0.69499   0.00000  Uiso   1.00
C784   C     0.13447   0.14038   0.97167   0.00000  Uiso   1.00
H785   H     0.22464   0.21398   0.71661   0.00000  Uiso   1.00
H786   H     0.10870   0.11935   0.95005   0.00000  Uiso   1.00
C787   C     0.19885   0.19295   0.98040   0.00000  Uiso   1.00
C788   C     0.13449   0.14039   0.68627   0.00000  Uiso   1.00
H789   H     0.22459   0.21398   0.96575   0.00000  Uiso   1.00
H790   H     0.10874   0.11936   0.70091   0.00000  Uiso   1.00
H791   H     0.11069   0.04004   0.77295   0.00000  Uiso   1.00
H792   H     0.22265   0.29329   0.89371   0.00000  Uiso   1.00
N793   N     0.09401   0.29216   0.76515   0.00000  Uiso   1.00
O794   O     0.06519   0.26192   0.77699   0.00000  Uiso   1.00
O795   O     0.08295   0.30757   0.72418   0.00000  Uiso   1.00
N796   N     0.23934   0.04117   0.90151   0.00000  Uiso   1.00
O797   O     0.26814   0.07142   0.88967   0.00000  Uiso   1.00
O798   O     0.25042   0.02576   0.94247   0.00000  Uiso   1.00
O799   O     0.50000   0.10558   0.87154   0.00000  Uiso   1.00
O800   O     0.50000   0.22775   0.79513   0.00000  Uiso   1.00
O801   O     0.50000   0.10559   0.79510   0.00000  Uiso   1.00
O802   O     0.50000   0.22774   0.87157   0.00000  Uiso   1.00
C803   C     0.50160   0.08674   0.83339   0.00000  Uiso   1.00
C804   C     0.49840   0.24659   0.83328   0.00000  Uiso   1.00
O805   O     0.42392   0.16666   0.86261   0.00000  Uiso   1.00
O806   O     0.57608   0.16667   0.80405   0.00000  Uiso   1.00
O807   O     0.42392   0.16667   0.78617   0.00000  Uiso   1.00
O808   O     0.57608   0.16666   0.88050   0.00000  Uiso   1.00
C809   C     0.40037   0.16657   0.82136   0.00000  Uiso   1.00
C810   C     0.59963   0.16676   0.84530   0.00000  Uiso   1.00
Zn811  Zn    0.50000   0.16666   0.88437   0.00000  Uiso   1.00
Zn812  Zn    0.50000   0.16667   0.78229   0.00000  Uiso   1.00
N813   N     0.49999   0.16666   0.95240   0.00000  Uiso   1.00
N814   N     0.50001   0.16668   0.71427   0.00000  Uiso   1.00
C815   C     0.34533   0.16667   0.81493   0.00000  Uiso   1.00
C816   C     0.65467   0.16666   0.85174   0.00000  Uiso   1.00
H817   H     0.65803   0.16682   0.78001   0.00000  Uiso   1.00
H818   H     0.34197   0.16651   0.88666   0.00000  Uiso   1.00
C819   C     0.46911   0.02226   0.79870   0.00000  Uiso   1.00
C820   C     0.53090   0.31107   0.86797   0.00000  Uiso   1.00
C821   C     0.46510   0.31267   0.79885   0.00000  Uiso   1.00
C822   C     0.53491   0.02067   0.86782   0.00000  Uiso   1.00
C823   C     0.49698   0.29075   0.83359   0.00000  Uiso   1.00
C824   C     0.50303   0.04258   0.83308   0.00000  Uiso   1.00
C825   C     0.53220   0.19295   0.69499   0.00000  Uiso   1.00
C826   C     0.46780   0.14038   0.97167   0.00000  Uiso   1.00
H827   H     0.55797   0.21398   0.71661   0.00000  Uiso   1.00
H828   H     0.44203   0.11935   0.95005   0.00000  Uiso   1.00
C829   C     0.53218   0.19295   0.98040   0.00000  Uiso   1.00
C830   C     0.46782   0.14039   0.68627   0.00000  Uiso   1.00
H831   H     0.55792   0.21398   0.96575   0.00000  Uiso   1.00
H832   H     0.44208   0.11936   0.70091   0.00000  Uiso   1.00
H833   H     0.44402   0.04004   0.77295   0.00000  Uiso   1.00
H834   H     0.55598   0.29329   0.89371   0.00000  Uiso   1.00
N835   N     0.42734   0.29216   0.76515   0.00000  Uiso   1.00
O836   O     0.39852   0.26192   0.77699   0.00000  Uiso   1.00
O837   O     0.41628   0.30757   0.72418   0.00000  Uiso   1.00
N838   N     0.57267   0.04117   0.90151   0.00000  Uiso   1.00
O839   O     0.60147   0.07142   0.88967   0.00000  Uiso   1.00
O840   O     0.58375   0.02576   0.94247   0.00000  Uiso   1.00
O841   O     0.83333   0.10558   0.87154   0.00000  Uiso   1.00
O842   O     0.83334   0.22775   0.79513   0.00000  Uiso   1.00
O843   O     0.83333   0.10559   0.79510   0.00000  Uiso   1.00
O844   O     0.83334   0.22774   0.87157   0.00000  Uiso   1.00
C845   C     0.83493   0.08674   0.83339   0.00000  Uiso   1.00
C846   C     0.83173   0.24659   0.83328   0.00000  Uiso   1.00
O847   O     0.75725   0.16666   0.86261   0.00000  Uiso   1.00
O848   O     0.90942   0.16667   0.80405   0.00000  Uiso   1.00
O849   O     0.75725   0.16667   0.78617   0.00000  Uiso   1.00
O850   O     0.90942   0.16666   0.88050   0.00000  Uiso   1.00
C851   C     0.73371   0.16657   0.82136   0.00000  Uiso   1.00
C852   C     0.93296   0.16676   0.84530   0.00000  Uiso   1.00
Zn853  Zn    0.83333   0.16666   0.88437   0.00000  Uiso   1.00
Zn854  Zn    0.83333   0.16667   0.78229   0.00000  Uiso   1.00
N855   N     0.83332   0.16666   0.95240   0.00000  Uiso   1.00
N856   N     0.83335   0.16668   0.71427   0.00000  Uiso   1.00
C857   C     0.67866   0.16667   0.81493   0.00000  Uiso   1.00
C858   C     0.98801   0.16666   0.85174   0.00000  Uiso   1.00
H859   H     0.99136   0.16682   0.78001   0.00000  Uiso   1.00
H860   H     0.67531   0.16651   0.88666   0.00000  Uiso   1.00
C861   C     0.80244   0.02226   0.79870   0.00000  Uiso   1.00
C862   C     0.86423   0.31107   0.86797   0.00000  Uiso   1.00
C863   C     0.79843   0.31267   0.79885   0.00000  Uiso   1.00
C864   C     0.86824   0.02067   0.86782   0.00000  Uiso   1.00
C865   C     0.83031   0.29075   0.83359   0.00000  Uiso   1.00
C866   C     0.83636   0.04258   0.83308   0.00000  Uiso   1.00
C867   C     0.86553   0.19295   0.69499   0.00000  Uiso   1.00
C868   C     0.80113   0.14038   0.97167   0.00000  Uiso   1.00
H869   H     0.89131   0.21398   0.71661   0.00000  Uiso   1.00
H870   H     0.77536   0.11935   0.95005   0.00000  Uiso   1.00
C871   C     0.86551   0.19295   0.98040   0.00000  Uiso   1.00
C872   C     0.80115   0.14039   0.68627   0.00000  Uiso   1.00
H873   H     0.89126   0.21398   0.96575   0.00000  Uiso   1.00
H874   H     0.77541   0.11936   0.70091   0.00000  Uiso   1.00
H875   H     0.77736   0.04004   0.77295   0.00000  Uiso   1.00
H876   H     0.88931   0.29329   0.89371   0.00000  Uiso   1.00
N877   N     0.76067   0.29216   0.76515   0.00000  Uiso   1.00
O878   O     0.73186   0.26192   0.77699   0.00000  Uiso   1.00
O879   O     0.74961   0.30757   0.72418   0.00000  Uiso   1.00
N880   N     0.90601   0.04117   0.90151   0.00000  Uiso   1.00
O881   O     0.93481   0.07142   0.88967   0.00000  Uiso   1.00
O882   O     0.91709   0.02576   0.94247   0.00000  Uiso   1.00
O883   O     0.16666   0.43892   0.87154   0.00000  Uiso   1.00
O884   O     0.16667   0.56108   0.79513   0.00000  Uiso   1.00
O885   O     0.16666   0.43893   0.79510   0.00000  Uiso   1.00
O886   O     0.16667   0.56107   0.87157   0.00000  Uiso   1.00
C887   C     0.16827   0.42008   0.83339   0.00000  Uiso   1.00
C888   C     0.16507   0.57992   0.83328   0.00000  Uiso   1.00
O889   O     0.09058   0.50000   0.86261   0.00000  Uiso   1.00
O890   O     0.24275   0.50000   0.80405   0.00000  Uiso   1.00
O891   O     0.09058   0.50000   0.78617   0.00000  Uiso   1.00
O892   O     0.24275   0.50000   0.88050   0.00000  Uiso   1.00
C893   C     0.06704   0.49991   0.82136   0.00000  Uiso   1.00
C894   C     0.26629   0.50009   0.84530   0.00000  Uiso   1.00
Zn895  Zn    0.16667   0.49999   0.88437   0.00000  Uiso   1.00
Zn896  Zn    0.16667   0.50001   0.78229   0.00000  Uiso   1.00
N897   N     0.16665   0.49999   0.95240   0.00000  Uiso   1.00
N898   N     0.16668   0.50001   0.71427   0.00000  Uiso   1.00
C899   C     0.01199   0.50001   0.81493   0.00000  Uiso   1.00
C900   C     0.32134   0.49999   0.85174   0.00000  Uiso   1.00
H901   H     0.32469   0.50016   0.78001   0.00000  Uiso   1.00
H902   H     0.00864   0.49984   0.88666   0.00000  Uiso   1.00
C903   C     0.13577   0.35560   0.79870   0.00000  Uiso   1.00
C904   C     0.19756   0.64440   0.86797   0.00000  Uiso   1.00
C905   C     0.13176   0.64600   0.79885   0.00000  Uiso   1.00
C906   C     0.20158   0.35400   0.86782   0.00000  Uiso   1.00
C907   C     0.16364   0.62408   0.83359   0.00000  Uiso   1.00
C908   C     0.16969   0.37592   0.83308   0.00000  Uiso   1.00
C909   C     0.19887   0.52629   0.69499   0.00000  Uiso   1.00
C910   C     0.13447   0.47371   0.97167   0.00000  Uiso   1.00
H911   H     0.22464   0.54731   0.71661   0.00000  Uiso   1.00
H912   H     0.10870   0.45269   0.95005   0.00000  Uiso   1.00
C913   C     0.19885   0.52628   0.98040   0.00000  Uiso   1.00
C914   C     0.13449   0.47372   0.68627   0.00000  Uiso   1.00
H915   H     0.22459   0.54731   0.96575   0.00000  Uiso   1.00
H916   H     0.10874   0.45269   0.70091   0.00000  Uiso   1.00
H917   H     0.11069   0.37338   0.77295   0.00000  Uiso   1.00
H918   H     0.22265   0.62662   0.89371   0.00000  Uiso   1.00
N919   N     0.09401   0.62550   0.76515   0.00000  Uiso   1.00
O920   O     0.06519   0.59525   0.77699   0.00000  Uiso   1.00
O921   O     0.08295   0.64090   0.72418   0.00000  Uiso   1.00
N922   N     0.23934   0.37450   0.90151   0.00000  Uiso   1.00
O923   O     0.26814   0.40476   0.88967   0.00000  Uiso   1.00
O924   O     0.25042   0.35909   0.94247   0.00000  Uiso   1.00
O925   O     0.50000   0.43892   0.87154   0.00000  Uiso   1.00
O926   O     0.50000   0.56108   0.79513   0.00000  Uiso   1.00
O927   O     0.50000   0.43893   0.79510   0.00000  Uiso   1.00
O928   O     0.50000   0.56107   0.87157   0.00000  Uiso   1.00
C929   C     0.50160   0.42008   0.83339   0.00000  Uiso   1.00
C930   C     0.49840   0.57992   0.83328   0.00000  Uiso   1.00
O931   O     0.42392   0.50000   0.86261   0.00000  Uiso   1.00
O932   O     0.57608   0.50000   0.80405   0.00000  Uiso   1.00
O933   O     0.42392   0.50000   0.78617   0.00000  Uiso   1.00
O934   O     0.57608   0.50000   0.88050   0.00000  Uiso   1.00
C935   C     0.40037   0.49991   0.82136   0.00000  Uiso   1.00
C936   C     0.59963   0.50009   0.84530   0.00000  Uiso   1.00
Zn937  Zn    0.50000   0.49999   0.88437   0.00000  Uiso   1.00
Zn938  Zn    0.50000   0.50001   0.78229   0.00000  Uiso   1.00
N939   N     0.49999   0.49999   0.95240   0.00000  Uiso   1.00
N940   N     0.50001   0.50001   0.71427   0.00000  Uiso   1.00
C941   C     0.34533   0.50001   0.81493   0.00000  Uiso   1.00
C942   C     0.65467   0.49999   0.85174   0.00000  Uiso   1.00
H943   H     0.65803   0.50016   0.78001   0.00000  Uiso   1.00
H944   H     0.34197   0.49984   0.88666   0.00000  Uiso   1.00
C945   C     0.46911   0.35560   0.79870   0.00000  Uiso   1.00
C946   C     0.53090   0.64440   0.86797   0.00000  Uiso   1.00
C947   C     0.46510   0.64600   0.79885   0.00000  Uiso   1.00
C948   C     0.53491   0.35400   0.86782   0.00000  Uiso   1.00
C949   C     0.49698   0.62408   0.83359   0.00000  Uiso   1.00
C950   C     0.50303   0.37592   0.83308   0.00000  Uiso   1.00
C951   C     0.53220   0.52629   0.69499   0.00000  Uiso   1.00
C952   C     0.46780   0.47371   0.97167   0.00000  Uiso   1.00
H953   H     0.55797   0.54731   0.71661   0.00000  Uiso   1.00
H954   H     0.44203   0.45269   0.95005   0.00000  Uiso   1.00
C955   C     0.53218   0.52628   0.98040   0.00000  Uiso   1.00
C956   C     0.46782   0.47372   0.68627   0.00000  Uiso   1.00
H957   H     0.55792   0.54731   0.96575   0.00000  Uiso   1.00
H958   H     0.44208   0.45269   0.70091   0.00000  Uiso   1.00
H959   H     0.44402   0.37338   0.77295   0.00000  Uiso   1.00
H960   H     0.55598   0.62662   0.89371   0.00000  Uiso   1.00
N961   N     0.42734   0.62550   0.76515   0.00000  Uiso   1.00
O962   O     0.39852   0.59525   0.77699   0.00000  Uiso   1.00
O963   O     0.41628   0.64090   0.72418   0.00000  Uiso   1.00
N964   N     0.57267   0.37450   0.90151   0.00000  Uiso   1.00
O965   O     0.60147   0.40476   0.88967   0.00000  Uiso   1.00
O966   O     0.58375   0.35909   0.94247   0.00000  Uiso   1.00
O967   O     0.83333   0.43892   0.87154   0.00000  Uiso   1.00
O968   O     0.83334   0.56108   0.79513   0.00000  Uiso   1.00
O969   O     0.83333   0.43893   0.79510   0.00000  Uiso   1.00
O970   O     0.83334   0.56107   0.87157   0.00000  Uiso   1.00
C971   C     0.83493   0.42008   0.83339   0.00000  Uiso   1.00
C972   C     0.83173   0.57992   0.83328   0.00000  Uiso   1.00
O973   O     0.75725   0.50000   0.86261   0.00000  Uiso   1.00
O974   O     0.90942   0.50000   0.80405   0.00000  Uiso   1.00
O975   O     0.75725   0.50000   0.78617   0.00000  Uiso   1.00
O976   O     0.90942   0.50000   0.88050   0.00000  Uiso   1.00
C977   C     0.73371   0.49991   0.82136   0.00000  Uiso   1.00
C978   C     0.93296   0.50009   0.84530   0.00000  Uiso   1.00
Zn979  Zn    0.83333   0.49999   0.88437   0.00000  Uiso   1.00
Zn980  Zn    0.83333   0.50001   0.78229   0.00000  Uiso   1.00
N981   N     0.83332   0.49999   0.95240   0.00000  Uiso   1.00
N982   N     0.83335   0.50001   0.71427   0.00000  Uiso   1.00
C983   C     0.67866   0.50001   0.81493   0.00000  Uiso   1.00
C984   C     0.98801   0.49999   0.85174   0.00000  Uiso   1.00
H985   H     0.99136   0.50016   0.78001   0.00000  Uiso   1.00
H986   H     0.67531   0.49984   0.88666   0.00000  Uiso   1.00
C987   C     0.80244   0.35560   0.79870   0.00000  Uiso   1.00
C988   C     0.86423   0.64440   0.86797   0.00000  Uiso   1.00
C989   C     0.79843   0.64600   0.79885   0.00000  Uiso   1.00
C990   C     0.86824   0.35400   0.86782   0.00000  Uiso   1.00
C991   C     0.83031   0.62408   0.83359   0.00000  Uiso   1.00
C992   C     0.83636   0.37592   0.83308   0.00000  Uiso   1.00
C993   C     0.86553   0.52629   0.69499   0.00000  Uiso   1.00
C994   C     0.80113   0.47371   0.97167   0.00000  Uiso   1.00
H995   H     0.89131   0.54731   0.71661   0.00000  Uiso   1.00
H996   H     0.77536   0.45269   0.95005   0.00000  Uiso   1.00
C997   C     0.86551   0.52628   0.98040   0.00000  Uiso   1.00
C998   C     0.80115   0.47372   0.68627   0.00000  Uiso   1.00
H999   H     0.89126   0.54731   0.96575   0.00000  Uiso   1.00
H1000  H     0.77541   0.45269   0.70091   0.00000  Uiso   1.00
H1001  H     0.77736   0.37338   0.77295   0.00000  Uiso   1.00
H1002  H     0.88931   0.62662   0.89371   0.00000  Uiso   1.00
N1003  N     0.76067   0.62550   0.76515   0.00000  Uiso   1.00
O1004  O     0.73186   0.59525   0.77699   0.00000  Uiso   1.00
O1005  O     0.74961   0.64090   0.72418   0.00000  Uiso   1.00
N1006  N     0.90601   0.37450   0.90151   0.00000  Uiso   1.00
O1007  O     0.93481   0.40476   0.88967   0.00000  Uiso   1.00
O1008  O     0.91709   0.35909   0.94247   0.00000  Uiso   1.00
O1009  O     0.16666   0.77225   0.87154   0.00000  Uiso   1.00
O1010  O     0.16667   0.89442   0.79513   0.00000  Uiso   1.00
O1011  O     0.16666   0.77226   0.79510   0.00000  Uiso   1.00
O1012  O     0.16667   0.89441   0.87157   0.00000  Uiso   1.00
C1013  C     0.16827   0.75341   0.83339   0.00000  Uiso   1.00
C1014  C     0.16507   0.91326   0.83328   0.00000  Uiso   1.00
O1015  O     0.09058   0.83333   0.86261   0.00000  Uiso   1.00
O1016  O     0.24275   0.83334   0.80405   0.00000  Uiso   1.00
O1017  O     0.09058   0.83334   0.78617   0.00000  Uiso   1.00
O1018  O     0.24275   0.83333   0.88050   0.00000  Uiso   1.00
C1019  C     0.06704   0.83324   0.82136   0.00000  Uiso   1.00
C1020  C     0.26629   0.83343   0.84530   0.00000  Uiso   1.00
Zn1021 Zn    0.16667   0.83333   0.88437   0.00000  Uiso   1.00
Zn1022 Zn    0.16667   0.83334   0.78229   0.00000  Uiso   1.00
N1023  N     0.16665   0.83332   0.95240   0.00000  Uiso   1.00
N1024  N     0.16668   0.83334   0.71427   0.00000  Uiso   1.00
C1025  C     0.01199   0.83334   0.81493   0.00000  Uiso   1.00
C1026  C     0.32134   0.83333   0.85174   0.00000  Uiso   1.00
H1027  H     0.32469   0.83349   0.78001   0.00000  Uiso   1.00
H1028  H     0.00864   0.83318   0.88666   0.00000  Uiso   1.00
C1029  C     0.13577   0.68893   0.79870   0.00000  Uiso   1.00
C1030  C     0.19756   0.97773   0.86797   0.00000  Uiso   1.00
C1031  C     0.13176   0.97933   0.79885   0.00000  Uiso   1.00
C1032  C     0.20158   0.68733   0.86782   0.00000  Uiso   1.00
C1033  C     0.16364   0.95742   0.83359   0.00000  Uiso   1.00
C1034  C     0.16969   0.70925   0.83308   0.00000  Uiso   1.00
C1035  C     0.19887   0.85962   0.69499   0.00000  Uiso   1.00
C1036  C     0.13447   0.80705   0.97167   0.00000  Uiso   1.00
H1037  H     0.22464   0.88065   0.71661   0.00000  Uiso   1.00
H1038  H     0.10870   0.78602   0.95005   0.00000  Uiso   1.00
C1039  C     0.19885   0.85961   0.98040   0.00000  Uiso   1.00
C1040  C     0.13449   0.80705   0.68627   0.00000  Uiso   1.00
H1041  H     0.22459   0.88064   0.96575   0.00000  Uiso   1.00
H1042  H     0.10874   0.78602   0.70091   0.00000  Uiso   1.00
H1043  H     0.11069   0.70671   0.77295   0.00000  Uiso   1.00
H1044  H     0.22265   0.95996   0.89371   0.00000  Uiso   1.00
N1045  N     0.09401   0.95883   0.76515   0.00000  Uiso   1.00
O1046  O     0.06519   0.92858   0.77699   0.00000  Uiso   1.00
O1047  O     0.08295   0.97424   0.72418   0.00000  Uiso   1.00
N1048  N     0.23934   0.70784   0.90151   0.00000  Uiso   1.00
O1049  O     0.26814   0.73809   0.88967   0.00000  Uiso   1.00
O1050  O     0.25042   0.69242   0.94247   0.00000  Uiso   1.00
O1051  O     0.50000   0.77225   0.87154   0.00000  Uiso   1.00
O1052  O     0.50000   0.89442   0.79513   0.00000  Uiso   1.00
O1053  O     0.50000   0.77226   0.79510   0.00000  Uiso   1.00
O1054  O     0.50000   0.89441   0.87157   0.00000  Uiso   1.00
C1055  C     0.50160   0.75341   0.83339   0.00000  Uiso   1.00
C1056  C     0.49840   0.91326   0.83328   0.00000  Uiso   1.00
O1057  O     0.42392   0.83333   0.86261   0.00000  Uiso   1.00
O1058  O     0.57608   0.83334   0.80405   0.00000  Uiso   1.00
O1059  O     0.42392   0.83334   0.78617   0.00000  Uiso   1.00
O1060  O     0.57608   0.83333   0.88050   0.00000  Uiso   1.00
C1061  C     0.40037   0.83324   0.82136   0.00000  Uiso   1.00
C1062  C     0.59963   0.83343   0.84530   0.00000  Uiso   1.00
Zn1063 Zn    0.50000   0.83333   0.88437   0.00000  Uiso   1.00
Zn1064 Zn    0.50000   0.83334   0.78229   0.00000  Uiso   1.00
N1065  N     0.49999   0.83332   0.95240   0.00000  Uiso   1.00
N1066  N     0.50001   0.83334   0.71427   0.00000  Uiso   1.00
C1067  C     0.34533   0.83334   0.81493   0.00000  Uiso   1.00
C1068  C     0.65467   0.83333   0.85174   0.00000  Uiso   1.00
H1069  H     0.65803   0.83349   0.78001   0.00000  Uiso   1.00
H1070  H     0.34197   0.83318   0.88666   0.00000  Uiso   1.00
C1071  C     0.46911   0.68893   0.79870   0.00000  Uiso   1.00
C1072  C     0.53090   0.97773   0.86797   0.00000  Uiso   1.00
C1073  C     0.46510   0.97933   0.79885   0.00000  Uiso   1.00
C1074  C     0.53491   0.68733   0.86782   0.00000  Uiso   1.00
C1075  C     0.49698   0.95742   0.83359   0.00000  Uiso   1.00
C1076  C     0.50303   0.70925   0.83308   0.00000  Uiso   1.00
C1077  C     0.53220   0.85962   0.69499   0.00000  Uiso   1.00
C1078  C     0.46780   0.80705   0.97167   0.00000  Uiso   1.00
H1079  H     0.55797   0.88065   0.71661   0.00000  Uiso   1.00
H1080  H     0.44203   0.78602   0.95005   0.00000  Uiso   1.00
C1081  C     0.53218   0.85961   0.98040   0.00000  Uiso   1.00
C1082  C     0.46782   0.80705   0.68627   0.00000  Uiso   1.00
H1083  H     0.55792   0.88064   0.96575   0.00000  Uiso   1.00
H1084  H     0.44208   0.78602   0.70091   0.00000  Uiso   1.00
H1085  H     0.44402   0.70671   0.77295   0.00000  Uiso   1.00
H1086  H     0.55598   0.95996   0.89371   0.00000  Uiso   1.00
N1087  N     0.42734   0.95883   0.76515   0.00000  Uiso   1.00
O1088  O     0.39852   0.92858   0.77699   0.00000  Uiso   1.00
O1089  O     0.41628   0.97424   0.72418   0.00000  Uiso   1.00
N1090  N     0.57267   0.70784   0.90151   0.00000  Uiso   1.00
O1091  O     0.60147   0.73809   0.88967   0.00000  Uiso   1.00
O1092  O     0.58375   0.69242   0.94247   0.00000  Uiso   1.00
O1093  O     0.83333   0.77225   0.87154   0.00000  Uiso   1.00
O1094  O     0.83334   0.89442   0.79513   0.00000  Uiso   1.00
O1095  O     0.83333   0.77226   0.79510   0.00000  Uiso   1.00
O1096  O     0.83334   0.89441   0.87157   0.00000  Uiso   1.00
C1097  C     0.83493   0.75341   0.83339   0.00000  Uiso   1.00
C1098  C     0.83173   0.91326   0.83328   0.00000  Uiso   1.00
O1099  O     0.75725   0.83333   0.86261   0.00000  Uiso   1.00
O1100  O     0.90942   0.83334   0.80405   0.00000  Uiso   1.00
O1101  O     0.75725   0.83334   0.78617   0.00000  Uiso   1.00
O1102  O     0.90942   0.83333   0.88050   0.00000  Uiso   1.00
C1103  C     0.73371   0.83324   0.82136   0.00000  Uiso   1.00
C1104  C     0.93296   0.83343   0.84530   0.00000  Uiso   1.00
Zn1105 Zn    0.83333   0.83333   0.88437   0.00000  Uiso   1.00
Zn1106 Zn    0.83333   0.83334   0.78229   0.00000  Uiso   1.00
N1107  N     0.83332   0.83332   0.95240   0.00000  Uiso   1.00
N1108  N     0.83335   0.83334   0.71427   0.00000  Uiso   1.00
C1109  C     0.67866   0.83334   0.81493   0.00000  Uiso   1.00
C1110  C     0.98801   0.83333   0.85174   0.00000  Uiso   1.00
H1111  H     0.99136   0.83349   0.78001   0.00000  Uiso   1.00
H1112  H     0.67531   0.83318   0.88666   0.00000  Uiso   1.00
C1113  C     0.80244   0.68893   0.79870   0.00000  Uiso   1.00
C1114  C     0.86423   0.97773   0.86797   0.00000  Uiso   1.00
C1115  C     0.79843   0.97933   0.79885   0.00000  Uiso   1.00
C1116  C     0.86824   0.68733   0.86782   0.00000  Uiso   1.00
C1117  C     0.83031   0.95742   0.83359   0.00000  Uiso   1.00
C1118  C     0.83636   0.70925   0.83308   0.00000  Uiso   1.00
C1119  C     0.86553   0.85962   0.69499   0.00000  Uiso   1.00
C1120  C     0.80113   0.80705   0.97167   0.00000  Uiso   1.00
H1121  H     0.89131   0.88065   0.71661   0.00000  Uiso   1.00
H1122  H     0.77536   0.78602   0.95005   0.00000  Uiso   1.00
C1123  C     0.86551   0.85961   0.98040   0.00000  Uiso   1.00
C1124  C     0.80115   0.80705   0.68627   0.00000  Uiso   1.00
H1125  H     0.89126   0.88064   0.96575   0.00000  Uiso   1.00
H1126  H     0.77541   0.78602   0.70091   0.00000  Uiso   1.00
H1127  H     0.77736   0.70671   0.77295   0.00000  Uiso   1.00
H1128  H     0.88931   0.95996   0.89371   0.00000  Uiso   1.00
N1129  N     0.76067   0.95883   0.76515   0.00000  Uiso   1.00
O1130  O     0.73186   0.92858   0.77699   0.00000  Uiso   1.00
O1131  O     0.74961   0.97424   0.72418   0.00000  Uiso   1.00
N1132  N     0.90601   0.70784   0.90151   0.00000  Uiso   1.00
O1133  O     0.93481   0.73809   0.88967   0.00000  Uiso   1.00
O1134  O     0.91709   0.69242   0.94247   0.00000  Uiso   1.00
loop_
_geom_bond_atom_site_label_1
_geom_bond_atom_site_label_2
_geom_bond_distance
_geom_bond_site_symmetry_2
_ccdc_geom_bond_type
O1     C5      1.282   .     A
O1     Zn13    1.988   .     S
O2     C6      1.282   .     A
O2     Zn14    1.988   .     S
O3     Zn14    1.992   .     S
O3     C5      1.281   .     A
O4     C6      1.281   .     A
O4     Zn13    1.992   .     S
C5     C26     1.413   .     S
C6     C25     1.413   .     S
O7     C11     1.278   .     A
O7     Zn13    1.970   .     S
O8     C12     1.278   .     A
O8     Zn14    1.970   .     S
O9     Zn14    1.981   .     S
O9     C11     1.281   .     A
O10    C12     1.281   .     A
O10    Zn13    1.981   .     S
C11    C17     1.403   .     S
C12    C18     1.403   .     S
Zn13   N15     2.012   .     S
Zn14   N16     2.012   .     S
N15    C31     1.367   .     A
N15    C28     1.367   .     A
N16    C27     1.367   .     A
N16    C32     1.367   .     A
C17    C102    1.330   1_455 S
C17    H103    1.088   1_455 S
C18    C59     1.330   .     S
C18    H62     1.088   .     S
H19    C59     1.088   .     S
H20    C102    1.088   1_455 S
C21    H35     1.085   .     S
C21    C26     1.395   .     A
C21    C275    1.377   1_545 S
C22    H36     1.085   .     S
C22    C25     1.395   .     A
C22    C150    1.377   .     S
C23    C25     1.405   .     A
C23    N37     1.439   .     S
C23    C147    1.377   .     S
C24    C26     1.405   .     A
C24    N40     1.439   .     S
C24    C274    1.377   1_545 S
C27    H29     1.082   .     S
C27    C787    1.417   1_554 S
C28    H30     1.082   .     S
C28    C410    1.417   .     S
C31    H33     1.082   .     S
C31    C405    1.417   .     S
C32    H34     1.082   .     S
C32    C784    1.417   1_554 S
N37    O38     1.301   .     A
N37    O39     1.302   .     A
N40    O42     1.302   .     A
N40    O41     1.301   .     A
O43    C47     1.282   .     A
O43    Zn55    1.988   .     S
O44    C48     1.282   .     A
O44    Zn56    1.988   .     S
O45    Zn56    1.992   .     S
O45    C47     1.281   .     A
O46    C48     1.281   .     A
O46    Zn55    1.992   .     S
C47    C68     1.413   .     S
C48    C67     1.413   .     S
O49    C53     1.278   .     A
O49    Zn55    1.970   .     S
O50    C54     1.278   .     A
O50    Zn56    1.970   .     S
O51    Zn56    1.981   .     S
O51    C53     1.281   .     A
O52    C54     1.281   .     A
O52    Zn55    1.981   .     S
C53    C59     1.403   .     S
C54    C60     1.403   .     S
Zn55   N57     2.012   .     S
Zn56   N58     2.012   .     S
N57    C73     1.367   .     A
N57    C70     1.367   .     A
N58    C69     1.367   .     A
N58    C74     1.367   .     A
C60    C101    1.330   .     S
C60    H104    1.088   .     S
H61    C101    1.088   .     S
C63    H77     1.085   .     S
C63    C68     1.395   .     A
C63    C317    1.377   1_545 S
C64    H78     1.085   .     S
C64    C67     1.395   .     A
C64    C192    1.377   .     S
C65    C67     1.405   .     A
C65    N79     1.439   .     S
C65    C189    1.377   .     S
C66    C68     1.405   .     A
C66    N82     1.439   .     S
C66    C316    1.377   1_545 S
C69    H71     1.082   .     S
C69    C829    1.417   1_554 S
C70    H72     1.082   .     S
C70    C452    1.417   .     S
C73    H75     1.082   .     S
C73    C447    1.417   .     S
C74    H76     1.082   .     S
C74    C826    1.417   1_554 S
N79    O80     1.301   .     A
N79    O81     1.302   .     A
N82    O84     1.302   .     A
N82    O83     1.301   .     A
O85    C89     1.282   .     A
O85    Zn97    1.988   .     S
O86    C90     1.282   .     A
O86    Zn98    1.988   .     S
O87    Zn98    1.992   .     S
O87    C89     1.281   .     A
O88    C90     1.281   .     A
O88    Zn97    1.992   .     S
C89    C110    1.413   .     S
C90    C109    1.413   .     S
O91    C95     1.278   .     A
O91    Zn97    1.970   .     S
O92    C96     1.278   .     A
O92    Zn98    1.970   .     S
O93    Zn98    1.981   .     S
O93    C95     1.281   .     A
O94    C96     1.281   .     A
O94    Zn97    1.981   .     S
C95    C101    1.403   .     S
C96    C102    1.403   .     S
Zn97   N99     2.012   .     S
Zn98   N100    2.012   .     S
N99    C115    1.367   .     A
N99    C112    1.367   .     A
N100   C111    1.367   .     A
N100   C116    1.367   .     A
C102   C17     1.330   1_655 S
C102   H20     1.088   1_655 S
H103   C17     1.088   1_655 S
C105   H119    1.085   .     S
C105   C110    1.395   .     A
C105   C359    1.377   1_545 S
C106   H120    1.085   .     S
C106   C109    1.395   .     A
C106   C234    1.377   .     S
C107   C109    1.405   .     A
C107   N121    1.439   .     S
C107   C231    1.377   .     S
C108   C110    1.405   .     A
C108   N124    1.439   .     S
C108   C358    1.377   1_545 S
C111   H113    1.082   .     S
C111   C871    1.417   1_554 S
C112   H114    1.082   .     S
C112   C494    1.417   .     S
C115   H117    1.082   .     S
C115   C489    1.417   .     S
C116   H118    1.082   .     S
C116   C868    1.417   1_554 S
N121   O122    1.301   .     A
N121   O123    1.302   .     A
N124   O126    1.302   .     A
N124   O125    1.301   .     A
O127   C131    1.282   .     A
O127   Zn139   1.988   .     S
O128   C132    1.282   .     A
O128   Zn140   1.988   .     S
O129   Zn140   1.992   .     S
O129   C131    1.281   .     A
O130   C132    1.281   .     A
O130   Zn139   1.992   .     S
C131   C152    1.413   .     S
C132   C151    1.413   .     S
O133   C137    1.278   .     A
O133   Zn139   1.970   .     S
O134   C138    1.278   .     A
O134   Zn140   1.970   .     S
O135   Zn140   1.981   .     S
O135   C137    1.281   .     A
O136   C138    1.281   .     A
O136   Zn139   1.981   .     S
C137   C143    1.403   .     S
C138   C144    1.403   .     S
Zn139  N141    2.012   .     S
Zn140  N142    2.012   .     S
N141   C157    1.367   .     A
N141   C154    1.367   .     A
N142   C153    1.367   .     A
N142   C158    1.367   .     A
C143   C228    1.330   1_455 S
C143   H229    1.088   1_455 S
C144   C185    1.330   .     S
C144   H188    1.088   .     S
H145   C185    1.088   .     S
H146   C228    1.088   1_455 S
C147   H161    1.085   .     S
C147   C152    1.395   .     A
C148   H162    1.085   .     S
C148   C151    1.395   .     A
C148   C276    1.377   .     S
C149   C151    1.405   .     A
C149   N163    1.439   .     S
C149   C273    1.377   .     S
C150   C152    1.405   .     A
C150   N166    1.439   .     S
C153   H155    1.082   .     S
C153   C913    1.417   1_554 S
C154   H156    1.082   .     S
C154   C536    1.417   .     S
C157   H159    1.082   .     S
C157   C531    1.417   .     S
C158   H160    1.082   .     S
C158   C910    1.417   1_554 S
N163   O164    1.301   .     A
N163   O165    1.302   .     A
N166   O168    1.302   .     A
N166   O167    1.301   .     A
O169   C173    1.282   .     A
O169   Zn181   1.988   .     S
O170   C174    1.282   .     A
O170   Zn182   1.988   .     S
O171   Zn182   1.992   .     S
O171   C173    1.281   .     A
O172   C174    1.281   .     A
O172   Zn181   1.992   .     S
C173   C194    1.413   .     S
C174   C193    1.413   .     S
O175   C179    1.278   .     A
O175   Zn181   1.970   .     S
O176   C180    1.278   .     A
O176   Zn182   1.970   .     S
O177   Zn182   1.981   .     S
O177   C179    1.281   .     A
O178   C180    1.281   .     A
O178   Zn181   1.981   .     S
C179   C185    1.403   .     S
C180   C186    1.403   .     S
Zn181  N183    2.012   .     S
Zn182  N184    2.012   .     S
N183   C199    1.367   .     A
N183   C196    1.367   .     A
N184   C195    1.367   .     A
N184   C200    1.367   .     A
C186   C227    1.330   .     S
C186   H230    1.088   .     S
H187   C227    1.088   .     S
C189   H203    1.085   .     S
C189   C194    1.395   .     A
C190   H204    1.085   .     S
C190   C193    1.395   .     A
C190   C318    1.377   .     S
C191   C193    1.405   .     A
C191   N205    1.439   .     S
C191   C315    1.377   .     S
C192   C194    1.405   .     A
C192   N208    1.439   .     S
C195   H197    1.082   .     S
C195   C955    1.417   1_554 S
C196   H198    1.082   .     S
C196   C578    1.417   .     S
C199   H201    1.082   .     S
C199   C573    1.417   .     S
C200   H202    1.082   .     S
C200   C952    1.417   1_554 S
N205   O206    1.301   .     A
N205   O207    1.302   .     A
N208   O210    1.302   .     A
N208   O209    1.301   .     A
O211   C215    1.282   .     A
O211   Zn223   1.988   .     S
O212   C216    1.282   .     A
O212   Zn224   1.988   .     S
O213   Zn224   1.992   .     S
O213   C215    1.281   .     A
O214   C216    1.281   .     A
O214   Zn223   1.992   .     S
C215   C236    1.413   .     S
C216   C235    1.413   .     S
O217   C221    1.278   .     A
O217   Zn223   1.970   .     S
O218   C222    1.278   .     A
O218   Zn224   1.970   .     S
O219   Zn224   1.981   .     S
O219   C221    1.281   .     A
O220   C222    1.281   .     A
O220   Zn223   1.981   .     S
C221   C227    1.403   .     S
C222   C228    1.403   .     S
Zn223  N225    2.012   .     S
Zn224  N226    2.012   .     S
N225   C241    1.367   .     A
N225   C238    1.367   .     A
N226   C237    1.367   .     A
N226   C242    1.367   .     A
C228   C143    1.330   1_655 S
C228   H146    1.088   1_655 S
H229   C143    1.088   1_655 S
C231   H245    1.085   .     S
C231   C236    1.395   .     A
C232   H246    1.085   .     S
C232   C235    1.395   .     A
C232   C360    1.377   .     S
C233   C235    1.405   .     A
C233   N247    1.439   .     S
C233   C357    1.377   .     S
C234   C236    1.405   .     A
C234   N250    1.439   .     S
C237   H239    1.082   .     S
C237   C997    1.417   1_554 S
C238   H240    1.082   .     S
C238   C620    1.417   .     S
C241   H243    1.082   .     S
C241   C615    1.417   .     S
C242   H244    1.082   .     S
C242   C994    1.417   1_554 S
N247   O248    1.301   .     A
N247   O249    1.302   .     A
N250   O252    1.302   .     A
N250   O251    1.301   .     A
O253   C257    1.282   .     A
O253   Zn265   1.988   .     S
O254   C258    1.282   .     A
O254   Zn266   1.988   .     S
O255   Zn266   1.992   .     S
O255   C257    1.281   .     A
O256   C258    1.281   .     A
O256   Zn265   1.992   .     S
C257   C278    1.413   .     S
C258   C277    1.413   .     S
O259   C263    1.278   .     A
O259   Zn265   1.970   .     S
O260   C264    1.278   .     A
O260   Zn266   1.970   .     S
O261   Zn266   1.981   .     S
O261   C263    1.281   .     A
O262   C264    1.281   .     A
O262   Zn265   1.981   .     S
C263   C269    1.403   .     S
C264   C270    1.403   .     S
Zn265  N267    2.012   .     S
Zn266  N268    2.012   .     S
N267   C283    1.367   .     A
N267   C280    1.367   .     A
N268   C279    1.367   .     A
N268   C284    1.367   .     A
C269   C354    1.330   1_455 S
C269   H355    1.088   1_455 S
C270   C311    1.330   .     S
C270   H314    1.088   .     S
H271   C311    1.088   .     S
H272   C354    1.088   1_455 S
C273   H287    1.085   .     S
C273   C278    1.395   .     A
C274   H288    1.085   .     S
C274   C277    1.395   .     A
C274   C24     1.377   1_565 S
C275   C277    1.405   .     A
C275   N289    1.439   .     S
C275   C21     1.377   1_565 S
C276   C278    1.405   .     A
C276   N292    1.439   .     S
C279   H281    1.082   .     S
C279   C1039   1.417   1_554 S
C280   H282    1.082   .     S
C280   C662    1.417   .     S
C283   H285    1.082   .     S
C283   C657    1.417   .     S
C284   H286    1.082   .     S
C284   C1036   1.417   1_554 S
N289   O290    1.301   .     A
N289   O291    1.302   .     A
N292   O294    1.302   .     A
N292   O293    1.301   .     A
O295   C299    1.282   .     A
O295   Zn307   1.988   .     S
O296   C300    1.282   .     A
O296   Zn308   1.988   .     S
O297   Zn308   1.992   .     S
O297   C299    1.281   .     A
O298   C300    1.281   .     A
O298   Zn307   1.992   .     S
C299   C320    1.413   .     S
C300   C319    1.413   .     S
O301   C305    1.278   .     A
O301   Zn307   1.970   .     S
O302   C306    1.278   .     A
O302   Zn308   1.970   .     S
O303   Zn308   1.981   .     S
O303   C305    1.281   .     A
O304   C306    1.281   .     A
O304   Zn307   1.981   .     S
C305   C311    1.403   .     S
C306   C312    1.403   .     S
Zn307  N309    2.012   .     S
Zn308  N310    2.012   .     S
N309   C325    1.367   .     A
N309   C322    1.367   .     A
N310   C321    1.367   .     A
N310   C326    1.367   .     A
C312   C353    1.330   .     S
C312   H356    1.088   .     S
H313   C353    1.088   .     S
C315   H329    1.085   .     S
C315   C320    1.395   .     A
C316   H330    1.085   .     S
C316   C319    1.395   .     A
C316   C66     1.377   1_565 S
C317   C319    1.405   .     A
C317   N331    1.439   .     S
C317   C63     1.377   1_565 S
C318   C320    1.405   .     A
C318   N334    1.439   .     S
C321   H323    1.082   .     S
C321   C1081   1.417   1_554 S
C322   H324    1.082   .     S
C322   C704    1.417   .     S
C325   H327    1.082   .     S
C325   C699    1.417   .     S
C326   H328    1.082   .     S
C326   C1078   1.417   1_554 S
N331   O332    1.301   .     A
N331   O333    1.302   .     A
N334   O336    1.302   .     A
N334   O335    1.301   .     A
O337   C341    1.282   .     A
O337   Zn349   1.988   .     S
O338   C342    1.282   .     A
O338   Zn350   1.988   .     S
O339   Zn350   1.992   .     S
O339   C341    1.281   .     A
O340   C342    1.281   .     A
O340   Zn349   1.992   .     S
C341   C362    1.413   .     S
C342   C361    1.413   .     S
O343   C347    1.278   .     A
O343   Zn349   1.970   .     S
O344   C348    1.278   .     A
O344   Zn350   1.970   .     S
O345   Zn350   1.981   .     S
O345   C347    1.281   .     A
O346   C348    1.281   .     A
O346   Zn349   1.981   .     S
C347   C353    1.403   .     S
C348   C354    1.403   .     S
Zn349  N351    2.012   .     S
Zn350  N352    2.012   .     S
N351   C367    1.367   .     A
N351   C364    1.367   .     A
N352   C363    1.367   .     A
N352   C368    1.367   .     A
C354   C269    1.330   1_655 S
C354   H272    1.088   1_655 S
H355   C269    1.088   1_655 S
C357   H371    1.085   .     S
C357   C362    1.395   .     A
C358   H372    1.085   .     S
C358   C361    1.395   .     A
C358   C108    1.377   1_565 S
C359   C361    1.405   .     A
C359   N373    1.439   .     S
C359   C105    1.377   1_565 S
C360   C362    1.405   .     A
C360   N376    1.439   .     S
C363   H365    1.082   .     S
C363   C1123   1.417   1_554 S
C364   H366    1.082   .     S
C364   C746    1.417   .     S
C367   H369    1.082   .     S
C367   C741    1.417   .     S
C368   H370    1.082   .     S
C368   C1120   1.417   1_554 S
N373   O374    1.301   .     A
N373   O375    1.302   .     A
N376   O378    1.302   .     A
N376   O377    1.301   .     A
O379   C383    1.282   .     A
O379   Zn391   1.988   .     S
O380   C384    1.282   .     A
O380   Zn392   1.988   .     S
O381   Zn392   1.992   .     S
O381   C383    1.281   .     A
O382   C384    1.281   .     A
O382   Zn391   1.992   .     S
C383   C404    1.413   .     S
C384   C403    1.413   .     S
O385   C389    1.278   .     A
O385   Zn391   1.970   .     S
O386   C390    1.278   .     A
O386   Zn392   1.970   .     S
O387   Zn392   1.981   .     S
O387   C389    1.281   .     A
O388   C390    1.281   .     A
O388   Zn391   1.981   .     S
C389   C395    1.403   .     S
C390   C396    1.403   .     S
Zn391  N393    2.012   .     S
Zn392  N394    2.012   .     S
N393   C409    1.367   .     A
N393   C406    1.367   .     A
N394   C405    1.367   .     A
N394   C410    1.367   .     A
C395   C480    1.330   1_455 S
C395   H481    1.088   1_455 S
C396   C437    1.330   .     S
C396   H440    1.088   .     S
H397   C437    1.088   .     S
H398   C480    1.088   1_455 S
C399   H413    1.085   .     S
C399   C404    1.395   .     A
C399   C653    1.377   1_545 S
C400   H414    1.085   .     S
C400   C403    1.395   .     A
C400   C528    1.377   .     S
C401   C403    1.405   .     A
C401   N415    1.439   .     S
C401   C525    1.377   .     S
C402   C404    1.405   .     A
C402   N418    1.439   .     S
C402   C652    1.377   1_545 S
C405   H407    1.082   .     S
C406   H408    1.082   .     S
C406   C788    1.417   .     S
C409   H411    1.082   .     S
C409   C783    1.417   .     S
C410   H412    1.082   .     S
N415   O416    1.301   .     A
N415   O417    1.302   .     A
N418   O420    1.302   .     A
N418   O419    1.301   .     A
O421   C425    1.282   .     A
O421   Zn433   1.988   .     S
O422   C426    1.282   .     A
O422   Zn434   1.988   .     S
O423   Zn434   1.992   .     S
O423   C425    1.281   .     A
O424   C426    1.281   .     A
O424   Zn433   1.992   .     S
C425   C446    1.413   .     S
C426   C445    1.413   .     S
O427   C431    1.278   .     A
O427   Zn433   1.970   .     S
O428   C432    1.278   .     A
O428   Zn434   1.970   .     S
O429   Zn434   1.981   .     S
O429   C431    1.281   .     A
O430   C432    1.281   .     A
O430   Zn433   1.981   .     S
C431   C437    1.403   .     S
C432   C438    1.403   .     S
Zn433  N435    2.012   .     S
Zn434  N436    2.012   .     S
N435   C451    1.367   .     A
N435   C448    1.367   .     A
N436   C447    1.367   .     A
N436   C452    1.367   .     A
C438   C479    1.330   .     S
C438   H482    1.088   .     S
H439   C479    1.088   .     S
C441   H455    1.085   .     S
C441   C446    1.395   .     A
C441   C695    1.377   1_545 S
C442   H456    1.085   .     S
C442   C445    1.395   .     A
C442   C570    1.377   .     S
C443   C445    1.405   .     A
C443   N457    1.439   .     S
C443   C567    1.377   .     S
C444   C446    1.405   .     A
C444   N460    1.439   .     S
C444   C694    1.377   1_545 S
C447   H449    1.082   .     S
C448   H450    1.082   .     S
C448   C830    1.417   .     S
C451   H453    1.082   .     S
C451   C825    1.417   .     S
C452   H454    1.082   .     S
N457   O458    1.301   .     A
N457   O459    1.302   .     A
N460   O462    1.302   .     A
N460   O461    1.301   .     A
O463   C467    1.282   .     A
O463   Zn475   1.988   .     S
O464   C468    1.282   .     A
O464   Zn476   1.988   .     S
O465   Zn476   1.992   .     S
O465   C467    1.281   .     A
O466   C468    1.281   .     A
O466   Zn475   1.992   .     S
C467   C488    1.413   .     S
C468   C487    1.413   .     S
O469   C473    1.278   .     A
O469   Zn475   1.970   .     S
O470   C474    1.278   .     A
O470   Zn476   1.970   .     S
O471   Zn476   1.981   .     S
O471   C473    1.281   .     A
O472   C474    1.281   .     A
O472   Zn475   1.981   .     S
C473   C479    1.403   .     S
C474   C480    1.403   .     S
Zn475  N477    2.012   .     S
Zn476  N478    2.012   .     S
N477   C493    1.367   .     A
N477   C490    1.367   .     A
N478   C489    1.367   .     A
N478   C494    1.367   .     A
C480   C395    1.330   1_655 S
C480   H398    1.088   1_655 S
H481   C395    1.088   1_655 S
C483   H497    1.085   .     S
C483   C488    1.395   .     A
C483   C737    1.377   1_545 S
C484   H498    1.085   .     S
C484   C487    1.395   .     A
C484   C612    1.377   .     S
C485   C487    1.405   .     A
C485   N499    1.439   .     S
C485   C609    1.377   .     S
C486   C488    1.405   .     A
C486   N502    1.439   .     S
C486   C736    1.377   1_545 S
C489   H491    1.082   .     S
C490   H492    1.082   .     S
C490   C872    1.417   .     S
C493   H495    1.082   .     S
C493   C867    1.417   .     S
C494   H496    1.082   .     S
N499   O500    1.301   .     A
N499   O501    1.302   .     A
N502   O504    1.302   .     A
N502   O503    1.301   .     A
O505   C509    1.282   .     A
O505   Zn517   1.988   .     S
O506   C510    1.282   .     A
O506   Zn518   1.988   .     S
O507   Zn518   1.992   .     S
O507   C509    1.281   .     A
O508   C510    1.281   .     A
O508   Zn517   1.992   .     S
C509   C530    1.413   .     S
C510   C529    1.413   .     S
O511   C515    1.278   .     A
O511   Zn517   1.970   .     S
O512   C516    1.278   .     A
O512   Zn518   1.970   .     S
O513   Zn518   1.981   .     S
O513   C515    1.281   .     A
O514   C516    1.281   .     A
O514   Zn517   1.981   .     S
C515   C521    1.403   .     S
C516   C522    1.403   .     S
Zn517  N519    2.012   .     S
Zn518  N520    2.012   .     S
N519   C535    1.367   .     A
N519   C532    1.367   .     A
N520   C531    1.367   .     A
N520   C536    1.367   .     A
C521   C606    1.330   1_455 S
C521   H607    1.088   1_455 S
C522   C563    1.330   .     S
C522   H566    1.088   .     S
H523   C563    1.088   .     S
H524   C606    1.088   1_455 S
C525   H539    1.085   .     S
C525   C530    1.395   .     A
C526   H540    1.085   .     S
C526   C529    1.395   .     A
C526   C654    1.377   .     S
C527   C529    1.405   .     A
C527   N541    1.439   .     S
C527   C651    1.377   .     S
C528   C530    1.405   .     A
C528   N544    1.439   .     S
C531   H533    1.082   .     S
C532   H534    1.082   .     S
C532   C914    1.417   .     S
C535   H537    1.082   .     S
C535   C909    1.417   .     S
C536   H538    1.082   .     S
N541   O542    1.301   .     A
N541   O543    1.302   .     A
N544   O546    1.302   .     A
N544   O545    1.301   .     A
O547   C551    1.282   .     A
O547   Zn559   1.988   .     S
O548   C552    1.282   .     A
O548   Zn560   1.988   .     S
O549   Zn560   1.992   .     S
O549   C551    1.281   .     A
O550   C552    1.281   .     A
O550   Zn559   1.992   .     S
C551   C572    1.413   .     S
C552   C571    1.413   .     S
O553   C557    1.278   .     A
O553   Zn559   1.970   .     S
O554   C558    1.278   .     A
O554   Zn560   1.970   .     S
O555   Zn560   1.981   .     S
O555   C557    1.281   .     A
O556   C558    1.281   .     A
O556   Zn559   1.981   .     S
C557   C563    1.403   .     S
C558   C564    1.403   .     S
Zn559  N561    2.012   .     S
Zn560  N562    2.012   .     S
N561   C577    1.367   .     A
N561   C574    1.367   .     A
N562   C573    1.367   .     A
N562   C578    1.367   .     A
C564   C605    1.330   .     S
C564   H608    1.088   .     S
H565   C605    1.088   .     S
C567   H581    1.085   .     S
C567   C572    1.395   .     A
C568   H582    1.085   .     S
C568   C571    1.395   .     A
C568   C696    1.377   .     S
C569   C571    1.405   .     A
C569   N583    1.439   .     S
C569   C693    1.377   .     S
C570   C572    1.405   .     A
C570   N586    1.439   .     S
C573   H575    1.082   .     S
C574   H576    1.082   .     S
C574   C956    1.417   .     S
C577   H579    1.082   .     S
C577   C951    1.417   .     S
C578   H580    1.082   .     S
N583   O584    1.301   .     A
N583   O585    1.302   .     A
N586   O588    1.302   .     A
N586   O587    1.301   .     A
O589   C593    1.282   .     A
O589   Zn601   1.988   .     S
O590   C594    1.282   .     A
O590   Zn602   1.988   .     S
O591   Zn602   1.992   .     S
O591   C593    1.281   .     A
O592   C594    1.281   .     A
O592   Zn601   1.992   .     S
C593   C614    1.413   .     S
C594   C613    1.413   .     S
O595   C599    1.278   .     A
O595   Zn601   1.970   .     S
O596   C600    1.278   .     A
O596   Zn602   1.970   .     S
O597   Zn602   1.981   .     S
O597   C599    1.281   .     A
O598   C600    1.281   .     A
O598   Zn601   1.981   .     S
C599   C605    1.403   .     S
C600   C606    1.403   .     S
Zn601  N603    2.012   .     S
Zn602  N604    2.012   .     S
N603   C619    1.367   .     A
N603   C616    1.367   .     A
N604   C615    1.367   .     A
N604   C620    1.367   .     A
C606   C521    1.330   1_655 S
C606   H524    1.088   1_655 S
H607   C521    1.088   1_655 S
C609   H623    1.085   .     S
C609   C614    1.395   .     A
C610   H624    1.085   .     S
C610   C613    1.395   .     A
C610   C738    1.377   .     S
C611   C613    1.405   .     A
C611   N625    1.439   .     S
C611   C735    1.377   .     S
C612   C614    1.405   .     A
C612   N628    1.439   .     S
C615   H617    1.082   .     S
C616   H618    1.082   .     S
C616   C998    1.417   .     S
C619   H621    1.082   .     S
C619   C993    1.417   .     S
C620   H622    1.082   .     S
N625   O626    1.301   .     A
N625   O627    1.302   .     A
N628   O630    1.302   .     A
N628   O629    1.301   .     A
O631   C635    1.282   .     A
O631   Zn643   1.988   .     S
O632   C636    1.282   .     A
O632   Zn644   1.988   .     S
O633   Zn644   1.992   .     S
O633   C635    1.281   .     A
O634   C636    1.281   .     A
O634   Zn643   1.992   .     S
C635   C656    1.413   .     S
C636   C655    1.413   .     S
O637   C641    1.278   .     A
O637   Zn643   1.970   .     S
O638   C642    1.278   .     A
O638   Zn644   1.970   .     S
O639   Zn644   1.981   .     S
O639   C641    1.281   .     A
O640   C642    1.281   .     A
O640   Zn643   1.981   .     S
C641   C647    1.403   .     S
C642   C648    1.403   .     S
Zn643  N645    2.012   .     S
Zn644  N646    2.012   .     S
N645   C661    1.367   .     A
N645   C658    1.367   .     A
N646   C657    1.367   .     A
N646   C662    1.367   .     A
C647   C732    1.330   1_455 S
C647   H733    1.088   1_455 S
C648   C689    1.330   .     S
C648   H692    1.088   .     S
H649   C689    1.088   .     S
H650   C732    1.088   1_455 S
C651   H665    1.085   .     S
C651   C656    1.395   .     A
C652   H666    1.085   .     S
C652   C655    1.395   .     A
C652   C402    1.377   1_565 S
C653   C655    1.405   .     A
C653   N667    1.439   .     S
C653   C399    1.377   1_565 S
C654   C656    1.405   .     A
C654   N670    1.439   .     S
C657   H659    1.082   .     S
C658   H660    1.082   .     S
C658   C1040   1.417   .     S
C661   H663    1.082   .     S
C661   C1035   1.417   .     S
C662   H664    1.082   .     S
N667   O668    1.301   .     A
N667   O669    1.302   .     A
N670   O672    1.302   .     A
N670   O671    1.301   .     A
O673   C677    1.282   .     A
O673   Zn685   1.988   .     S
O674   C678    1.282   .     A
O674   Zn686   1.988   .     S
O675   Zn686   1.992   .     S
O675   C677    1.281   .     A
O676   C678    1.281   .     A
O676   Zn685   1.992   .     S
C677   C698    1.413   .     S
C678   C697    1.413   .     S
O679   C683    1.278   .     A
O679   Zn685   1.970   .     S
O680   C684    1.278   .     A
O680   Zn686   1.970   .     S
O681   Zn686   1.981   .     S
O681   C683    1.281   .     A
O682   C684    1.281   .     A
O682   Zn685   1.981   .     S
C683   C689    1.403   .     S
C684   C690    1.403   .     S
Zn685  N687    2.012   .     S
Zn686  N688    2.012   .     S
N687   C703    1.367   .     A
N687   C700    1.367   .     A
N688   C699    1.367   .     A
N688   C704    1.367   .     A
C690   C731    1.330   .     S
C690   H734    1.088   .     S
H691   C731    1.088   .     S
C693   H707    1.085   .     S
C693   C698    1.395   .     A
C694   H708    1.085   .     S
C694   C697    1.395   .     A
C694   C444    1.377   1_565 S
C695   C697    1.405   .     A
C695   N709    1.439   .     S
C695   C441    1.377   1_565 S
C696   C698    1.405   .     A
C696   N712    1.439   .     S
C699   H701    1.082   .     S
C700   H702    1.082   .     S
C700   C1082   1.417   .     S
C703   H705    1.082   .     S
C703   C1077   1.417   .     S
C704   H706    1.082   .     S
N709   O710    1.301   .     A
N709   O711    1.302   .     A
N712   O714    1.302   .     A
N712   O713    1.301   .     A
O715   C719    1.282   .     A
O715   Zn727   1.988   .     S
O716   C720    1.282   .     A
O716   Zn728   1.988   .     S
O717   Zn728   1.992   .     S
O717   C719    1.281   .     A
O718   C720    1.281   .     A
O718   Zn727   1.992   .     S
C719   C740    1.413   .     S
C720   C739    1.413   .     S
O721   C725    1.278   .     A
O721   Zn727   1.970   .     S
O722   C726    1.278   .     A
O722   Zn728   1.970   .     S
O723   Zn728   1.981   .     S
O723   C725    1.281   .     A
O724   C726    1.281   .     A
O724   Zn727   1.981   .     S
C725   C731    1.403   .     S
C726   C732    1.403   .     S
Zn727  N729    2.012   .     S
Zn728  N730    2.012   .     S
N729   C745    1.367   .     A
N729   C742    1.367   .     A
N730   C741    1.367   .     A
N730   C746    1.367   .     A
C732   C647    1.330   1_655 S
C732   H650    1.088   1_655 S
H733   C647    1.088   1_655 S
C735   H749    1.085   .     S
C735   C740    1.395   .     A
C736   H750    1.085   .     S
C736   C739    1.395   .     A
C736   C486    1.377   1_565 S
C737   C739    1.405   .     A
C737   N751    1.439   .     S
C737   C483    1.377   1_565 S
C738   C740    1.405   .     A
C738   N754    1.439   .     S
C741   H743    1.082   .     S
C742   H744    1.082   .     S
C742   C1124   1.417   .     S
C745   H747    1.082   .     S
C745   C1119   1.417   .     S
C746   H748    1.082   .     S
N751   O752    1.301   .     A
N751   O753    1.302   .     A
N754   O756    1.302   .     A
N754   O755    1.301   .     A
O757   C761    1.282   .     A
O757   Zn769   1.988   .     S
O758   C762    1.282   .     A
O758   Zn770   1.988   .     S
O759   Zn770   1.992   .     S
O759   C761    1.281   .     A
O760   C762    1.281   .     A
O760   Zn769   1.992   .     S
C761   C782    1.413   .     S
C762   C781    1.413   .     S
O763   C767    1.278   .     A
O763   Zn769   1.970   .     S
O764   C768    1.278   .     A
O764   Zn770   1.970   .     S
O765   Zn770   1.981   .     S
O765   C767    1.281   .     A
O766   C768    1.281   .     A
O766   Zn769   1.981   .     S
C767   C773    1.403   .     S
C768   C774    1.403   .     S
Zn769  N771    2.012   .     S
Zn770  N772    2.012   .     S
N771   C787    1.367   .     A
N771   C784    1.367   .     A
N772   C783    1.367   .     A
N772   C788    1.367   .     A
C773   C858    1.330   1_455 S
C773   H859    1.088   1_455 S
C774   C815    1.330   .     S
C774   H818    1.088   .     S
H775   C815    1.088   .     S
H776   C858    1.088   1_455 S
C777   H791    1.085   .     S
C777   C782    1.395   .     A
C777   C1031   1.377   1_545 S
C778   H792    1.085   .     S
C778   C781    1.395   .     A
C778   C906    1.377   .     S
C779   C781    1.405   .     A
C779   N793    1.439   .     S
C779   C903    1.377   .     S
C780   C782    1.405   .     A
C780   N796    1.439   .     S
C780   C1030   1.377   1_545 S
C783   H785    1.082   .     S
C784   H786    1.082   .     S
C784   C32     1.417   1_556 S
C787   H789    1.082   .     S
C787   C27     1.417   1_556 S
C788   H790    1.082   .     S
N793   O794    1.301   .     A
N793   O795    1.302   .     A
N796   O798    1.302   .     A
N796   O797    1.301   .     A
O799   C803    1.282   .     A
O799   Zn811   1.988   .     S
O800   C804    1.282   .     A
O800   Zn812   1.988   .     S
O801   Zn812   1.992   .     S
O801   C803    1.281   .     A
O802   C804    1.281   .     A
O802   Zn811   1.992   .     S
C803   C824    1.413   .     S
C804   C823    1.413   .     S
O805   C809    1.278   .     A
O805   Zn811   1.970   .     S
O806   C810    1.278   .     A
O806   Zn812   1.970   .     S
O807   Zn812   1.981   .     S
O807   C809    1.281   .     A
O808   C810    1.281   .     A
O808   Zn811   1.981   .     S
C809   C815    1.403   .     S
C810   C816    1.403   .     S
Zn811  N813    2.012   .     S
Zn812  N814    2.012   .     S
N813   C829    1.367   .     A
N813   C826    1.367   .     A
N814   C825    1.367   .     A
N814   C830    1.367   .     A
C816   C857    1.330   .     S
C816   H860    1.088   .     S
H817   C857    1.088   .     S
C819   H833    1.085   .     S
C819   C824    1.395   .     A
C819   C1073   1.377   1_545 S
C820   H834    1.085   .     S
C820   C823    1.395   .     A
C820   C948    1.377   .     S
C821   C823    1.405   .     A
C821   N835    1.439   .     S
C821   C945    1.377   .     S
C822   C824    1.405   .     A
C822   N838    1.439   .     S
C822   C1072   1.377   1_545 S
C825   H827    1.082   .     S
C826   H828    1.082   .     S
C826   C74     1.417   1_556 S
C829   H831    1.082   .     S
C829   C69     1.417   1_556 S
C830   H832    1.082   .     S
N835   O836    1.301   .     A
N835   O837    1.302   .     A
N838   O840    1.302   .     A
N838   O839    1.301   .     A
O841   C845    1.282   .     A
O841   Zn853   1.988   .     S
O842   C846    1.282   .     A
O842   Zn854   1.988   .     S
O843   Zn854   1.992   .     S
O843   C845    1.281   .     A
O844   C846    1.281   .     A
O844   Zn853   1.992   .     S
C845   C866    1.413   .     S
C846   C865    1.413   .     S
O847   C851    1.278   .     A
O847   Zn853   1.970   .     S
O848   C852    1.278   .     A
O848   Zn854   1.970   .     S
O849   Zn854   1.981   .     S
O849   C851    1.281   .     A
O850   C852    1.281   .     A
O850   Zn853   1.981   .     S
C851   C857    1.403   .     S
C852   C858    1.403   .     S
Zn853  N855    2.012   .     S
Zn854  N856    2.012   .     S
N855   C871    1.367   .     A
N855   C868    1.367   .     A
N856   C867    1.367   .     A
N856   C872    1.367   .     A
C858   C773    1.330   1_655 S
C858   H776    1.088   1_655 S
H859   C773    1.088   1_655 S
C861   H875    1.085   .     S
C861   C866    1.395   .     A
C861   C1115   1.377   1_545 S
C862   H876    1.085   .     S
C862   C865    1.395   .     A
C862   C990    1.377   .     S
C863   C865    1.405   .     A
C863   N877    1.439   .     S
C863   C987    1.377   .     S
C864   C866    1.405   .     A
C864   N880    1.439   .     S
C864   C1114   1.377   1_545 S
C867   H869    1.082   .     S
C868   H870    1.082   .     S
C868   C116    1.417   1_556 S
C871   H873    1.082   .     S
C871   C111    1.417   1_556 S
C872   H874    1.082   .     S
N877   O878    1.301   .     A
N877   O879    1.302   .     A
N880   O882    1.302   .     A
N880   O881    1.301   .     A
O883   C887    1.282   .     A
O883   Zn895   1.988   .     S
O884   C888    1.282   .     A
O884   Zn896   1.988   .     S
O885   Zn896   1.992   .     S
O885   C887    1.281   .     A
O886   C888    1.281   .     A
O886   Zn895   1.992   .     S
C887   C908    1.413   .     S
C888   C907    1.413   .     S
O889   C893    1.278   .     A
O889   Zn895   1.970   .     S
O890   C894    1.278   .     A
O890   Zn896   1.970   .     S
O891   Zn896   1.981   .     S
O891   C893    1.281   .     A
O892   C894    1.281   .     A
O892   Zn895   1.981   .     S
C893   C899    1.403   .     S
C894   C900    1.403   .     S
Zn895  N897    2.012   .     S
Zn896  N898    2.012   .     S
N897   C913    1.367   .     A
N897   C910    1.367   .     A
N898   C909    1.367   .     A
N898   C914    1.367   .     A
C899   C984    1.330   1_455 S
C899   H985    1.088   1_455 S
C900   C941    1.330   .     S
C900   H944    1.088   .     S
H901   C941    1.088   .     S
H902   C984    1.088   1_455 S
C903   H917    1.085   .     S
C903   C908    1.395   .     A
C904   H918    1.085   .     S
C904   C907    1.395   .     A
C904   C1032   1.377   .     S
C905   C907    1.405   .     A
C905   N919    1.439   .     S
C905   C1029   1.377   .     S
C906   C908    1.405   .     A
C906   N922    1.439   .     S
C909   H911    1.082   .     S
C910   H912    1.082   .     S
C910   C158    1.417   1_556 S
C913   H915    1.082   .     S
C913   C153    1.417   1_556 S
C914   H916    1.082   .     S
N919   O920    1.301   .     A
N919   O921    1.302   .     A
N922   O924    1.302   .     A
N922   O923    1.301   .     A
O925   C929    1.282   .     A
O925   Zn937   1.988   .     S
O926   C930    1.282   .     A
O926   Zn938   1.988   .     S
O927   Zn938   1.992   .     S
O927   C929    1.281   .     A
O928   C930    1.281   .     A
O928   Zn937   1.992   .     S
C929   C950    1.413   .     S
C930   C949    1.413   .     S
O931   C935    1.278   .     A
O931   Zn937   1.970   .     S
O932   C936    1.278   .     A
O932   Zn938   1.970   .     S
O933   Zn938   1.981   .     S
O933   C935    1.281   .     A
O934   C936    1.281   .     A
O934   Zn937   1.981   .     S
C935   C941    1.403   .     S
C936   C942    1.403   .     S
Zn937  N939    2.012   .     S
Zn938  N940    2.012   .     S
N939   C955    1.367   .     A
N939   C952    1.367   .     A
N940   C951    1.367   .     A
N940   C956    1.367   .     A
C942   C983    1.330   .     S
C942   H986    1.088   .     S
H943   C983    1.088   .     S
C945   H959    1.085   .     S
C945   C950    1.395   .     A
C946   H960    1.085   .     S
C946   C949    1.395   .     A
C946   C1074   1.377   .     S
C947   C949    1.405   .     A
C947   N961    1.439   .     S
C947   C1071   1.377   .     S
C948   C950    1.405   .     A
C948   N964    1.439   .     S
C951   H953    1.082   .     S
C952   H954    1.082   .     S
C952   C200    1.417   1_556 S
C955   H957    1.082   .     S
C955   C195    1.417   1_556 S
C956   H958    1.082   .     S
N961   O962    1.301   .     A
N961   O963    1.302   .     A
N964   O966    1.302   .     A
N964   O965    1.301   .     A
O967   C971    1.282   .     A
O967   Zn979   1.988   .     S
O968   C972    1.282   .     A
O968   Zn980   1.988   .     S
O969   Zn980   1.992   .     S
O969   C971    1.281   .     A
O970   C972    1.281   .     A
O970   Zn979   1.992   .     S
C971   C992    1.413   .     S
C972   C991    1.413   .     S
O973   C977    1.278   .     A
O973   Zn979   1.970   .     S
O974   C978    1.278   .     A
O974   Zn980   1.970   .     S
O975   Zn980   1.981   .     S
O975   C977    1.281   .     A
O976   C978    1.281   .     A
O976   Zn979   1.981   .     S
C977   C983    1.403   .     S
C978   C984    1.403   .     S
Zn979  N981    2.012   .     S
Zn980  N982    2.012   .     S
N981   C997    1.367   .     A
N981   C994    1.367   .     A
N982   C993    1.367   .     A
N982   C998    1.367   .     A
C984   C899    1.330   1_655 S
C984   H902    1.088   1_655 S
H985   C899    1.088   1_655 S
C987   H1001   1.085   .     S
C987   C992    1.395   .     A
C988   H1002   1.085   .     S
C988   C991    1.395   .     A
C988   C1116   1.377   .     S
C989   C991    1.405   .     A
C989   N1003   1.439   .     S
C989   C1113   1.377   .     S
C990   C992    1.405   .     A
C990   N1006   1.439   .     S
C993   H995    1.082   .     S
C994   H996    1.082   .     S
C994   C242    1.417   1_556 S
C997   H999    1.082   .     S
C997   C237    1.417   1_556 S
C998   H1000   1.082   .     S
N1003  O1004   1.301   .     A
N1003  O1005   1.302   .     A
N1006  O1008   1.302   .     A
N1006  O1007   1.301   .     A
O1009  C1013   1.282   .     A
O1009  Zn1021  1.988   .     S
O1010  C1014   1.282   .     A
O1010  Zn1022  1.988   .     S
O1011  Zn1022  1.992   .     S
O1011  C1013   1.281   .     A
O1012  C1014   1.281   .     A
O1012  Zn1021  1.992   .     S
C1013  C1034   1.413   .     S
C1014  C1033   1.413   .     S
O1015  C1019   1.278   .     A
O1015  Zn1021  1.970   .     S
O1016  C1020   1.278   .     A
O1016  Zn1022  1.970   .     S
O1017  Zn1022  1.981   .     S
O1017  C1019   1.281   .     A
O1018  C1020   1.281   .     A
O1018  Zn1021  1.981   .     S
C1019  C1025   1.403   .     S
C1020  C1026   1.403   .     S
Zn1021 N1023   2.012   .     S
Zn1022 N1024   2.012   .     S
N1023  C1039   1.367   .     A
N1023  C1036   1.367   .     A
N1024  C1035   1.367   .     A
N1024  C1040   1.367   .     A
C1025  C1110   1.330   1_455 S
C1025  H1111   1.088   1_455 S
C1026  C1067   1.330   .     S
C1026  H1070   1.088   .     S
H1027  C1067   1.088   .     S
H1028  C1110   1.088   1_455 S
C1029  H1043   1.085   .     S
C1029  C1034   1.395   .     A
C1030  H1044   1.085   .     S
C1030  C1033   1.395   .     A
C1030  C780    1.377   1_565 S
C1031  C1033   1.405   .     A
C1031  N1045   1.439   .     S
C1031  C777    1.377   1_565 S
C1032  C1034   1.405   .     A
C1032  N1048   1.439   .     S
C1035  H1037   1.082   .     S
C1036  H1038   1.082   .     S
C1036  C284    1.417   1_556 S
C1039  H1041   1.082   .     S
C1039  C279    1.417   1_556 S
C1040  H1042   1.082   .     S
N1045  O1046   1.301   .     A
N1045  O1047   1.302   .     A
N1048  O1050   1.302   .     A
N1048  O1049   1.301   .     A
O1051  C1055   1.282   .     A
O1051  Zn1063  1.988   .     S
O1052  C1056   1.282   .     A
O1052  Zn1064  1.988   .     S
O1053  Zn1064  1.992   .     S
O1053  C1055   1.281   .     A
O1054  C1056   1.281   .     A
O1054  Zn1063  1.992   .     S
C1055  C1076   1.413   .     S
C1056  C1075   1.413   .     S
O1057  C1061   1.278   .     A
O1057  Zn1063  1.970   .     S
O1058  C1062   1.278   .     A
O1058  Zn1064  1.970   .     S
O1059  Zn1064  1.981   .     S
O1059  C1061   1.281   .     A
O1060  C1062   1.281   .     A
O1060  Zn1063  1.981   .     S
C1061  C1067   1.403   .     S
C1062  C1068   1.403   .     S
Zn1063 N1065   2.012   .     S
Zn1064 N1066   2.012   .     S
N1065  C1081   1.367   .     A
N1065  C1078   1.367   .     A
N1066  C1077   1.367   .     A
N1066  C1082   1.367   .     A
C1068  C1109   1.330   .     S
C1068  H1112   1.088   .     S
H1069  C1109   1.088   .     S
C1071  H1085   1.085   .     S
C1071  C1076   1.395   .     A
C1072  H1086   1.085   .     S
C1072  C1075   1.395   .     A
C1072  C822    1.377   1_565 S
C1073  C1075   1.405   .     A
C1073  N1087   1.439   .     S
C1073  C819    1.377   1_565 S
C1074  C1076   1.405   .     A
C1074  N1090   1.439   .     S
C1077  H1079   1.082   .     S
C1078  H1080   1.082   .     S
C1078  C326    1.417   1_556 S
C1081  H1083   1.082   .     S
C1081  C321    1.417   1_556 S
C1082  H1084   1.082   .     S
N1087  O1088   1.301   .     A
N1087  O1089   1.302   .     A
N1090  O1092   1.302   .     A
N1090  O1091   1.301   .     A
O1093  C1097   1.282   .     A
O1093  Zn1105  1.988   .     S
O1094  C1098   1.282   .     A
O1094  Zn1106  1.988   .     S
O1095  Zn1106  1.992   .     S
O1095  C1097   1.281   .     A
O1096  C1098   1.281   .     A
O1096  Zn1105  1.992   .     S
C1097  C1118   1.413   .     S
C1098  C1117   1.413   .     S
O1099  C1103   1.278   .     A
O1099  Zn1105  1.970   .     S
O1100  C1104   1.278   .     A
O1100  Zn1106  1.970   .     S
O1101  Zn1106  1.981   .     S
O1101  C1103   1.281   .     A
O1102  C1104   1.281   .     A
O1102  Zn1105  1.981   .     S
C1103  C1109   1.403   .     S
C1104  C1110   1.403   .     S
Zn1105 N1107   2.012   .     S
Zn1106 N1108   2.012   .     S
N1107  C1123   1.367   .     A
N1107  C1120   1.367   .     A
N1108  C1119   1.367   .     A
N1108  C1124   1.367   .     A
C1110  C1025   1.330   1_655 S
C1110  H1028   1.088   1_655 S
H1111  C1025   1.088   1_655 S
C1113  H1127   1.085   .     S
C1113  C1118   1.395   .     A
C1114  H1128   1.085   .     S
C1114  C1117   1.395   .     A
C1114  C864    1.377   1_565 S
C1115  C1117   1.405   .     A
C1115  N1129   1.439   .     S
C1115  C861    1.377   1_565 S
C1116  C1118   1.405   .     A
C1116  N1132   1.439   .     S
C1119  H1121   1.082   .     S
C1120  H1122   1.082   .     S
C1120  C368    1.417   1_556 S
C1123  H1125   1.082   .     S
C1123  C363    1.417   1_556 S
C1124  H1126   1.082   .     S
N1129  O1130   1.301   .     A
N1129  O1131   1.302   .     A
N1132  O1134   1.302   .     A
N1132  O1133   1.301   .     A
