data_str_m2_o1_o2_pcu_sym.31
_audit_creation_date              2020-01-03
_audit_creation_method            'Materials Studio'
_symmetry_space_group_name_H-M    'P1'
_symmetry_Int_Tables_number       1
_symmetry_cell_setting            triclinic
loop_
_symmetry_equiv_pos_as_xyz
  x,y,z
_cell_length_a                    32.2743
_cell_length_b                    28.7790
_cell_length_c                    30.2652
_cell_angle_alpha                 89.6826
_cell_angle_beta                  91.2698
_cell_angle_gamma                 89.9059
loop_
_atom_site_label
_atom_site_type_symbol
_atom_site_fract_x
_atom_site_fract_y
_atom_site_fract_z
_atom_site_U_iso_or_equiv
_atom_site_adp_type
_atom_site_occupancy
C1     C     0.08756   0.16670   0.24968   0.00000  Uiso   1.00
C2     C     0.31252   0.18404   0.28698   0.00000  Uiso   1.00
C3     C     0.31072   0.14895   0.21340   0.00000  Uiso   1.00
C4     C     0.02262   0.18431   0.28665   0.00000  Uiso   1.00
C5     C     0.17900   0.20667   0.04774   0.00000  Uiso   1.00
C6     C     0.17858   0.12696   0.45301   0.00000  Uiso   1.00
C7     C     0.15405   0.20669   0.45173   0.00000  Uiso   1.00
C8     C     0.15332   0.12750   0.04754   0.00000  Uiso   1.00
C9     C     0.17878   0.20675   0.09368   0.00000  Uiso   1.00
C10    C     0.17832   0.12667   0.40708   0.00000  Uiso   1.00
C11    C     0.15439   0.20662   0.40582   0.00000  Uiso   1.00
C12    C     0.24577   0.16663   0.25034   0.00000  Uiso   1.00
C13    C     0.15368   0.12736   0.09345   0.00000  Uiso   1.00
C14    C     0.16632   0.16699   0.11679   0.00000  Uiso   1.00
C15    C     0.16643   0.16656   0.38322   0.00000  Uiso   1.00
C16    C     0.16619   0.16706   0.02429   0.00000  Uiso   1.00
C17    C     0.16630   0.16692   0.47571   0.00000  Uiso   1.00
C18    C     0.29043   0.16654   0.25027   0.00000  Uiso   1.00
C19    C     0.04291   0.16677   0.24976   0.00000  Uiso   1.00
C20    C     0.16654   0.16678   0.16505   0.00000  Uiso   1.00
C21    C     0.16664   0.16659   0.33496   0.00000  Uiso   1.00
C22    C     0.13906   0.02513   0.22388   0.00000  Uiso   1.00
C23    C     0.19385   0.30780   0.27629   0.00000  Uiso   1.00
C24    C     0.19494   0.02377   0.27541   0.00000  Uiso   1.00
C25    C     0.13939   0.30859   0.22350   0.00000  Uiso   1.00
C26    C     0.02082   0.14921   0.21307   0.00000  Uiso   1.00
Cu27   Cu    0.16667   0.21355   0.25000   0.00000  Uiso   1.00
Cu28   Cu    0.16667   0.11978   0.25000   0.00000  Uiso   1.00
H29    H     0.18972   0.23737   0.03062   0.00000  Uiso   1.00
H30    H     0.11436   0.04109   0.16364   0.00000  Uiso   1.00
H31    H     0.25237   0.29112   0.29536   0.00000  Uiso   1.00
H32    H     0.21797   0.29275   0.33687   0.00000  Uiso   1.00
H33    H     0.21794   0.07202   0.31945   0.00000  Uiso   1.00
H34    H     0.25092   0.05609   0.27798   0.00000  Uiso   1.00
H35    H     0.08097   0.29257   0.20302   0.00000  Uiso   1.00
H36    H     0.11658   0.29311   0.16246   0.00000  Uiso   1.00
H37    H     0.03411   0.09889   0.16883   0.00000  Uiso   1.00
H38    H     0.03429   0.15373   0.14806   0.00000  Uiso   1.00
H39    H     0.29905   0.17932   0.35197   0.00000  Uiso   1.00
H40    H     0.18884   0.09609   0.47073   0.00000  Uiso   1.00
H41    H     0.29927   0.23423   0.33136   0.00000  Uiso   1.00
H42    H     0.29425   0.15102   0.14827   0.00000  Uiso   1.00
H43    H     0.29469   0.09702   0.17131   0.00000  Uiso   1.00
H44    H     0.03867   0.23622   0.32879   0.00000  Uiso   1.00
H45    H     0.03911   0.18219   0.35179   0.00000  Uiso   1.00
H46    H     0.14372   0.23767   0.46842   0.00000  Uiso   1.00
H47    H     0.14254   0.09681   0.03025   0.00000  Uiso   1.00
H48    H     0.18894   0.23763   0.11110   0.00000  Uiso   1.00
H49    H     0.18796   0.09545   0.39034   0.00000  Uiso   1.00
H50    H     0.14470   0.23769   0.38803   0.00000  Uiso   1.00
H51    H     0.14359   0.09644   0.11062   0.00000  Uiso   1.00
H52    H     0.08019   0.04095   0.20545   0.00000  Uiso   1.00
N53    N     0.16667   0.28402   0.25000   0.00000  Uiso   1.00
N54    N     0.04652   0.20145   0.32368   0.00000  Uiso   1.00
N55    N     0.16667   0.04931   0.25000   0.00000  Uiso   1.00
N56    N     0.11012   0.05042   0.19654   0.00000  Uiso   1.00
N57    N     0.22223   0.28239   0.30423   0.00000  Uiso   1.00
N58    N     0.22823   0.04521   0.29973   0.00000  Uiso   1.00
N59    N     0.11131   0.28355   0.19521   0.00000  Uiso   1.00
N60    N     0.04281   0.13316   0.17535   0.00000  Uiso   1.00
N61    N     0.29053   0.19999   0.32475   0.00000  Uiso   1.00
N62    N     0.28683   0.13179   0.17639   0.00000  Uiso   1.00
O63    O     0.10655   0.20625   0.25000   0.00000  Uiso   1.00
O64    O     0.22679   0.12709   0.25001   0.00000  Uiso   1.00
O65    O     0.22679   0.20625   0.25001   0.00000  Uiso   1.00
O66    O     0.10655   0.12709   0.25000   0.00000  Uiso   1.00
O67    O     0.16666   0.20626   0.18573   0.00000  Uiso   1.00
O68    O     0.16667   0.12707   0.31427   0.00000  Uiso   1.00
O69    O     0.16667   0.20626   0.31427   0.00000  Uiso   1.00
O70    O     0.16666   0.12707   0.18573   0.00000  Uiso   1.00
C71    C     0.42090   0.16670   0.24968   0.00000  Uiso   1.00
C72    C     0.64586   0.18404   0.28698   0.00000  Uiso   1.00
C73    C     0.64406   0.14895   0.21340   0.00000  Uiso   1.00
C74    C     0.35595   0.18431   0.28665   0.00000  Uiso   1.00
C75    C     0.51234   0.20667   0.04774   0.00000  Uiso   1.00
C76    C     0.51191   0.12696   0.45301   0.00000  Uiso   1.00
C77    C     0.48738   0.20669   0.45173   0.00000  Uiso   1.00
C78    C     0.48665   0.12750   0.04754   0.00000  Uiso   1.00
C79    C     0.51211   0.20675   0.09368   0.00000  Uiso   1.00
C80    C     0.51165   0.12667   0.40708   0.00000  Uiso   1.00
C81    C     0.48772   0.20662   0.40582   0.00000  Uiso   1.00
C82    C     0.57911   0.16663   0.25034   0.00000  Uiso   1.00
C83    C     0.48702   0.12736   0.09345   0.00000  Uiso   1.00
C84    C     0.49966   0.16699   0.11679   0.00000  Uiso   1.00
C85    C     0.49976   0.16656   0.38322   0.00000  Uiso   1.00
C86    C     0.49952   0.16706   0.02429   0.00000  Uiso   1.00
C87    C     0.49963   0.16692   0.47571   0.00000  Uiso   1.00
C88    C     0.62376   0.16654   0.25027   0.00000  Uiso   1.00
C89    C     0.37624   0.16677   0.24976   0.00000  Uiso   1.00
C90    C     0.49987   0.16678   0.16505   0.00000  Uiso   1.00
C91    C     0.49998   0.16659   0.33496   0.00000  Uiso   1.00
C92    C     0.47239   0.02513   0.22388   0.00000  Uiso   1.00
C93    C     0.52718   0.30780   0.27629   0.00000  Uiso   1.00
C94    C     0.52827   0.02377   0.27541   0.00000  Uiso   1.00
C95    C     0.47273   0.30859   0.22350   0.00000  Uiso   1.00
C96    C     0.35415   0.14921   0.21307   0.00000  Uiso   1.00
Cu97   Cu    0.50000   0.21355   0.25000   0.00000  Uiso   1.00
Cu98   Cu    0.50000   0.11978   0.25000   0.00000  Uiso   1.00
H99    H     0.52306   0.23737   0.03062   0.00000  Uiso   1.00
H100   H     0.44769   0.04109   0.16364   0.00000  Uiso   1.00
H101   H     0.58570   0.29112   0.29536   0.00000  Uiso   1.00
H102   H     0.55131   0.29275   0.33687   0.00000  Uiso   1.00
H103   H     0.55127   0.07202   0.31945   0.00000  Uiso   1.00
H104   H     0.58426   0.05609   0.27798   0.00000  Uiso   1.00
H105   H     0.41431   0.29257   0.20302   0.00000  Uiso   1.00
H106   H     0.44991   0.29311   0.16246   0.00000  Uiso   1.00
H107   H     0.36745   0.09889   0.16883   0.00000  Uiso   1.00
H108   H     0.36762   0.15373   0.14806   0.00000  Uiso   1.00
H109   H     0.63238   0.17932   0.35197   0.00000  Uiso   1.00
H110   H     0.52218   0.09609   0.47073   0.00000  Uiso   1.00
H111   H     0.63260   0.23423   0.33136   0.00000  Uiso   1.00
H112   H     0.62758   0.15102   0.14827   0.00000  Uiso   1.00
H113   H     0.62802   0.09702   0.17131   0.00000  Uiso   1.00
H114   H     0.37200   0.23622   0.32879   0.00000  Uiso   1.00
H115   H     0.37244   0.18219   0.35179   0.00000  Uiso   1.00
H116   H     0.47706   0.23767   0.46842   0.00000  Uiso   1.00
H117   H     0.47587   0.09681   0.03025   0.00000  Uiso   1.00
H118   H     0.52227   0.23763   0.11110   0.00000  Uiso   1.00
H119   H     0.52129   0.09545   0.39034   0.00000  Uiso   1.00
H120   H     0.47804   0.23769   0.38803   0.00000  Uiso   1.00
H121   H     0.47692   0.09644   0.11062   0.00000  Uiso   1.00
H122   H     0.41353   0.04095   0.20545   0.00000  Uiso   1.00
N123   N     0.50000   0.28402   0.25000   0.00000  Uiso   1.00
N124   N     0.37985   0.20145   0.32368   0.00000  Uiso   1.00
N125   N     0.50000   0.04931   0.25000   0.00000  Uiso   1.00
N126   N     0.44346   0.05042   0.19654   0.00000  Uiso   1.00
N127   N     0.55557   0.28239   0.30423   0.00000  Uiso   1.00
N128   N     0.56156   0.04521   0.29973   0.00000  Uiso   1.00
N129   N     0.44464   0.28355   0.19521   0.00000  Uiso   1.00
N130   N     0.37615   0.13316   0.17535   0.00000  Uiso   1.00
N131   N     0.62387   0.19999   0.32475   0.00000  Uiso   1.00
N132   N     0.62016   0.13179   0.17639   0.00000  Uiso   1.00
O133   O     0.43988   0.20625   0.25000   0.00000  Uiso   1.00
O134   O     0.56012   0.12709   0.25001   0.00000  Uiso   1.00
O135   O     0.56012   0.20625   0.25001   0.00000  Uiso   1.00
O136   O     0.43988   0.12709   0.25000   0.00000  Uiso   1.00
O137   O     0.50000   0.20626   0.18573   0.00000  Uiso   1.00
O138   O     0.50000   0.12707   0.31427   0.00000  Uiso   1.00
O139   O     0.50000   0.20626   0.31427   0.00000  Uiso   1.00
O140   O     0.50000   0.12707   0.18573   0.00000  Uiso   1.00
C141   C     0.75423   0.16670   0.24968   0.00000  Uiso   1.00
C142   C     0.97919   0.18404   0.28698   0.00000  Uiso   1.00
C143   C     0.97739   0.14895   0.21340   0.00000  Uiso   1.00
C144   C     0.68928   0.18431   0.28665   0.00000  Uiso   1.00
C145   C     0.84567   0.20667   0.04774   0.00000  Uiso   1.00
C146   C     0.84524   0.12696   0.45301   0.00000  Uiso   1.00
C147   C     0.82071   0.20669   0.45173   0.00000  Uiso   1.00
C148   C     0.81998   0.12750   0.04754   0.00000  Uiso   1.00
C149   C     0.84544   0.20675   0.09368   0.00000  Uiso   1.00
C150   C     0.84499   0.12667   0.40708   0.00000  Uiso   1.00
C151   C     0.82105   0.20662   0.40582   0.00000  Uiso   1.00
C152   C     0.91244   0.16663   0.25034   0.00000  Uiso   1.00
C153   C     0.82035   0.12736   0.09345   0.00000  Uiso   1.00
C154   C     0.83299   0.16699   0.11679   0.00000  Uiso   1.00
C155   C     0.83309   0.16656   0.38322   0.00000  Uiso   1.00
C156   C     0.83286   0.16706   0.02429   0.00000  Uiso   1.00
C157   C     0.83297   0.16692   0.47571   0.00000  Uiso   1.00
C158   C     0.95709   0.16654   0.25027   0.00000  Uiso   1.00
C159   C     0.70958   0.16677   0.24976   0.00000  Uiso   1.00
C160   C     0.83321   0.16678   0.16505   0.00000  Uiso   1.00
C161   C     0.83331   0.16659   0.33496   0.00000  Uiso   1.00
C162   C     0.80573   0.02513   0.22388   0.00000  Uiso   1.00
C163   C     0.86051   0.30780   0.27629   0.00000  Uiso   1.00
C164   C     0.86160   0.02377   0.27541   0.00000  Uiso   1.00
C165   C     0.80606   0.30859   0.22350   0.00000  Uiso   1.00
C166   C     0.68748   0.14921   0.21307   0.00000  Uiso   1.00
Cu167  Cu    0.83333   0.21355   0.25000   0.00000  Uiso   1.00
Cu168  Cu    0.83333   0.11978   0.25000   0.00000  Uiso   1.00
H169   H     0.85639   0.23737   0.03062   0.00000  Uiso   1.00
H170   H     0.78103   0.04109   0.16364   0.00000  Uiso   1.00
H171   H     0.91903   0.29112   0.29536   0.00000  Uiso   1.00
H172   H     0.88464   0.29275   0.33687   0.00000  Uiso   1.00
H173   H     0.88461   0.07202   0.31945   0.00000  Uiso   1.00
H174   H     0.91759   0.05609   0.27798   0.00000  Uiso   1.00
H175   H     0.74764   0.29257   0.20302   0.00000  Uiso   1.00
H176   H     0.78325   0.29311   0.16246   0.00000  Uiso   1.00
H177   H     0.70078   0.09889   0.16883   0.00000  Uiso   1.00
H178   H     0.70096   0.15373   0.14806   0.00000  Uiso   1.00
H179   H     0.96571   0.17932   0.35197   0.00000  Uiso   1.00
H180   H     0.85551   0.09609   0.47073   0.00000  Uiso   1.00
H181   H     0.96593   0.23423   0.33136   0.00000  Uiso   1.00
H182   H     0.96091   0.15102   0.14827   0.00000  Uiso   1.00
H183   H     0.96135   0.09702   0.17131   0.00000  Uiso   1.00
H184   H     0.70533   0.23622   0.32879   0.00000  Uiso   1.00
H185   H     0.70578   0.18219   0.35179   0.00000  Uiso   1.00
H186   H     0.81039   0.23767   0.46842   0.00000  Uiso   1.00
H187   H     0.80920   0.09681   0.03025   0.00000  Uiso   1.00
H188   H     0.85560   0.23763   0.11110   0.00000  Uiso   1.00
H189   H     0.85462   0.09545   0.39034   0.00000  Uiso   1.00
H190   H     0.81137   0.23769   0.38803   0.00000  Uiso   1.00
H191   H     0.81026   0.09644   0.11062   0.00000  Uiso   1.00
H192   H     0.74686   0.04095   0.20545   0.00000  Uiso   1.00
N193   N     0.83333   0.28402   0.25000   0.00000  Uiso   1.00
N194   N     0.71318   0.20145   0.32368   0.00000  Uiso   1.00
N195   N     0.83333   0.04931   0.25000   0.00000  Uiso   1.00
N196   N     0.77679   0.05042   0.19654   0.00000  Uiso   1.00
N197   N     0.88890   0.28239   0.30423   0.00000  Uiso   1.00
N198   N     0.89489   0.04521   0.29973   0.00000  Uiso   1.00
N199   N     0.77798   0.28355   0.19521   0.00000  Uiso   1.00
N200   N     0.70948   0.13316   0.17535   0.00000  Uiso   1.00
N201   N     0.95720   0.19999   0.32475   0.00000  Uiso   1.00
N202   N     0.95350   0.13179   0.17639   0.00000  Uiso   1.00
O203   O     0.77321   0.20625   0.25000   0.00000  Uiso   1.00
O204   O     0.89345   0.12709   0.25001   0.00000  Uiso   1.00
O205   O     0.89345   0.20625   0.25001   0.00000  Uiso   1.00
O206   O     0.77321   0.12709   0.25000   0.00000  Uiso   1.00
O207   O     0.83333   0.20626   0.18573   0.00000  Uiso   1.00
O208   O     0.83334   0.12707   0.31427   0.00000  Uiso   1.00
O209   O     0.83334   0.20626   0.31427   0.00000  Uiso   1.00
O210   O     0.83333   0.12707   0.18573   0.00000  Uiso   1.00
C211   C     0.08756   0.50003   0.24968   0.00000  Uiso   1.00
C212   C     0.31252   0.51737   0.28698   0.00000  Uiso   1.00
C213   C     0.31072   0.48229   0.21340   0.00000  Uiso   1.00
C214   C     0.02262   0.51764   0.28665   0.00000  Uiso   1.00
C215   C     0.17900   0.54001   0.04774   0.00000  Uiso   1.00
C216   C     0.17858   0.46029   0.45301   0.00000  Uiso   1.00
C217   C     0.15405   0.54003   0.45173   0.00000  Uiso   1.00
C218   C     0.15332   0.46083   0.04754   0.00000  Uiso   1.00
C219   C     0.17878   0.54009   0.09368   0.00000  Uiso   1.00
C220   C     0.17832   0.46000   0.40708   0.00000  Uiso   1.00
C221   C     0.15439   0.53995   0.40582   0.00000  Uiso   1.00
C222   C     0.24577   0.49996   0.25034   0.00000  Uiso   1.00
C223   C     0.15368   0.46069   0.09345   0.00000  Uiso   1.00
C224   C     0.16632   0.50033   0.11679   0.00000  Uiso   1.00
C225   C     0.16643   0.49990   0.38322   0.00000  Uiso   1.00
C226   C     0.16619   0.50039   0.02429   0.00000  Uiso   1.00
C227   C     0.16630   0.50026   0.47571   0.00000  Uiso   1.00
C228   C     0.29043   0.49987   0.25027   0.00000  Uiso   1.00
C229   C     0.04291   0.50010   0.24976   0.00000  Uiso   1.00
C230   C     0.16654   0.50011   0.16505   0.00000  Uiso   1.00
C231   C     0.16664   0.49992   0.33496   0.00000  Uiso   1.00
C232   C     0.13906   0.35847   0.22388   0.00000  Uiso   1.00
C233   C     0.19385   0.64113   0.27629   0.00000  Uiso   1.00
C234   C     0.19494   0.35711   0.27541   0.00000  Uiso   1.00
C235   C     0.13939   0.64192   0.22350   0.00000  Uiso   1.00
C236   C     0.02082   0.48254   0.21307   0.00000  Uiso   1.00
Cu237  Cu    0.16667   0.54689   0.25000   0.00000  Uiso   1.00
Cu238  Cu    0.16667   0.45311   0.25000   0.00000  Uiso   1.00
H239   H     0.18972   0.57070   0.03062   0.00000  Uiso   1.00
H240   H     0.11436   0.37443   0.16364   0.00000  Uiso   1.00
H241   H     0.25237   0.62446   0.29536   0.00000  Uiso   1.00
H242   H     0.21797   0.62608   0.33687   0.00000  Uiso   1.00
H243   H     0.21794   0.40535   0.31945   0.00000  Uiso   1.00
H244   H     0.25092   0.38942   0.27798   0.00000  Uiso   1.00
H245   H     0.08097   0.62590   0.20302   0.00000  Uiso   1.00
H246   H     0.11658   0.62644   0.16246   0.00000  Uiso   1.00
H247   H     0.03411   0.43222   0.16883   0.00000  Uiso   1.00
H248   H     0.03429   0.48707   0.14806   0.00000  Uiso   1.00
H249   H     0.29905   0.51266   0.35197   0.00000  Uiso   1.00
H250   H     0.18884   0.42943   0.47073   0.00000  Uiso   1.00
H251   H     0.29927   0.56757   0.33136   0.00000  Uiso   1.00
H252   H     0.29425   0.48435   0.14827   0.00000  Uiso   1.00
H253   H     0.29469   0.43035   0.17131   0.00000  Uiso   1.00
H254   H     0.03867   0.56955   0.32879   0.00000  Uiso   1.00
H255   H     0.03911   0.51553   0.35179   0.00000  Uiso   1.00
H256   H     0.14372   0.57101   0.46842   0.00000  Uiso   1.00
H257   H     0.14254   0.43015   0.03025   0.00000  Uiso   1.00
H258   H     0.18894   0.57096   0.11110   0.00000  Uiso   1.00
H259   H     0.18796   0.42878   0.39034   0.00000  Uiso   1.00
H260   H     0.14470   0.57102   0.38803   0.00000  Uiso   1.00
H261   H     0.14359   0.42978   0.11062   0.00000  Uiso   1.00
H262   H     0.08019   0.37428   0.20545   0.00000  Uiso   1.00
N263   N     0.16667   0.61736   0.25000   0.00000  Uiso   1.00
N264   N     0.04652   0.53478   0.32368   0.00000  Uiso   1.00
N265   N     0.16667   0.38264   0.25000   0.00000  Uiso   1.00
N266   N     0.11012   0.38376   0.19654   0.00000  Uiso   1.00
N267   N     0.22223   0.61572   0.30423   0.00000  Uiso   1.00
N268   N     0.22823   0.37855   0.29973   0.00000  Uiso   1.00
N269   N     0.11131   0.61688   0.19521   0.00000  Uiso   1.00
N270   N     0.04281   0.46649   0.17535   0.00000  Uiso   1.00
N271   N     0.29053   0.53333   0.32475   0.00000  Uiso   1.00
N272   N     0.28683   0.46512   0.17639   0.00000  Uiso   1.00
O273   O     0.10655   0.53958   0.25000   0.00000  Uiso   1.00
O274   O     0.22679   0.46042   0.25001   0.00000  Uiso   1.00
O275   O     0.22679   0.53958   0.25001   0.00000  Uiso   1.00
O276   O     0.10655   0.46042   0.25000   0.00000  Uiso   1.00
O277   O     0.16666   0.53959   0.18573   0.00000  Uiso   1.00
O278   O     0.16667   0.46041   0.31427   0.00000  Uiso   1.00
O279   O     0.16667   0.53959   0.31427   0.00000  Uiso   1.00
O280   O     0.16666   0.46041   0.18573   0.00000  Uiso   1.00
C281   C     0.42090   0.50003   0.24968   0.00000  Uiso   1.00
C282   C     0.64586   0.51737   0.28698   0.00000  Uiso   1.00
C283   C     0.64406   0.48229   0.21340   0.00000  Uiso   1.00
C284   C     0.35595   0.51764   0.28665   0.00000  Uiso   1.00
C285   C     0.51234   0.54001   0.04774   0.00000  Uiso   1.00
C286   C     0.51191   0.46029   0.45301   0.00000  Uiso   1.00
C287   C     0.48738   0.54003   0.45173   0.00000  Uiso   1.00
C288   C     0.48665   0.46083   0.04754   0.00000  Uiso   1.00
C289   C     0.51211   0.54009   0.09368   0.00000  Uiso   1.00
C290   C     0.51165   0.46000   0.40708   0.00000  Uiso   1.00
C291   C     0.48772   0.53995   0.40582   0.00000  Uiso   1.00
C292   C     0.57911   0.49996   0.25034   0.00000  Uiso   1.00
C293   C     0.48702   0.46069   0.09345   0.00000  Uiso   1.00
C294   C     0.49966   0.50033   0.11679   0.00000  Uiso   1.00
C295   C     0.49976   0.49990   0.38322   0.00000  Uiso   1.00
C296   C     0.49952   0.50039   0.02429   0.00000  Uiso   1.00
C297   C     0.49963   0.50026   0.47571   0.00000  Uiso   1.00
C298   C     0.62376   0.49987   0.25027   0.00000  Uiso   1.00
C299   C     0.37624   0.50010   0.24976   0.00000  Uiso   1.00
C300   C     0.49987   0.50011   0.16505   0.00000  Uiso   1.00
C301   C     0.49998   0.49992   0.33496   0.00000  Uiso   1.00
C302   C     0.47239   0.35847   0.22388   0.00000  Uiso   1.00
C303   C     0.52718   0.64113   0.27629   0.00000  Uiso   1.00
C304   C     0.52827   0.35711   0.27541   0.00000  Uiso   1.00
C305   C     0.47273   0.64192   0.22350   0.00000  Uiso   1.00
C306   C     0.35415   0.48254   0.21307   0.00000  Uiso   1.00
Cu307  Cu    0.50000   0.54689   0.25000   0.00000  Uiso   1.00
Cu308  Cu    0.50000   0.45311   0.25000   0.00000  Uiso   1.00
H309   H     0.52306   0.57070   0.03062   0.00000  Uiso   1.00
H310   H     0.44769   0.37443   0.16364   0.00000  Uiso   1.00
H311   H     0.58570   0.62446   0.29536   0.00000  Uiso   1.00
H312   H     0.55131   0.62608   0.33687   0.00000  Uiso   1.00
H313   H     0.55127   0.40535   0.31945   0.00000  Uiso   1.00
H314   H     0.58426   0.38942   0.27798   0.00000  Uiso   1.00
H315   H     0.41431   0.62590   0.20302   0.00000  Uiso   1.00
H316   H     0.44991   0.62644   0.16246   0.00000  Uiso   1.00
H317   H     0.36745   0.43222   0.16883   0.00000  Uiso   1.00
H318   H     0.36762   0.48707   0.14806   0.00000  Uiso   1.00
H319   H     0.63238   0.51266   0.35197   0.00000  Uiso   1.00
H320   H     0.52218   0.42943   0.47073   0.00000  Uiso   1.00
H321   H     0.63260   0.56757   0.33136   0.00000  Uiso   1.00
H322   H     0.62758   0.48435   0.14827   0.00000  Uiso   1.00
H323   H     0.62802   0.43035   0.17131   0.00000  Uiso   1.00
H324   H     0.37200   0.56955   0.32879   0.00000  Uiso   1.00
H325   H     0.37244   0.51553   0.35179   0.00000  Uiso   1.00
H326   H     0.47706   0.57101   0.46842   0.00000  Uiso   1.00
H327   H     0.47587   0.43015   0.03025   0.00000  Uiso   1.00
H328   H     0.52227   0.57096   0.11110   0.00000  Uiso   1.00
H329   H     0.52129   0.42878   0.39034   0.00000  Uiso   1.00
H330   H     0.47804   0.57102   0.38803   0.00000  Uiso   1.00
H331   H     0.47692   0.42978   0.11062   0.00000  Uiso   1.00
H332   H     0.41353   0.37428   0.20545   0.00000  Uiso   1.00
N333   N     0.50000   0.61736   0.25000   0.00000  Uiso   1.00
N334   N     0.37985   0.53478   0.32368   0.00000  Uiso   1.00
N335   N     0.50000   0.38264   0.25000   0.00000  Uiso   1.00
N336   N     0.44346   0.38376   0.19654   0.00000  Uiso   1.00
N337   N     0.55557   0.61572   0.30423   0.00000  Uiso   1.00
N338   N     0.56156   0.37855   0.29973   0.00000  Uiso   1.00
N339   N     0.44464   0.61688   0.19521   0.00000  Uiso   1.00
N340   N     0.37615   0.46649   0.17535   0.00000  Uiso   1.00
N341   N     0.62387   0.53333   0.32475   0.00000  Uiso   1.00
N342   N     0.62016   0.46512   0.17639   0.00000  Uiso   1.00
O343   O     0.43988   0.53958   0.25000   0.00000  Uiso   1.00
O344   O     0.56012   0.46042   0.25001   0.00000  Uiso   1.00
O345   O     0.56012   0.53958   0.25001   0.00000  Uiso   1.00
O346   O     0.43988   0.46042   0.25000   0.00000  Uiso   1.00
O347   O     0.50000   0.53959   0.18573   0.00000  Uiso   1.00
O348   O     0.50000   0.46041   0.31427   0.00000  Uiso   1.00
O349   O     0.50000   0.53959   0.31427   0.00000  Uiso   1.00
O350   O     0.50000   0.46041   0.18573   0.00000  Uiso   1.00
C351   C     0.75423   0.50003   0.24968   0.00000  Uiso   1.00
C352   C     0.97919   0.51737   0.28698   0.00000  Uiso   1.00
C353   C     0.97739   0.48229   0.21340   0.00000  Uiso   1.00
C354   C     0.68928   0.51764   0.28665   0.00000  Uiso   1.00
C355   C     0.84567   0.54001   0.04774   0.00000  Uiso   1.00
C356   C     0.84524   0.46029   0.45301   0.00000  Uiso   1.00
C357   C     0.82071   0.54003   0.45173   0.00000  Uiso   1.00
C358   C     0.81998   0.46083   0.04754   0.00000  Uiso   1.00
C359   C     0.84544   0.54009   0.09368   0.00000  Uiso   1.00
C360   C     0.84499   0.46000   0.40708   0.00000  Uiso   1.00
C361   C     0.82105   0.53995   0.40582   0.00000  Uiso   1.00
C362   C     0.91244   0.49996   0.25034   0.00000  Uiso   1.00
C363   C     0.82035   0.46069   0.09345   0.00000  Uiso   1.00
C364   C     0.83299   0.50033   0.11679   0.00000  Uiso   1.00
C365   C     0.83309   0.49990   0.38322   0.00000  Uiso   1.00
C366   C     0.83286   0.50039   0.02429   0.00000  Uiso   1.00
C367   C     0.83297   0.50026   0.47571   0.00000  Uiso   1.00
C368   C     0.95709   0.49987   0.25027   0.00000  Uiso   1.00
C369   C     0.70958   0.50010   0.24976   0.00000  Uiso   1.00
C370   C     0.83321   0.50011   0.16505   0.00000  Uiso   1.00
C371   C     0.83331   0.49992   0.33496   0.00000  Uiso   1.00
C372   C     0.80573   0.35847   0.22388   0.00000  Uiso   1.00
C373   C     0.86051   0.64113   0.27629   0.00000  Uiso   1.00
C374   C     0.86160   0.35711   0.27541   0.00000  Uiso   1.00
C375   C     0.80606   0.64192   0.22350   0.00000  Uiso   1.00
C376   C     0.68748   0.48254   0.21307   0.00000  Uiso   1.00
Cu377  Cu    0.83333   0.54689   0.25000   0.00000  Uiso   1.00
Cu378  Cu    0.83333   0.45311   0.25000   0.00000  Uiso   1.00
H379   H     0.85639   0.57070   0.03062   0.00000  Uiso   1.00
H380   H     0.78103   0.37443   0.16364   0.00000  Uiso   1.00
H381   H     0.91903   0.62446   0.29536   0.00000  Uiso   1.00
H382   H     0.88464   0.62608   0.33687   0.00000  Uiso   1.00
H383   H     0.88461   0.40535   0.31945   0.00000  Uiso   1.00
H384   H     0.91759   0.38942   0.27798   0.00000  Uiso   1.00
H385   H     0.74764   0.62590   0.20302   0.00000  Uiso   1.00
H386   H     0.78325   0.62644   0.16246   0.00000  Uiso   1.00
H387   H     0.70078   0.43222   0.16883   0.00000  Uiso   1.00
H388   H     0.70096   0.48707   0.14806   0.00000  Uiso   1.00
H389   H     0.96571   0.51266   0.35197   0.00000  Uiso   1.00
H390   H     0.85551   0.42943   0.47073   0.00000  Uiso   1.00
H391   H     0.96593   0.56757   0.33136   0.00000  Uiso   1.00
H392   H     0.96091   0.48435   0.14827   0.00000  Uiso   1.00
H393   H     0.96135   0.43035   0.17131   0.00000  Uiso   1.00
H394   H     0.70533   0.56955   0.32879   0.00000  Uiso   1.00
H395   H     0.70578   0.51553   0.35179   0.00000  Uiso   1.00
H396   H     0.81039   0.57101   0.46842   0.00000  Uiso   1.00
H397   H     0.80920   0.43015   0.03025   0.00000  Uiso   1.00
H398   H     0.85560   0.57096   0.11110   0.00000  Uiso   1.00
H399   H     0.85462   0.42878   0.39034   0.00000  Uiso   1.00
H400   H     0.81137   0.57102   0.38803   0.00000  Uiso   1.00
H401   H     0.81026   0.42978   0.11062   0.00000  Uiso   1.00
H402   H     0.74686   0.37428   0.20545   0.00000  Uiso   1.00
N403   N     0.83333   0.61736   0.25000   0.00000  Uiso   1.00
N404   N     0.71318   0.53478   0.32368   0.00000  Uiso   1.00
N405   N     0.83333   0.38264   0.25000   0.00000  Uiso   1.00
N406   N     0.77679   0.38376   0.19654   0.00000  Uiso   1.00
N407   N     0.88890   0.61572   0.30423   0.00000  Uiso   1.00
N408   N     0.89489   0.37855   0.29973   0.00000  Uiso   1.00
N409   N     0.77798   0.61688   0.19521   0.00000  Uiso   1.00
N410   N     0.70948   0.46649   0.17535   0.00000  Uiso   1.00
N411   N     0.95720   0.53333   0.32475   0.00000  Uiso   1.00
N412   N     0.95350   0.46512   0.17639   0.00000  Uiso   1.00
O413   O     0.77321   0.53958   0.25000   0.00000  Uiso   1.00
O414   O     0.89345   0.46042   0.25001   0.00000  Uiso   1.00
O415   O     0.89345   0.53958   0.25001   0.00000  Uiso   1.00
O416   O     0.77321   0.46042   0.25000   0.00000  Uiso   1.00
O417   O     0.83333   0.53959   0.18573   0.00000  Uiso   1.00
O418   O     0.83334   0.46041   0.31427   0.00000  Uiso   1.00
O419   O     0.83334   0.53959   0.31427   0.00000  Uiso   1.00
O420   O     0.83333   0.46041   0.18573   0.00000  Uiso   1.00
C421   C     0.08756   0.83337   0.24968   0.00000  Uiso   1.00
C422   C     0.31252   0.85071   0.28698   0.00000  Uiso   1.00
C423   C     0.31072   0.81562   0.21340   0.00000  Uiso   1.00
C424   C     0.02262   0.85098   0.28665   0.00000  Uiso   1.00
C425   C     0.17900   0.87334   0.04774   0.00000  Uiso   1.00
C426   C     0.17858   0.79363   0.45301   0.00000  Uiso   1.00
C427   C     0.15405   0.87336   0.45173   0.00000  Uiso   1.00
C428   C     0.15332   0.79416   0.04754   0.00000  Uiso   1.00
C429   C     0.17878   0.87342   0.09368   0.00000  Uiso   1.00
C430   C     0.17832   0.79333   0.40708   0.00000  Uiso   1.00
C431   C     0.15439   0.87328   0.40582   0.00000  Uiso   1.00
C432   C     0.24577   0.83329   0.25034   0.00000  Uiso   1.00
C433   C     0.15368   0.79402   0.09345   0.00000  Uiso   1.00
C434   C     0.16632   0.83366   0.11679   0.00000  Uiso   1.00
C435   C     0.16643   0.83323   0.38322   0.00000  Uiso   1.00
C436   C     0.16619   0.83373   0.02429   0.00000  Uiso   1.00
C437   C     0.16630   0.83359   0.47571   0.00000  Uiso   1.00
C438   C     0.29043   0.83320   0.25027   0.00000  Uiso   1.00
C439   C     0.04291   0.83343   0.24976   0.00000  Uiso   1.00
C440   C     0.16654   0.83344   0.16505   0.00000  Uiso   1.00
C441   C     0.16664   0.83325   0.33496   0.00000  Uiso   1.00
C442   C     0.13906   0.69180   0.22388   0.00000  Uiso   1.00
C443   C     0.19385   0.97447   0.27629   0.00000  Uiso   1.00
C444   C     0.19494   0.69044   0.27541   0.00000  Uiso   1.00
C445   C     0.13939   0.97526   0.22350   0.00000  Uiso   1.00
C446   C     0.02082   0.81588   0.21307   0.00000  Uiso   1.00
Cu447  Cu    0.16667   0.88022   0.25000   0.00000  Uiso   1.00
Cu448  Cu    0.16667   0.78645   0.25000   0.00000  Uiso   1.00
H449   H     0.18972   0.90403   0.03062   0.00000  Uiso   1.00
H450   H     0.11436   0.70776   0.16364   0.00000  Uiso   1.00
H451   H     0.25237   0.95779   0.29536   0.00000  Uiso   1.00
H452   H     0.21797   0.95941   0.33687   0.00000  Uiso   1.00
H453   H     0.21794   0.73868   0.31945   0.00000  Uiso   1.00
H454   H     0.25092   0.72275   0.27798   0.00000  Uiso   1.00
H455   H     0.08097   0.95924   0.20302   0.00000  Uiso   1.00
H456   H     0.11658   0.95978   0.16246   0.00000  Uiso   1.00
H457   H     0.03411   0.76555   0.16883   0.00000  Uiso   1.00
H458   H     0.03429   0.82040   0.14806   0.00000  Uiso   1.00
H459   H     0.29905   0.84599   0.35197   0.00000  Uiso   1.00
H460   H     0.18884   0.76276   0.47073   0.00000  Uiso   1.00
H461   H     0.29927   0.90090   0.33136   0.00000  Uiso   1.00
H462   H     0.29425   0.81769   0.14827   0.00000  Uiso   1.00
H463   H     0.29469   0.76368   0.17131   0.00000  Uiso   1.00
H464   H     0.03867   0.90288   0.32879   0.00000  Uiso   1.00
H465   H     0.03911   0.84886   0.35179   0.00000  Uiso   1.00
H466   H     0.14372   0.90434   0.46842   0.00000  Uiso   1.00
H467   H     0.14254   0.76348   0.03025   0.00000  Uiso   1.00
H468   H     0.18894   0.90430   0.11110   0.00000  Uiso   1.00
H469   H     0.18796   0.76212   0.39034   0.00000  Uiso   1.00
H470   H     0.14470   0.90436   0.38803   0.00000  Uiso   1.00
H471   H     0.14359   0.76311   0.11062   0.00000  Uiso   1.00
H472   H     0.08019   0.70761   0.20545   0.00000  Uiso   1.00
N473   N     0.16667   0.95069   0.25000   0.00000  Uiso   1.00
N474   N     0.04652   0.86811   0.32368   0.00000  Uiso   1.00
N475   N     0.16667   0.71598   0.25000   0.00000  Uiso   1.00
N476   N     0.11012   0.71709   0.19654   0.00000  Uiso   1.00
N477   N     0.22223   0.94905   0.30423   0.00000  Uiso   1.00
N478   N     0.22823   0.71188   0.29973   0.00000  Uiso   1.00
N479   N     0.11131   0.95022   0.19521   0.00000  Uiso   1.00
N480   N     0.04281   0.79983   0.17535   0.00000  Uiso   1.00
N481   N     0.29053   0.86666   0.32475   0.00000  Uiso   1.00
N482   N     0.28683   0.79846   0.17639   0.00000  Uiso   1.00
O483   O     0.10655   0.87291   0.25000   0.00000  Uiso   1.00
O484   O     0.22679   0.79375   0.25001   0.00000  Uiso   1.00
O485   O     0.22679   0.87291   0.25001   0.00000  Uiso   1.00
O486   O     0.10655   0.79375   0.25000   0.00000  Uiso   1.00
O487   O     0.16666   0.87293   0.18573   0.00000  Uiso   1.00
O488   O     0.16667   0.79374   0.31427   0.00000  Uiso   1.00
O489   O     0.16667   0.87293   0.31427   0.00000  Uiso   1.00
O490   O     0.16666   0.79374   0.18573   0.00000  Uiso   1.00
C491   C     0.42090   0.83337   0.24968   0.00000  Uiso   1.00
C492   C     0.64586   0.85071   0.28698   0.00000  Uiso   1.00
C493   C     0.64406   0.81562   0.21340   0.00000  Uiso   1.00
C494   C     0.35595   0.85098   0.28665   0.00000  Uiso   1.00
C495   C     0.51234   0.87334   0.04774   0.00000  Uiso   1.00
C496   C     0.51191   0.79363   0.45301   0.00000  Uiso   1.00
C497   C     0.48738   0.87336   0.45173   0.00000  Uiso   1.00
C498   C     0.48665   0.79416   0.04754   0.00000  Uiso   1.00
C499   C     0.51211   0.87342   0.09368   0.00000  Uiso   1.00
C500   C     0.51165   0.79333   0.40708   0.00000  Uiso   1.00
C501   C     0.48772   0.87328   0.40582   0.00000  Uiso   1.00
C502   C     0.57911   0.83329   0.25034   0.00000  Uiso   1.00
C503   C     0.48702   0.79402   0.09345   0.00000  Uiso   1.00
C504   C     0.49966   0.83366   0.11679   0.00000  Uiso   1.00
C505   C     0.49976   0.83323   0.38322   0.00000  Uiso   1.00
C506   C     0.49952   0.83373   0.02429   0.00000  Uiso   1.00
C507   C     0.49963   0.83359   0.47571   0.00000  Uiso   1.00
C508   C     0.62376   0.83320   0.25027   0.00000  Uiso   1.00
C509   C     0.37624   0.83343   0.24976   0.00000  Uiso   1.00
C510   C     0.49987   0.83344   0.16505   0.00000  Uiso   1.00
C511   C     0.49998   0.83325   0.33496   0.00000  Uiso   1.00
C512   C     0.47239   0.69180   0.22388   0.00000  Uiso   1.00
C513   C     0.52718   0.97447   0.27629   0.00000  Uiso   1.00
C514   C     0.52827   0.69044   0.27541   0.00000  Uiso   1.00
C515   C     0.47273   0.97526   0.22350   0.00000  Uiso   1.00
C516   C     0.35415   0.81588   0.21307   0.00000  Uiso   1.00
Cu517  Cu    0.50000   0.88022   0.25000   0.00000  Uiso   1.00
Cu518  Cu    0.50000   0.78645   0.25000   0.00000  Uiso   1.00
H519   H     0.52306   0.90403   0.03062   0.00000  Uiso   1.00
H520   H     0.44769   0.70776   0.16364   0.00000  Uiso   1.00
H521   H     0.58570   0.95779   0.29536   0.00000  Uiso   1.00
H522   H     0.55131   0.95941   0.33687   0.00000  Uiso   1.00
H523   H     0.55127   0.73868   0.31945   0.00000  Uiso   1.00
H524   H     0.58426   0.72275   0.27798   0.00000  Uiso   1.00
H525   H     0.41431   0.95924   0.20302   0.00000  Uiso   1.00
H526   H     0.44991   0.95978   0.16246   0.00000  Uiso   1.00
H527   H     0.36745   0.76555   0.16883   0.00000  Uiso   1.00
H528   H     0.36762   0.82040   0.14806   0.00000  Uiso   1.00
H529   H     0.63238   0.84599   0.35197   0.00000  Uiso   1.00
H530   H     0.52218   0.76276   0.47073   0.00000  Uiso   1.00
H531   H     0.63260   0.90090   0.33136   0.00000  Uiso   1.00
H532   H     0.62758   0.81769   0.14827   0.00000  Uiso   1.00
H533   H     0.62802   0.76368   0.17131   0.00000  Uiso   1.00
H534   H     0.37200   0.90288   0.32879   0.00000  Uiso   1.00
H535   H     0.37244   0.84886   0.35179   0.00000  Uiso   1.00
H536   H     0.47706   0.90434   0.46842   0.00000  Uiso   1.00
H537   H     0.47587   0.76348   0.03025   0.00000  Uiso   1.00
H538   H     0.52227   0.90430   0.11110   0.00000  Uiso   1.00
H539   H     0.52129   0.76212   0.39034   0.00000  Uiso   1.00
H540   H     0.47804   0.90436   0.38803   0.00000  Uiso   1.00
H541   H     0.47692   0.76311   0.11062   0.00000  Uiso   1.00
H542   H     0.41353   0.70761   0.20545   0.00000  Uiso   1.00
N543   N     0.50000   0.95069   0.25000   0.00000  Uiso   1.00
N544   N     0.37985   0.86811   0.32368   0.00000  Uiso   1.00
N545   N     0.50000   0.71598   0.25000   0.00000  Uiso   1.00
N546   N     0.44346   0.71709   0.19654   0.00000  Uiso   1.00
N547   N     0.55557   0.94905   0.30423   0.00000  Uiso   1.00
N548   N     0.56156   0.71188   0.29973   0.00000  Uiso   1.00
N549   N     0.44464   0.95022   0.19521   0.00000  Uiso   1.00
N550   N     0.37615   0.79983   0.17535   0.00000  Uiso   1.00
N551   N     0.62387   0.86666   0.32475   0.00000  Uiso   1.00
N552   N     0.62016   0.79846   0.17639   0.00000  Uiso   1.00
O553   O     0.43988   0.87291   0.25000   0.00000  Uiso   1.00
O554   O     0.56012   0.79375   0.25001   0.00000  Uiso   1.00
O555   O     0.56012   0.87291   0.25001   0.00000  Uiso   1.00
O556   O     0.43988   0.79375   0.25000   0.00000  Uiso   1.00
O557   O     0.50000   0.87293   0.18573   0.00000  Uiso   1.00
O558   O     0.50000   0.79374   0.31427   0.00000  Uiso   1.00
O559   O     0.50000   0.87293   0.31427   0.00000  Uiso   1.00
O560   O     0.50000   0.79374   0.18573   0.00000  Uiso   1.00
C561   C     0.75423   0.83337   0.24968   0.00000  Uiso   1.00
C562   C     0.97919   0.85071   0.28698   0.00000  Uiso   1.00
C563   C     0.97739   0.81562   0.21340   0.00000  Uiso   1.00
C564   C     0.68928   0.85098   0.28665   0.00000  Uiso   1.00
C565   C     0.84567   0.87334   0.04774   0.00000  Uiso   1.00
C566   C     0.84524   0.79363   0.45301   0.00000  Uiso   1.00
C567   C     0.82071   0.87336   0.45173   0.00000  Uiso   1.00
C568   C     0.81998   0.79416   0.04754   0.00000  Uiso   1.00
C569   C     0.84544   0.87342   0.09368   0.00000  Uiso   1.00
C570   C     0.84499   0.79333   0.40708   0.00000  Uiso   1.00
C571   C     0.82105   0.87328   0.40582   0.00000  Uiso   1.00
C572   C     0.91244   0.83329   0.25034   0.00000  Uiso   1.00
C573   C     0.82035   0.79402   0.09345   0.00000  Uiso   1.00
C574   C     0.83299   0.83366   0.11679   0.00000  Uiso   1.00
C575   C     0.83309   0.83323   0.38322   0.00000  Uiso   1.00
C576   C     0.83286   0.83373   0.02429   0.00000  Uiso   1.00
C577   C     0.83297   0.83359   0.47571   0.00000  Uiso   1.00
C578   C     0.95709   0.83320   0.25027   0.00000  Uiso   1.00
C579   C     0.70958   0.83343   0.24976   0.00000  Uiso   1.00
C580   C     0.83321   0.83344   0.16505   0.00000  Uiso   1.00
C581   C     0.83331   0.83325   0.33496   0.00000  Uiso   1.00
C582   C     0.80573   0.69180   0.22388   0.00000  Uiso   1.00
C583   C     0.86051   0.97447   0.27629   0.00000  Uiso   1.00
C584   C     0.86160   0.69044   0.27541   0.00000  Uiso   1.00
C585   C     0.80606   0.97526   0.22350   0.00000  Uiso   1.00
C586   C     0.68748   0.81588   0.21307   0.00000  Uiso   1.00
Cu587  Cu    0.83333   0.88022   0.25000   0.00000  Uiso   1.00
Cu588  Cu    0.83333   0.78645   0.25000   0.00000  Uiso   1.00
H589   H     0.85639   0.90403   0.03062   0.00000  Uiso   1.00
H590   H     0.78103   0.70776   0.16364   0.00000  Uiso   1.00
H591   H     0.91903   0.95779   0.29536   0.00000  Uiso   1.00
H592   H     0.88464   0.95941   0.33687   0.00000  Uiso   1.00
H593   H     0.88461   0.73868   0.31945   0.00000  Uiso   1.00
H594   H     0.91759   0.72275   0.27798   0.00000  Uiso   1.00
H595   H     0.74764   0.95924   0.20302   0.00000  Uiso   1.00
H596   H     0.78325   0.95978   0.16246   0.00000  Uiso   1.00
H597   H     0.70078   0.76555   0.16883   0.00000  Uiso   1.00
H598   H     0.70096   0.82040   0.14806   0.00000  Uiso   1.00
H599   H     0.96571   0.84599   0.35197   0.00000  Uiso   1.00
H600   H     0.85551   0.76276   0.47073   0.00000  Uiso   1.00
H601   H     0.96593   0.90090   0.33136   0.00000  Uiso   1.00
H602   H     0.96091   0.81769   0.14827   0.00000  Uiso   1.00
H603   H     0.96135   0.76368   0.17131   0.00000  Uiso   1.00
H604   H     0.70533   0.90288   0.32879   0.00000  Uiso   1.00
H605   H     0.70578   0.84886   0.35179   0.00000  Uiso   1.00
H606   H     0.81039   0.90434   0.46842   0.00000  Uiso   1.00
H607   H     0.80920   0.76348   0.03025   0.00000  Uiso   1.00
H608   H     0.85560   0.90430   0.11110   0.00000  Uiso   1.00
H609   H     0.85462   0.76212   0.39034   0.00000  Uiso   1.00
H610   H     0.81137   0.90436   0.38803   0.00000  Uiso   1.00
H611   H     0.81026   0.76311   0.11062   0.00000  Uiso   1.00
H612   H     0.74686   0.70761   0.20545   0.00000  Uiso   1.00
N613   N     0.83333   0.95069   0.25000   0.00000  Uiso   1.00
N614   N     0.71318   0.86811   0.32368   0.00000  Uiso   1.00
N615   N     0.83333   0.71598   0.25000   0.00000  Uiso   1.00
N616   N     0.77679   0.71709   0.19654   0.00000  Uiso   1.00
N617   N     0.88890   0.94905   0.30423   0.00000  Uiso   1.00
N618   N     0.89489   0.71188   0.29973   0.00000  Uiso   1.00
N619   N     0.77798   0.95022   0.19521   0.00000  Uiso   1.00
N620   N     0.70948   0.79983   0.17535   0.00000  Uiso   1.00
N621   N     0.95720   0.86666   0.32475   0.00000  Uiso   1.00
N622   N     0.95350   0.79846   0.17639   0.00000  Uiso   1.00
O623   O     0.77321   0.87291   0.25000   0.00000  Uiso   1.00
O624   O     0.89345   0.79375   0.25001   0.00000  Uiso   1.00
O625   O     0.89345   0.87291   0.25001   0.00000  Uiso   1.00
O626   O     0.77321   0.79375   0.25000   0.00000  Uiso   1.00
O627   O     0.83333   0.87293   0.18573   0.00000  Uiso   1.00
O628   O     0.83334   0.79374   0.31427   0.00000  Uiso   1.00
O629   O     0.83334   0.87293   0.31427   0.00000  Uiso   1.00
O630   O     0.83333   0.79374   0.18573   0.00000  Uiso   1.00
C631   C     0.08756   0.16670   0.74968   0.00000  Uiso   1.00
C632   C     0.31252   0.18404   0.78698   0.00000  Uiso   1.00
C633   C     0.31072   0.14895   0.71340   0.00000  Uiso   1.00
C634   C     0.02262   0.18431   0.78665   0.00000  Uiso   1.00
C635   C     0.17900   0.20667   0.54774   0.00000  Uiso   1.00
C636   C     0.17858   0.12696   0.95301   0.00000  Uiso   1.00
C637   C     0.15405   0.20669   0.95173   0.00000  Uiso   1.00
C638   C     0.15332   0.12750   0.54754   0.00000  Uiso   1.00
C639   C     0.17878   0.20675   0.59368   0.00000  Uiso   1.00
C640   C     0.17832   0.12667   0.90708   0.00000  Uiso   1.00
C641   C     0.15439   0.20662   0.90582   0.00000  Uiso   1.00
C642   C     0.24577   0.16663   0.75034   0.00000  Uiso   1.00
C643   C     0.15368   0.12736   0.59345   0.00000  Uiso   1.00
C644   C     0.16632   0.16699   0.61679   0.00000  Uiso   1.00
C645   C     0.16643   0.16656   0.88322   0.00000  Uiso   1.00
C646   C     0.16619   0.16706   0.52429   0.00000  Uiso   1.00
C647   C     0.16630   0.16692   0.97571   0.00000  Uiso   1.00
C648   C     0.29043   0.16654   0.75027   0.00000  Uiso   1.00
C649   C     0.04291   0.16677   0.74976   0.00000  Uiso   1.00
C650   C     0.16654   0.16678   0.66505   0.00000  Uiso   1.00
C651   C     0.16664   0.16659   0.83496   0.00000  Uiso   1.00
C652   C     0.13906   0.02513   0.72388   0.00000  Uiso   1.00
C653   C     0.19385   0.30780   0.77629   0.00000  Uiso   1.00
C654   C     0.19494   0.02377   0.77541   0.00000  Uiso   1.00
C655   C     0.13939   0.30859   0.72350   0.00000  Uiso   1.00
C656   C     0.02082   0.14921   0.71307   0.00000  Uiso   1.00
Cu657  Cu    0.16667   0.21355   0.75000   0.00000  Uiso   1.00
Cu658  Cu    0.16667   0.11978   0.75000   0.00000  Uiso   1.00
H659   H     0.18972   0.23737   0.53062   0.00000  Uiso   1.00
H660   H     0.11436   0.04109   0.66364   0.00000  Uiso   1.00
H661   H     0.25237   0.29112   0.79536   0.00000  Uiso   1.00
H662   H     0.21797   0.29275   0.83687   0.00000  Uiso   1.00
H663   H     0.21794   0.07202   0.81945   0.00000  Uiso   1.00
H664   H     0.25092   0.05609   0.77798   0.00000  Uiso   1.00
H665   H     0.08097   0.29257   0.70302   0.00000  Uiso   1.00
H666   H     0.11658   0.29311   0.66246   0.00000  Uiso   1.00
H667   H     0.03411   0.09889   0.66883   0.00000  Uiso   1.00
H668   H     0.03429   0.15373   0.64806   0.00000  Uiso   1.00
H669   H     0.29905   0.17932   0.85197   0.00000  Uiso   1.00
H670   H     0.18884   0.09609   0.97073   0.00000  Uiso   1.00
H671   H     0.29927   0.23423   0.83136   0.00000  Uiso   1.00
H672   H     0.29425   0.15102   0.64827   0.00000  Uiso   1.00
H673   H     0.29469   0.09702   0.67131   0.00000  Uiso   1.00
H674   H     0.03867   0.23622   0.82879   0.00000  Uiso   1.00
H675   H     0.03911   0.18219   0.85179   0.00000  Uiso   1.00
H676   H     0.14372   0.23767   0.96842   0.00000  Uiso   1.00
H677   H     0.14254   0.09681   0.53025   0.00000  Uiso   1.00
H678   H     0.18894   0.23763   0.61110   0.00000  Uiso   1.00
H679   H     0.18796   0.09545   0.89034   0.00000  Uiso   1.00
H680   H     0.14470   0.23769   0.88803   0.00000  Uiso   1.00
H681   H     0.14359   0.09644   0.61062   0.00000  Uiso   1.00
H682   H     0.08019   0.04095   0.70545   0.00000  Uiso   1.00
N683   N     0.16667   0.28402   0.75000   0.00000  Uiso   1.00
N684   N     0.04652   0.20145   0.82368   0.00000  Uiso   1.00
N685   N     0.16667   0.04931   0.75000   0.00000  Uiso   1.00
N686   N     0.11012   0.05042   0.69654   0.00000  Uiso   1.00
N687   N     0.22223   0.28239   0.80423   0.00000  Uiso   1.00
N688   N     0.22823   0.04521   0.79973   0.00000  Uiso   1.00
N689   N     0.11131   0.28355   0.69521   0.00000  Uiso   1.00
N690   N     0.04281   0.13316   0.67535   0.00000  Uiso   1.00
N691   N     0.29053   0.19999   0.82475   0.00000  Uiso   1.00
N692   N     0.28683   0.13179   0.67639   0.00000  Uiso   1.00
O693   O     0.10655   0.20625   0.75000   0.00000  Uiso   1.00
O694   O     0.22679   0.12709   0.75001   0.00000  Uiso   1.00
O695   O     0.22679   0.20625   0.75001   0.00000  Uiso   1.00
O696   O     0.10655   0.12709   0.75000   0.00000  Uiso   1.00
O697   O     0.16666   0.20626   0.68573   0.00000  Uiso   1.00
O698   O     0.16667   0.12707   0.81427   0.00000  Uiso   1.00
O699   O     0.16667   0.20626   0.81427   0.00000  Uiso   1.00
O700   O     0.16666   0.12707   0.68573   0.00000  Uiso   1.00
C701   C     0.42090   0.16670   0.74968   0.00000  Uiso   1.00
C702   C     0.64586   0.18404   0.78698   0.00000  Uiso   1.00
C703   C     0.64406   0.14895   0.71340   0.00000  Uiso   1.00
C704   C     0.35595   0.18431   0.78665   0.00000  Uiso   1.00
C705   C     0.51234   0.20667   0.54774   0.00000  Uiso   1.00
C706   C     0.51191   0.12696   0.95301   0.00000  Uiso   1.00
C707   C     0.48738   0.20669   0.95173   0.00000  Uiso   1.00
C708   C     0.48665   0.12750   0.54754   0.00000  Uiso   1.00
C709   C     0.51211   0.20675   0.59368   0.00000  Uiso   1.00
C710   C     0.51165   0.12667   0.90708   0.00000  Uiso   1.00
C711   C     0.48772   0.20662   0.90582   0.00000  Uiso   1.00
C712   C     0.57911   0.16663   0.75034   0.00000  Uiso   1.00
C713   C     0.48702   0.12736   0.59345   0.00000  Uiso   1.00
C714   C     0.49966   0.16699   0.61679   0.00000  Uiso   1.00
C715   C     0.49976   0.16656   0.88322   0.00000  Uiso   1.00
C716   C     0.49952   0.16706   0.52429   0.00000  Uiso   1.00
C717   C     0.49963   0.16692   0.97571   0.00000  Uiso   1.00
C718   C     0.62376   0.16654   0.75027   0.00000  Uiso   1.00
C719   C     0.37624   0.16677   0.74976   0.00000  Uiso   1.00
C720   C     0.49987   0.16678   0.66505   0.00000  Uiso   1.00
C721   C     0.49998   0.16659   0.83496   0.00000  Uiso   1.00
C722   C     0.47239   0.02513   0.72388   0.00000  Uiso   1.00
C723   C     0.52718   0.30780   0.77629   0.00000  Uiso   1.00
C724   C     0.52827   0.02377   0.77541   0.00000  Uiso   1.00
C725   C     0.47273   0.30859   0.72350   0.00000  Uiso   1.00
C726   C     0.35415   0.14921   0.71307   0.00000  Uiso   1.00
Cu727  Cu    0.50000   0.21355   0.75000   0.00000  Uiso   1.00
Cu728  Cu    0.50000   0.11978   0.75000   0.00000  Uiso   1.00
H729   H     0.52306   0.23737   0.53062   0.00000  Uiso   1.00
H730   H     0.44769   0.04109   0.66364   0.00000  Uiso   1.00
H731   H     0.58570   0.29112   0.79536   0.00000  Uiso   1.00
H732   H     0.55131   0.29275   0.83687   0.00000  Uiso   1.00
H733   H     0.55127   0.07202   0.81945   0.00000  Uiso   1.00
H734   H     0.58426   0.05609   0.77798   0.00000  Uiso   1.00
H735   H     0.41431   0.29257   0.70302   0.00000  Uiso   1.00
H736   H     0.44991   0.29311   0.66246   0.00000  Uiso   1.00
H737   H     0.36745   0.09889   0.66883   0.00000  Uiso   1.00
H738   H     0.36762   0.15373   0.64806   0.00000  Uiso   1.00
H739   H     0.63238   0.17932   0.85197   0.00000  Uiso   1.00
H740   H     0.52218   0.09609   0.97073   0.00000  Uiso   1.00
H741   H     0.63260   0.23423   0.83136   0.00000  Uiso   1.00
H742   H     0.62758   0.15102   0.64827   0.00000  Uiso   1.00
H743   H     0.62802   0.09702   0.67131   0.00000  Uiso   1.00
H744   H     0.37200   0.23622   0.82879   0.00000  Uiso   1.00
H745   H     0.37244   0.18219   0.85179   0.00000  Uiso   1.00
H746   H     0.47706   0.23767   0.96842   0.00000  Uiso   1.00
H747   H     0.47587   0.09681   0.53025   0.00000  Uiso   1.00
H748   H     0.52227   0.23763   0.61110   0.00000  Uiso   1.00
H749   H     0.52129   0.09545   0.89034   0.00000  Uiso   1.00
H750   H     0.47804   0.23769   0.88803   0.00000  Uiso   1.00
H751   H     0.47692   0.09644   0.61062   0.00000  Uiso   1.00
H752   H     0.41353   0.04095   0.70545   0.00000  Uiso   1.00
N753   N     0.50000   0.28402   0.75000   0.00000  Uiso   1.00
N754   N     0.37985   0.20145   0.82368   0.00000  Uiso   1.00
N755   N     0.50000   0.04931   0.75000   0.00000  Uiso   1.00
N756   N     0.44346   0.05042   0.69654   0.00000  Uiso   1.00
N757   N     0.55557   0.28239   0.80423   0.00000  Uiso   1.00
N758   N     0.56156   0.04521   0.79973   0.00000  Uiso   1.00
N759   N     0.44464   0.28355   0.69521   0.00000  Uiso   1.00
N760   N     0.37615   0.13316   0.67535   0.00000  Uiso   1.00
N761   N     0.62387   0.19999   0.82475   0.00000  Uiso   1.00
N762   N     0.62016   0.13179   0.67639   0.00000  Uiso   1.00
O763   O     0.43988   0.20625   0.75000   0.00000  Uiso   1.00
O764   O     0.56012   0.12709   0.75001   0.00000  Uiso   1.00
O765   O     0.56012   0.20625   0.75001   0.00000  Uiso   1.00
O766   O     0.43988   0.12709   0.75000   0.00000  Uiso   1.00
O767   O     0.50000   0.20626   0.68573   0.00000  Uiso   1.00
O768   O     0.50000   0.12707   0.81427   0.00000  Uiso   1.00
O769   O     0.50000   0.20626   0.81427   0.00000  Uiso   1.00
O770   O     0.50000   0.12707   0.68573   0.00000  Uiso   1.00
C771   C     0.75423   0.16670   0.74968   0.00000  Uiso   1.00
C772   C     0.97919   0.18404   0.78698   0.00000  Uiso   1.00
C773   C     0.97739   0.14895   0.71340   0.00000  Uiso   1.00
C774   C     0.68928   0.18431   0.78665   0.00000  Uiso   1.00
C775   C     0.84567   0.20667   0.54774   0.00000  Uiso   1.00
C776   C     0.84524   0.12696   0.95301   0.00000  Uiso   1.00
C777   C     0.82071   0.20669   0.95173   0.00000  Uiso   1.00
C778   C     0.81998   0.12750   0.54754   0.00000  Uiso   1.00
C779   C     0.84544   0.20675   0.59368   0.00000  Uiso   1.00
C780   C     0.84499   0.12667   0.90708   0.00000  Uiso   1.00
C781   C     0.82105   0.20662   0.90582   0.00000  Uiso   1.00
C782   C     0.91244   0.16663   0.75034   0.00000  Uiso   1.00
C783   C     0.82035   0.12736   0.59345   0.00000  Uiso   1.00
C784   C     0.83299   0.16699   0.61679   0.00000  Uiso   1.00
C785   C     0.83309   0.16656   0.88322   0.00000  Uiso   1.00
C786   C     0.83286   0.16706   0.52429   0.00000  Uiso   1.00
C787   C     0.83297   0.16692   0.97571   0.00000  Uiso   1.00
C788   C     0.95709   0.16654   0.75027   0.00000  Uiso   1.00
C789   C     0.70958   0.16677   0.74976   0.00000  Uiso   1.00
C790   C     0.83321   0.16678   0.66505   0.00000  Uiso   1.00
C791   C     0.83331   0.16659   0.83496   0.00000  Uiso   1.00
C792   C     0.80573   0.02513   0.72388   0.00000  Uiso   1.00
C793   C     0.86051   0.30780   0.77629   0.00000  Uiso   1.00
C794   C     0.86160   0.02377   0.77541   0.00000  Uiso   1.00
C795   C     0.80606   0.30859   0.72350   0.00000  Uiso   1.00
C796   C     0.68748   0.14921   0.71307   0.00000  Uiso   1.00
Cu797  Cu    0.83333   0.21355   0.75000   0.00000  Uiso   1.00
Cu798  Cu    0.83333   0.11978   0.75000   0.00000  Uiso   1.00
H799   H     0.85639   0.23737   0.53062   0.00000  Uiso   1.00
H800   H     0.78103   0.04109   0.66364   0.00000  Uiso   1.00
H801   H     0.91903   0.29112   0.79536   0.00000  Uiso   1.00
H802   H     0.88464   0.29275   0.83687   0.00000  Uiso   1.00
H803   H     0.88461   0.07202   0.81945   0.00000  Uiso   1.00
H804   H     0.91759   0.05609   0.77798   0.00000  Uiso   1.00
H805   H     0.74764   0.29257   0.70302   0.00000  Uiso   1.00
H806   H     0.78325   0.29311   0.66246   0.00000  Uiso   1.00
H807   H     0.70078   0.09889   0.66883   0.00000  Uiso   1.00
H808   H     0.70096   0.15373   0.64806   0.00000  Uiso   1.00
H809   H     0.96571   0.17932   0.85197   0.00000  Uiso   1.00
H810   H     0.85551   0.09609   0.97073   0.00000  Uiso   1.00
H811   H     0.96593   0.23423   0.83136   0.00000  Uiso   1.00
H812   H     0.96091   0.15102   0.64827   0.00000  Uiso   1.00
H813   H     0.96135   0.09702   0.67131   0.00000  Uiso   1.00
H814   H     0.70533   0.23622   0.82879   0.00000  Uiso   1.00
H815   H     0.70578   0.18219   0.85179   0.00000  Uiso   1.00
H816   H     0.81039   0.23767   0.96842   0.00000  Uiso   1.00
H817   H     0.80920   0.09681   0.53025   0.00000  Uiso   1.00
H818   H     0.85560   0.23763   0.61110   0.00000  Uiso   1.00
H819   H     0.85462   0.09545   0.89034   0.00000  Uiso   1.00
H820   H     0.81137   0.23769   0.88803   0.00000  Uiso   1.00
H821   H     0.81026   0.09644   0.61062   0.00000  Uiso   1.00
H822   H     0.74686   0.04095   0.70545   0.00000  Uiso   1.00
N823   N     0.83333   0.28402   0.75000   0.00000  Uiso   1.00
N824   N     0.71318   0.20145   0.82368   0.00000  Uiso   1.00
N825   N     0.83333   0.04931   0.75000   0.00000  Uiso   1.00
N826   N     0.77679   0.05042   0.69654   0.00000  Uiso   1.00
N827   N     0.88890   0.28239   0.80423   0.00000  Uiso   1.00
N828   N     0.89489   0.04521   0.79973   0.00000  Uiso   1.00
N829   N     0.77798   0.28355   0.69521   0.00000  Uiso   1.00
N830   N     0.70948   0.13316   0.67535   0.00000  Uiso   1.00
N831   N     0.95720   0.19999   0.82475   0.00000  Uiso   1.00
N832   N     0.95350   0.13179   0.67639   0.00000  Uiso   1.00
O833   O     0.77321   0.20625   0.75000   0.00000  Uiso   1.00
O834   O     0.89345   0.12709   0.75001   0.00000  Uiso   1.00
O835   O     0.89345   0.20625   0.75001   0.00000  Uiso   1.00
O836   O     0.77321   0.12709   0.75000   0.00000  Uiso   1.00
O837   O     0.83333   0.20626   0.68573   0.00000  Uiso   1.00
O838   O     0.83334   0.12707   0.81427   0.00000  Uiso   1.00
O839   O     0.83334   0.20626   0.81427   0.00000  Uiso   1.00
O840   O     0.83333   0.12707   0.68573   0.00000  Uiso   1.00
C841   C     0.08756   0.50003   0.74968   0.00000  Uiso   1.00
C842   C     0.31252   0.51737   0.78698   0.00000  Uiso   1.00
C843   C     0.31072   0.48229   0.71340   0.00000  Uiso   1.00
C844   C     0.02262   0.51764   0.78665   0.00000  Uiso   1.00
C845   C     0.17900   0.54001   0.54774   0.00000  Uiso   1.00
C846   C     0.17858   0.46029   0.95301   0.00000  Uiso   1.00
C847   C     0.15405   0.54003   0.95173   0.00000  Uiso   1.00
C848   C     0.15332   0.46083   0.54754   0.00000  Uiso   1.00
C849   C     0.17878   0.54009   0.59368   0.00000  Uiso   1.00
C850   C     0.17832   0.46000   0.90708   0.00000  Uiso   1.00
C851   C     0.15439   0.53995   0.90582   0.00000  Uiso   1.00
C852   C     0.24577   0.49996   0.75034   0.00000  Uiso   1.00
C853   C     0.15368   0.46069   0.59345   0.00000  Uiso   1.00
C854   C     0.16632   0.50033   0.61679   0.00000  Uiso   1.00
C855   C     0.16643   0.49990   0.88322   0.00000  Uiso   1.00
C856   C     0.16619   0.50039   0.52429   0.00000  Uiso   1.00
C857   C     0.16630   0.50026   0.97571   0.00000  Uiso   1.00
C858   C     0.29043   0.49987   0.75027   0.00000  Uiso   1.00
C859   C     0.04291   0.50010   0.74976   0.00000  Uiso   1.00
C860   C     0.16654   0.50011   0.66505   0.00000  Uiso   1.00
C861   C     0.16664   0.49992   0.83496   0.00000  Uiso   1.00
C862   C     0.13906   0.35847   0.72388   0.00000  Uiso   1.00
C863   C     0.19385   0.64113   0.77629   0.00000  Uiso   1.00
C864   C     0.19494   0.35711   0.77541   0.00000  Uiso   1.00
C865   C     0.13939   0.64192   0.72350   0.00000  Uiso   1.00
C866   C     0.02082   0.48254   0.71307   0.00000  Uiso   1.00
Cu867  Cu    0.16667   0.54689   0.75000   0.00000  Uiso   1.00
Cu868  Cu    0.16667   0.45311   0.75000   0.00000  Uiso   1.00
H869   H     0.18972   0.57070   0.53062   0.00000  Uiso   1.00
H870   H     0.11436   0.37443   0.66364   0.00000  Uiso   1.00
H871   H     0.25237   0.62446   0.79536   0.00000  Uiso   1.00
H872   H     0.21797   0.62608   0.83687   0.00000  Uiso   1.00
H873   H     0.21794   0.40535   0.81945   0.00000  Uiso   1.00
H874   H     0.25092   0.38942   0.77798   0.00000  Uiso   1.00
H875   H     0.08097   0.62590   0.70302   0.00000  Uiso   1.00
H876   H     0.11658   0.62644   0.66246   0.00000  Uiso   1.00
H877   H     0.03411   0.43222   0.66883   0.00000  Uiso   1.00
H878   H     0.03429   0.48707   0.64806   0.00000  Uiso   1.00
H879   H     0.29905   0.51266   0.85197   0.00000  Uiso   1.00
H880   H     0.18884   0.42943   0.97073   0.00000  Uiso   1.00
H881   H     0.29927   0.56757   0.83136   0.00000  Uiso   1.00
H882   H     0.29425   0.48435   0.64827   0.00000  Uiso   1.00
H883   H     0.29469   0.43035   0.67131   0.00000  Uiso   1.00
H884   H     0.03867   0.56955   0.82879   0.00000  Uiso   1.00
H885   H     0.03911   0.51553   0.85179   0.00000  Uiso   1.00
H886   H     0.14372   0.57101   0.96842   0.00000  Uiso   1.00
H887   H     0.14254   0.43015   0.53025   0.00000  Uiso   1.00
H888   H     0.18894   0.57096   0.61110   0.00000  Uiso   1.00
H889   H     0.18796   0.42878   0.89034   0.00000  Uiso   1.00
H890   H     0.14470   0.57102   0.88803   0.00000  Uiso   1.00
H891   H     0.14359   0.42978   0.61062   0.00000  Uiso   1.00
H892   H     0.08019   0.37428   0.70545   0.00000  Uiso   1.00
N893   N     0.16667   0.61736   0.75000   0.00000  Uiso   1.00
N894   N     0.04652   0.53478   0.82368   0.00000  Uiso   1.00
N895   N     0.16667   0.38264   0.75000   0.00000  Uiso   1.00
N896   N     0.11012   0.38376   0.69654   0.00000  Uiso   1.00
N897   N     0.22223   0.61572   0.80423   0.00000  Uiso   1.00
N898   N     0.22823   0.37855   0.79973   0.00000  Uiso   1.00
N899   N     0.11131   0.61688   0.69521   0.00000  Uiso   1.00
N900   N     0.04281   0.46649   0.67535   0.00000  Uiso   1.00
N901   N     0.29053   0.53333   0.82475   0.00000  Uiso   1.00
N902   N     0.28683   0.46512   0.67639   0.00000  Uiso   1.00
O903   O     0.10655   0.53958   0.75000   0.00000  Uiso   1.00
O904   O     0.22679   0.46042   0.75001   0.00000  Uiso   1.00
O905   O     0.22679   0.53958   0.75001   0.00000  Uiso   1.00
O906   O     0.10655   0.46042   0.75000   0.00000  Uiso   1.00
O907   O     0.16666   0.53959   0.68573   0.00000  Uiso   1.00
O908   O     0.16667   0.46041   0.81427   0.00000  Uiso   1.00
O909   O     0.16667   0.53959   0.81427   0.00000  Uiso   1.00
O910   O     0.16666   0.46041   0.68573   0.00000  Uiso   1.00
C911   C     0.42090   0.50003   0.74968   0.00000  Uiso   1.00
C912   C     0.64586   0.51737   0.78698   0.00000  Uiso   1.00
C913   C     0.64406   0.48229   0.71340   0.00000  Uiso   1.00
C914   C     0.35595   0.51764   0.78665   0.00000  Uiso   1.00
C915   C     0.51234   0.54001   0.54774   0.00000  Uiso   1.00
C916   C     0.51191   0.46029   0.95301   0.00000  Uiso   1.00
C917   C     0.48738   0.54003   0.95173   0.00000  Uiso   1.00
C918   C     0.48665   0.46083   0.54754   0.00000  Uiso   1.00
C919   C     0.51211   0.54009   0.59368   0.00000  Uiso   1.00
C920   C     0.51165   0.46000   0.90708   0.00000  Uiso   1.00
C921   C     0.48772   0.53995   0.90582   0.00000  Uiso   1.00
C922   C     0.57911   0.49996   0.75034   0.00000  Uiso   1.00
C923   C     0.48702   0.46069   0.59345   0.00000  Uiso   1.00
C924   C     0.49966   0.50033   0.61679   0.00000  Uiso   1.00
C925   C     0.49976   0.49990   0.88322   0.00000  Uiso   1.00
C926   C     0.49952   0.50039   0.52429   0.00000  Uiso   1.00
C927   C     0.49963   0.50026   0.97571   0.00000  Uiso   1.00
C928   C     0.62376   0.49987   0.75027   0.00000  Uiso   1.00
C929   C     0.37624   0.50010   0.74976   0.00000  Uiso   1.00
C930   C     0.49987   0.50011   0.66505   0.00000  Uiso   1.00
C931   C     0.49998   0.49992   0.83496   0.00000  Uiso   1.00
C932   C     0.47239   0.35847   0.72388   0.00000  Uiso   1.00
C933   C     0.52718   0.64113   0.77629   0.00000  Uiso   1.00
C934   C     0.52827   0.35711   0.77541   0.00000  Uiso   1.00
C935   C     0.47273   0.64192   0.72350   0.00000  Uiso   1.00
C936   C     0.35415   0.48254   0.71307   0.00000  Uiso   1.00
Cu937  Cu    0.50000   0.54689   0.75000   0.00000  Uiso   1.00
Cu938  Cu    0.50000   0.45311   0.75000   0.00000  Uiso   1.00
H939   H     0.52306   0.57070   0.53062   0.00000  Uiso   1.00
H940   H     0.44769   0.37443   0.66364   0.00000  Uiso   1.00
H941   H     0.58570   0.62446   0.79536   0.00000  Uiso   1.00
H942   H     0.55131   0.62608   0.83687   0.00000  Uiso   1.00
H943   H     0.55127   0.40535   0.81945   0.00000  Uiso   1.00
H944   H     0.58426   0.38942   0.77798   0.00000  Uiso   1.00
H945   H     0.41431   0.62590   0.70302   0.00000  Uiso   1.00
H946   H     0.44991   0.62644   0.66246   0.00000  Uiso   1.00
H947   H     0.36745   0.43222   0.66883   0.00000  Uiso   1.00
H948   H     0.36762   0.48707   0.64806   0.00000  Uiso   1.00
H949   H     0.63238   0.51266   0.85197   0.00000  Uiso   1.00
H950   H     0.52218   0.42943   0.97073   0.00000  Uiso   1.00
H951   H     0.63260   0.56757   0.83136   0.00000  Uiso   1.00
H952   H     0.62758   0.48435   0.64827   0.00000  Uiso   1.00
H953   H     0.62802   0.43035   0.67131   0.00000  Uiso   1.00
H954   H     0.37200   0.56955   0.82879   0.00000  Uiso   1.00
H955   H     0.37244   0.51553   0.85179   0.00000  Uiso   1.00
H956   H     0.47706   0.57101   0.96842   0.00000  Uiso   1.00
H957   H     0.47587   0.43015   0.53025   0.00000  Uiso   1.00
H958   H     0.52227   0.57096   0.61110   0.00000  Uiso   1.00
H959   H     0.52129   0.42878   0.89034   0.00000  Uiso   1.00
H960   H     0.47804   0.57102   0.88803   0.00000  Uiso   1.00
H961   H     0.47692   0.42978   0.61062   0.00000  Uiso   1.00
H962   H     0.41353   0.37428   0.70545   0.00000  Uiso   1.00
N963   N     0.50000   0.61736   0.75000   0.00000  Uiso   1.00
N964   N     0.37985   0.53478   0.82368   0.00000  Uiso   1.00
N965   N     0.50000   0.38264   0.75000   0.00000  Uiso   1.00
N966   N     0.44346   0.38376   0.69654   0.00000  Uiso   1.00
N967   N     0.55557   0.61572   0.80423   0.00000  Uiso   1.00
N968   N     0.56156   0.37855   0.79973   0.00000  Uiso   1.00
N969   N     0.44464   0.61688   0.69521   0.00000  Uiso   1.00
N970   N     0.37615   0.46649   0.67535   0.00000  Uiso   1.00
N971   N     0.62387   0.53333   0.82475   0.00000  Uiso   1.00
N972   N     0.62016   0.46512   0.67639   0.00000  Uiso   1.00
O973   O     0.43988   0.53958   0.75000   0.00000  Uiso   1.00
O974   O     0.56012   0.46042   0.75001   0.00000  Uiso   1.00
O975   O     0.56012   0.53958   0.75001   0.00000  Uiso   1.00
O976   O     0.43988   0.46042   0.75000   0.00000  Uiso   1.00
O977   O     0.50000   0.53959   0.68573   0.00000  Uiso   1.00
O978   O     0.50000   0.46041   0.81427   0.00000  Uiso   1.00
O979   O     0.50000   0.53959   0.81427   0.00000  Uiso   1.00
O980   O     0.50000   0.46041   0.68573   0.00000  Uiso   1.00
C981   C     0.75423   0.50003   0.74968   0.00000  Uiso   1.00
C982   C     0.97919   0.51737   0.78698   0.00000  Uiso   1.00
C983   C     0.97739   0.48229   0.71340   0.00000  Uiso   1.00
C984   C     0.68928   0.51764   0.78665   0.00000  Uiso   1.00
C985   C     0.84567   0.54001   0.54774   0.00000  Uiso   1.00
C986   C     0.84524   0.46029   0.95301   0.00000  Uiso   1.00
C987   C     0.82071   0.54003   0.95173   0.00000  Uiso   1.00
C988   C     0.81998   0.46083   0.54754   0.00000  Uiso   1.00
C989   C     0.84544   0.54009   0.59368   0.00000  Uiso   1.00
C990   C     0.84499   0.46000   0.90708   0.00000  Uiso   1.00
C991   C     0.82105   0.53995   0.90582   0.00000  Uiso   1.00
C992   C     0.91244   0.49996   0.75034   0.00000  Uiso   1.00
C993   C     0.82035   0.46069   0.59345   0.00000  Uiso   1.00
C994   C     0.83299   0.50033   0.61679   0.00000  Uiso   1.00
C995   C     0.83309   0.49990   0.88322   0.00000  Uiso   1.00
C996   C     0.83286   0.50039   0.52429   0.00000  Uiso   1.00
C997   C     0.83297   0.50026   0.97571   0.00000  Uiso   1.00
C998   C     0.95709   0.49987   0.75027   0.00000  Uiso   1.00
C999   C     0.70958   0.50010   0.74976   0.00000  Uiso   1.00
C1000  C     0.83321   0.50011   0.66505   0.00000  Uiso   1.00
C1001  C     0.83331   0.49992   0.83496   0.00000  Uiso   1.00
C1002  C     0.80573   0.35847   0.72388   0.00000  Uiso   1.00
C1003  C     0.86051   0.64113   0.77629   0.00000  Uiso   1.00
C1004  C     0.86160   0.35711   0.77541   0.00000  Uiso   1.00
C1005  C     0.80606   0.64192   0.72350   0.00000  Uiso   1.00
C1006  C     0.68748   0.48254   0.71307   0.00000  Uiso   1.00
Cu1007 Cu    0.83333   0.54689   0.75000   0.00000  Uiso   1.00
Cu1008 Cu    0.83333   0.45311   0.75000   0.00000  Uiso   1.00
H1009  H     0.85639   0.57070   0.53062   0.00000  Uiso   1.00
H1010  H     0.78103   0.37443   0.66364   0.00000  Uiso   1.00
H1011  H     0.91903   0.62446   0.79536   0.00000  Uiso   1.00
H1012  H     0.88464   0.62608   0.83687   0.00000  Uiso   1.00
H1013  H     0.88461   0.40535   0.81945   0.00000  Uiso   1.00
H1014  H     0.91759   0.38942   0.77798   0.00000  Uiso   1.00
H1015  H     0.74764   0.62590   0.70302   0.00000  Uiso   1.00
H1016  H     0.78325   0.62644   0.66246   0.00000  Uiso   1.00
H1017  H     0.70078   0.43222   0.66883   0.00000  Uiso   1.00
H1018  H     0.70096   0.48707   0.64806   0.00000  Uiso   1.00
H1019  H     0.96571   0.51266   0.85197   0.00000  Uiso   1.00
H1020  H     0.85551   0.42943   0.97073   0.00000  Uiso   1.00
H1021  H     0.96593   0.56757   0.83136   0.00000  Uiso   1.00
H1022  H     0.96091   0.48435   0.64827   0.00000  Uiso   1.00
H1023  H     0.96135   0.43035   0.67131   0.00000  Uiso   1.00
H1024  H     0.70533   0.56955   0.82879   0.00000  Uiso   1.00
H1025  H     0.70578   0.51553   0.85179   0.00000  Uiso   1.00
H1026  H     0.81039   0.57101   0.96842   0.00000  Uiso   1.00
H1027  H     0.80920   0.43015   0.53025   0.00000  Uiso   1.00
H1028  H     0.85560   0.57096   0.61110   0.00000  Uiso   1.00
H1029  H     0.85462   0.42878   0.89034   0.00000  Uiso   1.00
H1030  H     0.81137   0.57102   0.88803   0.00000  Uiso   1.00
H1031  H     0.81026   0.42978   0.61062   0.00000  Uiso   1.00
H1032  H     0.74686   0.37428   0.70545   0.00000  Uiso   1.00
N1033  N     0.83333   0.61736   0.75000   0.00000  Uiso   1.00
N1034  N     0.71318   0.53478   0.82368   0.00000  Uiso   1.00
N1035  N     0.83333   0.38264   0.75000   0.00000  Uiso   1.00
N1036  N     0.77679   0.38376   0.69654   0.00000  Uiso   1.00
N1037  N     0.88890   0.61572   0.80423   0.00000  Uiso   1.00
N1038  N     0.89489   0.37855   0.79973   0.00000  Uiso   1.00
N1039  N     0.77798   0.61688   0.69521   0.00000  Uiso   1.00
N1040  N     0.70948   0.46649   0.67535   0.00000  Uiso   1.00
N1041  N     0.95720   0.53333   0.82475   0.00000  Uiso   1.00
N1042  N     0.95350   0.46512   0.67639   0.00000  Uiso   1.00
O1043  O     0.77321   0.53958   0.75000   0.00000  Uiso   1.00
O1044  O     0.89345   0.46042   0.75001   0.00000  Uiso   1.00
O1045  O     0.89345   0.53958   0.75001   0.00000  Uiso   1.00
O1046  O     0.77321   0.46042   0.75000   0.00000  Uiso   1.00
O1047  O     0.83333   0.53959   0.68573   0.00000  Uiso   1.00
O1048  O     0.83334   0.46041   0.81427   0.00000  Uiso   1.00
O1049  O     0.83334   0.53959   0.81427   0.00000  Uiso   1.00
O1050  O     0.83333   0.46041   0.68573   0.00000  Uiso   1.00
C1051  C     0.08756   0.83337   0.74968   0.00000  Uiso   1.00
C1052  C     0.31252   0.85071   0.78698   0.00000  Uiso   1.00
C1053  C     0.31072   0.81562   0.71340   0.00000  Uiso   1.00
C1054  C     0.02262   0.85098   0.78665   0.00000  Uiso   1.00
C1055  C     0.17900   0.87334   0.54774   0.00000  Uiso   1.00
C1056  C     0.17858   0.79363   0.95301   0.00000  Uiso   1.00
C1057  C     0.15405   0.87336   0.95173   0.00000  Uiso   1.00
C1058  C     0.15332   0.79416   0.54754   0.00000  Uiso   1.00
C1059  C     0.17878   0.87342   0.59368   0.00000  Uiso   1.00
C1060  C     0.17832   0.79333   0.90708   0.00000  Uiso   1.00
C1061  C     0.15439   0.87328   0.90582   0.00000  Uiso   1.00
C1062  C     0.24577   0.83329   0.75034   0.00000  Uiso   1.00
C1063  C     0.15368   0.79402   0.59345   0.00000  Uiso   1.00
C1064  C     0.16632   0.83366   0.61679   0.00000  Uiso   1.00
C1065  C     0.16643   0.83323   0.88322   0.00000  Uiso   1.00
C1066  C     0.16619   0.83373   0.52429   0.00000  Uiso   1.00
C1067  C     0.16630   0.83359   0.97571   0.00000  Uiso   1.00
C1068  C     0.29043   0.83320   0.75027   0.00000  Uiso   1.00
C1069  C     0.04291   0.83343   0.74976   0.00000  Uiso   1.00
C1070  C     0.16654   0.83344   0.66505   0.00000  Uiso   1.00
C1071  C     0.16664   0.83325   0.83496   0.00000  Uiso   1.00
C1072  C     0.13906   0.69180   0.72388   0.00000  Uiso   1.00
C1073  C     0.19385   0.97447   0.77629   0.00000  Uiso   1.00
C1074  C     0.19494   0.69044   0.77541   0.00000  Uiso   1.00
C1075  C     0.13939   0.97526   0.72350   0.00000  Uiso   1.00
C1076  C     0.02082   0.81588   0.71307   0.00000  Uiso   1.00
Cu1077 Cu    0.16667   0.88022   0.75000   0.00000  Uiso   1.00
Cu1078 Cu    0.16667   0.78645   0.75000   0.00000  Uiso   1.00
H1079  H     0.18972   0.90403   0.53062   0.00000  Uiso   1.00
H1080  H     0.11436   0.70776   0.66364   0.00000  Uiso   1.00
H1081  H     0.25237   0.95779   0.79536   0.00000  Uiso   1.00
H1082  H     0.21797   0.95941   0.83687   0.00000  Uiso   1.00
H1083  H     0.21794   0.73868   0.81945   0.00000  Uiso   1.00
H1084  H     0.25092   0.72275   0.77798   0.00000  Uiso   1.00
H1085  H     0.08097   0.95924   0.70302   0.00000  Uiso   1.00
H1086  H     0.11658   0.95978   0.66246   0.00000  Uiso   1.00
H1087  H     0.03411   0.76555   0.66883   0.00000  Uiso   1.00
H1088  H     0.03429   0.82040   0.64806   0.00000  Uiso   1.00
H1089  H     0.29905   0.84599   0.85197   0.00000  Uiso   1.00
H1090  H     0.18884   0.76276   0.97073   0.00000  Uiso   1.00
H1091  H     0.29927   0.90090   0.83136   0.00000  Uiso   1.00
H1092  H     0.29425   0.81769   0.64827   0.00000  Uiso   1.00
H1093  H     0.29469   0.76368   0.67131   0.00000  Uiso   1.00
H1094  H     0.03867   0.90288   0.82879   0.00000  Uiso   1.00
H1095  H     0.03911   0.84886   0.85179   0.00000  Uiso   1.00
H1096  H     0.14372   0.90434   0.96842   0.00000  Uiso   1.00
H1097  H     0.14254   0.76348   0.53025   0.00000  Uiso   1.00
H1098  H     0.18894   0.90430   0.61110   0.00000  Uiso   1.00
H1099  H     0.18796   0.76212   0.89034   0.00000  Uiso   1.00
H1100  H     0.14470   0.90436   0.88803   0.00000  Uiso   1.00
H1101  H     0.14359   0.76311   0.61062   0.00000  Uiso   1.00
H1102  H     0.08019   0.70761   0.70545   0.00000  Uiso   1.00
N1103  N     0.16667   0.95069   0.75000   0.00000  Uiso   1.00
N1104  N     0.04652   0.86811   0.82368   0.00000  Uiso   1.00
N1105  N     0.16667   0.71598   0.75000   0.00000  Uiso   1.00
N1106  N     0.11012   0.71709   0.69654   0.00000  Uiso   1.00
N1107  N     0.22223   0.94905   0.80423   0.00000  Uiso   1.00
N1108  N     0.22823   0.71188   0.79973   0.00000  Uiso   1.00
N1109  N     0.11131   0.95022   0.69521   0.00000  Uiso   1.00
N1110  N     0.04281   0.79983   0.67535   0.00000  Uiso   1.00
N1111  N     0.29053   0.86666   0.82475   0.00000  Uiso   1.00
N1112  N     0.28683   0.79846   0.67639   0.00000  Uiso   1.00
O1113  O     0.10655   0.87291   0.75000   0.00000  Uiso   1.00
O1114  O     0.22679   0.79375   0.75001   0.00000  Uiso   1.00
O1115  O     0.22679   0.87291   0.75001   0.00000  Uiso   1.00
O1116  O     0.10655   0.79375   0.75000   0.00000  Uiso   1.00
O1117  O     0.16666   0.87293   0.68573   0.00000  Uiso   1.00
O1118  O     0.16667   0.79374   0.81427   0.00000  Uiso   1.00
O1119  O     0.16667   0.87293   0.81427   0.00000  Uiso   1.00
O1120  O     0.16666   0.79374   0.68573   0.00000  Uiso   1.00
C1121  C     0.42090   0.83337   0.74968   0.00000  Uiso   1.00
C1122  C     0.64586   0.85071   0.78698   0.00000  Uiso   1.00
C1123  C     0.64406   0.81562   0.71340   0.00000  Uiso   1.00
C1124  C     0.35595   0.85098   0.78665   0.00000  Uiso   1.00
C1125  C     0.51234   0.87334   0.54774   0.00000  Uiso   1.00
C1126  C     0.51191   0.79363   0.95301   0.00000  Uiso   1.00
C1127  C     0.48738   0.87336   0.95173   0.00000  Uiso   1.00
C1128  C     0.48665   0.79416   0.54754   0.00000  Uiso   1.00
C1129  C     0.51211   0.87342   0.59368   0.00000  Uiso   1.00
C1130  C     0.51165   0.79333   0.90708   0.00000  Uiso   1.00
C1131  C     0.48772   0.87328   0.90582   0.00000  Uiso   1.00
C1132  C     0.57911   0.83329   0.75034   0.00000  Uiso   1.00
C1133  C     0.48702   0.79402   0.59345   0.00000  Uiso   1.00
C1134  C     0.49966   0.83366   0.61679   0.00000  Uiso   1.00
C1135  C     0.49976   0.83323   0.88322   0.00000  Uiso   1.00
C1136  C     0.49952   0.83373   0.52429   0.00000  Uiso   1.00
C1137  C     0.49963   0.83359   0.97571   0.00000  Uiso   1.00
C1138  C     0.62376   0.83320   0.75027   0.00000  Uiso   1.00
C1139  C     0.37624   0.83343   0.74976   0.00000  Uiso   1.00
C1140  C     0.49987   0.83344   0.66505   0.00000  Uiso   1.00
C1141  C     0.49998   0.83325   0.83496   0.00000  Uiso   1.00
C1142  C     0.47239   0.69180   0.72388   0.00000  Uiso   1.00
C1143  C     0.52718   0.97447   0.77629   0.00000  Uiso   1.00
C1144  C     0.52827   0.69044   0.77541   0.00000  Uiso   1.00
C1145  C     0.47273   0.97526   0.72350   0.00000  Uiso   1.00
C1146  C     0.35415   0.81588   0.71307   0.00000  Uiso   1.00
Cu1147 Cu    0.50000   0.88022   0.75000   0.00000  Uiso   1.00
Cu1148 Cu    0.50000   0.78645   0.75000   0.00000  Uiso   1.00
H1149  H     0.52306   0.90403   0.53062   0.00000  Uiso   1.00
H1150  H     0.44769   0.70776   0.66364   0.00000  Uiso   1.00
H1151  H     0.58570   0.95779   0.79536   0.00000  Uiso   1.00
H1152  H     0.55131   0.95941   0.83687   0.00000  Uiso   1.00
H1153  H     0.55127   0.73868   0.81945   0.00000  Uiso   1.00
H1154  H     0.58426   0.72275   0.77798   0.00000  Uiso   1.00
H1155  H     0.41431   0.95924   0.70302   0.00000  Uiso   1.00
H1156  H     0.44991   0.95978   0.66246   0.00000  Uiso   1.00
H1157  H     0.36745   0.76555   0.66883   0.00000  Uiso   1.00
H1158  H     0.36762   0.82040   0.64806   0.00000  Uiso   1.00
H1159  H     0.63238   0.84599   0.85197   0.00000  Uiso   1.00
H1160  H     0.52218   0.76276   0.97073   0.00000  Uiso   1.00
H1161  H     0.63260   0.90090   0.83136   0.00000  Uiso   1.00
H1162  H     0.62758   0.81769   0.64827   0.00000  Uiso   1.00
H1163  H     0.62802   0.76368   0.67131   0.00000  Uiso   1.00
H1164  H     0.37200   0.90288   0.82879   0.00000  Uiso   1.00
H1165  H     0.37244   0.84886   0.85179   0.00000  Uiso   1.00
H1166  H     0.47706   0.90434   0.96842   0.00000  Uiso   1.00
H1167  H     0.47587   0.76348   0.53025   0.00000  Uiso   1.00
H1168  H     0.52227   0.90430   0.61110   0.00000  Uiso   1.00
H1169  H     0.52129   0.76212   0.89034   0.00000  Uiso   1.00
H1170  H     0.47804   0.90436   0.88803   0.00000  Uiso   1.00
H1171  H     0.47692   0.76311   0.61062   0.00000  Uiso   1.00
H1172  H     0.41353   0.70761   0.70545   0.00000  Uiso   1.00
N1173  N     0.50000   0.95069   0.75000   0.00000  Uiso   1.00
N1174  N     0.37985   0.86811   0.82368   0.00000  Uiso   1.00
N1175  N     0.50000   0.71598   0.75000   0.00000  Uiso   1.00
N1176  N     0.44346   0.71709   0.69654   0.00000  Uiso   1.00
N1177  N     0.55557   0.94905   0.80423   0.00000  Uiso   1.00
N1178  N     0.56156   0.71188   0.79973   0.00000  Uiso   1.00
N1179  N     0.44464   0.95022   0.69521   0.00000  Uiso   1.00
N1180  N     0.37615   0.79983   0.67535   0.00000  Uiso   1.00
N1181  N     0.62387   0.86666   0.82475   0.00000  Uiso   1.00
N1182  N     0.62016   0.79846   0.67639   0.00000  Uiso   1.00
O1183  O     0.43988   0.87291   0.75000   0.00000  Uiso   1.00
O1184  O     0.56012   0.79375   0.75001   0.00000  Uiso   1.00
O1185  O     0.56012   0.87291   0.75001   0.00000  Uiso   1.00
O1186  O     0.43988   0.79375   0.75000   0.00000  Uiso   1.00
O1187  O     0.50000   0.87293   0.68573   0.00000  Uiso   1.00
O1188  O     0.50000   0.79374   0.81427   0.00000  Uiso   1.00
O1189  O     0.50000   0.87293   0.81427   0.00000  Uiso   1.00
O1190  O     0.50000   0.79374   0.68573   0.00000  Uiso   1.00
C1191  C     0.75423   0.83337   0.74968   0.00000  Uiso   1.00
C1192  C     0.97919   0.85071   0.78698   0.00000  Uiso   1.00
C1193  C     0.97739   0.81562   0.71340   0.00000  Uiso   1.00
C1194  C     0.68928   0.85098   0.78665   0.00000  Uiso   1.00
C1195  C     0.84567   0.87334   0.54774   0.00000  Uiso   1.00
C1196  C     0.84524   0.79363   0.95301   0.00000  Uiso   1.00
C1197  C     0.82071   0.87336   0.95173   0.00000  Uiso   1.00
C1198  C     0.81998   0.79416   0.54754   0.00000  Uiso   1.00
C1199  C     0.84544   0.87342   0.59368   0.00000  Uiso   1.00
C1200  C     0.84499   0.79333   0.90708   0.00000  Uiso   1.00
C1201  C     0.82105   0.87328   0.90582   0.00000  Uiso   1.00
C1202  C     0.91244   0.83329   0.75034   0.00000  Uiso   1.00
C1203  C     0.82035   0.79402   0.59345   0.00000  Uiso   1.00
C1204  C     0.83299   0.83366   0.61679   0.00000  Uiso   1.00
C1205  C     0.83309   0.83323   0.88322   0.00000  Uiso   1.00
C1206  C     0.83286   0.83373   0.52429   0.00000  Uiso   1.00
C1207  C     0.83297   0.83359   0.97571   0.00000  Uiso   1.00
C1208  C     0.95709   0.83320   0.75027   0.00000  Uiso   1.00
C1209  C     0.70958   0.83343   0.74976   0.00000  Uiso   1.00
C1210  C     0.83321   0.83344   0.66505   0.00000  Uiso   1.00
C1211  C     0.83331   0.83325   0.83496   0.00000  Uiso   1.00
C1212  C     0.80573   0.69180   0.72388   0.00000  Uiso   1.00
C1213  C     0.86051   0.97447   0.77629   0.00000  Uiso   1.00
C1214  C     0.86160   0.69044   0.77541   0.00000  Uiso   1.00
C1215  C     0.80606   0.97526   0.72350   0.00000  Uiso   1.00
C1216  C     0.68748   0.81588   0.71307   0.00000  Uiso   1.00
Cu1217 Cu    0.83333   0.88022   0.75000   0.00000  Uiso   1.00
Cu1218 Cu    0.83333   0.78645   0.75000   0.00000  Uiso   1.00
H1219  H     0.85639   0.90403   0.53062   0.00000  Uiso   1.00
H1220  H     0.78103   0.70776   0.66364   0.00000  Uiso   1.00
H1221  H     0.91903   0.95779   0.79536   0.00000  Uiso   1.00
H1222  H     0.88464   0.95941   0.83687   0.00000  Uiso   1.00
H1223  H     0.88461   0.73868   0.81945   0.00000  Uiso   1.00
H1224  H     0.91759   0.72275   0.77798   0.00000  Uiso   1.00
H1225  H     0.74764   0.95924   0.70302   0.00000  Uiso   1.00
H1226  H     0.78325   0.95978   0.66246   0.00000  Uiso   1.00
H1227  H     0.70078   0.76555   0.66883   0.00000  Uiso   1.00
H1228  H     0.70096   0.82040   0.64806   0.00000  Uiso   1.00
H1229  H     0.96571   0.84599   0.85197   0.00000  Uiso   1.00
H1230  H     0.85551   0.76276   0.97073   0.00000  Uiso   1.00
H1231  H     0.96593   0.90090   0.83136   0.00000  Uiso   1.00
H1232  H     0.96091   0.81769   0.64827   0.00000  Uiso   1.00
H1233  H     0.96135   0.76368   0.67131   0.00000  Uiso   1.00
H1234  H     0.70533   0.90288   0.82879   0.00000  Uiso   1.00
H1235  H     0.70578   0.84886   0.85179   0.00000  Uiso   1.00
H1236  H     0.81039   0.90434   0.96842   0.00000  Uiso   1.00
H1237  H     0.80920   0.76348   0.53025   0.00000  Uiso   1.00
H1238  H     0.85560   0.90430   0.61110   0.00000  Uiso   1.00
H1239  H     0.85462   0.76212   0.89034   0.00000  Uiso   1.00
H1240  H     0.81137   0.90436   0.88803   0.00000  Uiso   1.00
H1241  H     0.81026   0.76311   0.61062   0.00000  Uiso   1.00
H1242  H     0.74686   0.70761   0.70545   0.00000  Uiso   1.00
N1243  N     0.83333   0.95069   0.75000   0.00000  Uiso   1.00
N1244  N     0.71318   0.86811   0.82368   0.00000  Uiso   1.00
N1245  N     0.83333   0.71598   0.75000   0.00000  Uiso   1.00
N1246  N     0.77679   0.71709   0.69654   0.00000  Uiso   1.00
N1247  N     0.88890   0.94905   0.80423   0.00000  Uiso   1.00
N1248  N     0.89489   0.71188   0.79973   0.00000  Uiso   1.00
N1249  N     0.77798   0.95022   0.69521   0.00000  Uiso   1.00
N1250  N     0.70948   0.79983   0.67535   0.00000  Uiso   1.00
N1251  N     0.95720   0.86666   0.82475   0.00000  Uiso   1.00
N1252  N     0.95350   0.79846   0.67639   0.00000  Uiso   1.00
O1253  O     0.77321   0.87291   0.75000   0.00000  Uiso   1.00
O1254  O     0.89345   0.79375   0.75001   0.00000  Uiso   1.00
O1255  O     0.89345   0.87291   0.75001   0.00000  Uiso   1.00
O1256  O     0.77321   0.79375   0.75000   0.00000  Uiso   1.00
O1257  O     0.83333   0.87293   0.68573   0.00000  Uiso   1.00
O1258  O     0.83334   0.79374   0.81427   0.00000  Uiso   1.00
O1259  O     0.83334   0.87293   0.81427   0.00000  Uiso   1.00
O1260  O     0.83333   0.79374   0.68573   0.00000  Uiso   1.00
loop_
_geom_bond_atom_site_label_1
_geom_bond_atom_site_label_2
_geom_bond_distance
_geom_bond_site_symmetry_2
_ccdc_geom_bond_type
C1     O66     1.293   .     A
C1     O63     1.293   .     A
C1     C19     1.441   .     S
C2     C18     1.403   .     A
C2     N61     1.436   .     S
C2     C74     1.402   .     S
C3     C18     1.403   .     A
C3     N62     1.436   .     S
C3     C96     1.402   .     S
C4     N54     1.436   .     S
C4     C19     1.403   .     A
C4     C142    1.402   1_455 S
C5     C9      1.391   .     A
C5     H29     1.083   .     S
C5     C16     1.404   .     A
C6     C10     1.390   .     A
C6     H40     1.083   .     S
C6     C17     1.404   .     A
C7     C11     1.390   .     A
C7     H46     1.083   .     S
C7     C17     1.403   .     A
C8     C13     1.389   .     A
C8     H47     1.083   .     S
C8     C16     1.403   .     A
C9     C14     1.402   .     A
C9     H48     1.083   .     S
C10    H49     1.082   .     S
C10    C15     1.401   .     A
C11    C15     1.402   .     A
C11    H50     1.083   .     S
C12    O65     1.293   .     A
C12    O64     1.293   .     A
C12    C18     1.441   .     S
C13    C14     1.401   .     A
C13    H51     1.082   .     S
C14    C20     1.461   .     S
C15    C21     1.461   .     S
C16    C647    1.470   1_554 S
C17    C646    1.470   .     S
C19    C26     1.403   .     A
C20    O67     1.300   .     A
C20    O70     1.300   .     A
C21    O68     1.301   .     A
C21    O69     1.299   .     A
C22    N56     1.430   .     S
C22    N55     1.371   .     A
C22    C445    1.435   1_545 S
C23    N53     1.359   .     A
C23    N57     1.430   .     S
C23    C234    1.420   .     S
C24    N55     1.387   .     A
C24    N58     1.431   .     S
C24    C443    1.420   1_545 S
C25    N53     1.371   .     A
C25    N59     1.431   .     S
C25    C232    1.435   .     S
C26    N60     1.436   .     S
C26    C143    1.402   1_455 S
Cu27   N53     2.028   .     S
Cu27   O65     1.951   .     S
Cu27   O69     1.955   .     S
Cu27   O63     1.952   .     S
Cu27   O67     1.958   .     S
Cu27   Cu28    2.699   .     S
Cu28   O66     1.951   .     S
Cu28   O68     1.958   .     S
Cu28   N55     2.028   .     S
Cu28   O64     1.952   .     S
Cu28   O70     1.955   .     S
H30    N56     1.044   .     S
H31    N57     1.045   .     S
H32    N57     1.046   .     S
H33    N58     1.036   .     S
H34    N58     1.043   .     S
H35    N59     1.045   .     S
H36    N59     1.045   .     S
H37    N60     1.045   .     S
H38    N60     1.045   .     S
H39    N61     1.045   .     S
H41    N61     1.045   .     S
H42    N62     1.045   .     S
H43    N62     1.045   .     S
H44    N54     1.045   .     S
H45    N54     1.045   .     S
H52    N56     1.045   .     S
C71    O136    1.293   .     A
C71    O133    1.293   .     A
C71    C89     1.441   .     S
C72    C88     1.403   .     A
C72    N131    1.436   .     S
C72    C144    1.402   .     S
C73    C88     1.403   .     A
C73    N132    1.436   .     S
C73    C166    1.402   .     S
C74    N124    1.436   .     S
C74    C89     1.403   .     A
C75    C79     1.391   .     A
C75    H99     1.083   .     S
C75    C86     1.404   .     A
C76    C80     1.390   .     A
C76    H110    1.083   .     S
C76    C87     1.404   .     A
C77    C81     1.390   .     A
C77    H116    1.083   .     S
C77    C87     1.403   .     A
C78    C83     1.389   .     A
C78    H117    1.083   .     S
C78    C86     1.403   .     A
C79    C84     1.402   .     A
C79    H118    1.083   .     S
C80    H119    1.082   .     S
C80    C85     1.401   .     A
C81    C85     1.402   .     A
C81    H120    1.083   .     S
C82    O135    1.293   .     A
C82    O134    1.293   .     A
C82    C88     1.441   .     S
C83    C84     1.401   .     A
C83    H121    1.082   .     S
C84    C90     1.461   .     S
C85    C91     1.461   .     S
C86    C717    1.470   1_554 S
C87    C716    1.470   .     S
C89    C96     1.403   .     A
C90    O137    1.300   .     A
C90    O140    1.300   .     A
C91    O138    1.301   .     A
C91    O139    1.299   .     A
C92    N126    1.430   .     S
C92    N125    1.371   .     A
C92    C515    1.435   1_545 S
C93    N123    1.359   .     A
C93    N127    1.430   .     S
C93    C304    1.420   .     S
C94    N125    1.387   .     A
C94    N128    1.431   .     S
C94    C513    1.420   1_545 S
C95    N123    1.371   .     A
C95    N129    1.431   .     S
C95    C302    1.435   .     S
C96    N130    1.436   .     S
Cu97   N123    2.028   .     S
Cu97   O135    1.951   .     S
Cu97   O139    1.955   .     S
Cu97   O133    1.952   .     S
Cu97   O137    1.958   .     S
Cu97   Cu98    2.699   .     S
Cu98   O136    1.951   .     S
Cu98   O138    1.958   .     S
Cu98   N125    2.028   .     S
Cu98   O134    1.952   .     S
Cu98   O140    1.955   .     S
H100   N126    1.044   .     S
H101   N127    1.045   .     S
H102   N127    1.046   .     S
H103   N128    1.036   .     S
H104   N128    1.043   .     S
H105   N129    1.045   .     S
H106   N129    1.045   .     S
H107   N130    1.045   .     S
H108   N130    1.045   .     S
H109   N131    1.045   .     S
H111   N131    1.045   .     S
H112   N132    1.045   .     S
H113   N132    1.045   .     S
H114   N124    1.045   .     S
H115   N124    1.045   .     S
H122   N126    1.045   .     S
C141   O206    1.293   .     A
C141   O203    1.293   .     A
C141   C159    1.441   .     S
C142   C158    1.403   .     A
C142   N201    1.436   .     S
C142   C4      1.402   1_655 S
C143   C158    1.403   .     A
C143   N202    1.436   .     S
C143   C26     1.402   1_655 S
C144   N194    1.436   .     S
C144   C159    1.403   .     A
C145   C149    1.391   .     A
C145   H169    1.083   .     S
C145   C156    1.404   .     A
C146   C150    1.390   .     A
C146   H180    1.083   .     S
C146   C157    1.404   .     A
C147   C151    1.390   .     A
C147   H186    1.083   .     S
C147   C157    1.403   .     A
C148   C153    1.389   .     A
C148   H187    1.083   .     S
C148   C156    1.403   .     A
C149   C154    1.402   .     A
C149   H188    1.083   .     S
C150   H189    1.082   .     S
C150   C155    1.401   .     A
C151   C155    1.402   .     A
C151   H190    1.083   .     S
C152   O205    1.293   .     A
C152   O204    1.293   .     A
C152   C158    1.441   .     S
C153   C154    1.401   .     A
C153   H191    1.082   .     S
C154   C160    1.461   .     S
C155   C161    1.461   .     S
C156   C787    1.470   1_554 S
C157   C786    1.470   .     S
C159   C166    1.403   .     A
C160   O207    1.300   .     A
C160   O210    1.300   .     A
C161   O208    1.301   .     A
C161   O209    1.299   .     A
C162   N196    1.430   .     S
C162   N195    1.371   .     A
C162   C585    1.435   1_545 S
C163   N193    1.359   .     A
C163   N197    1.430   .     S
C163   C374    1.420   .     S
C164   N195    1.387   .     A
C164   N198    1.431   .     S
C164   C583    1.420   1_545 S
C165   N193    1.371   .     A
C165   N199    1.431   .     S
C165   C372    1.435   .     S
C166   N200    1.436   .     S
Cu167  N193    2.028   .     S
Cu167  O205    1.951   .     S
Cu167  O209    1.955   .     S
Cu167  O203    1.952   .     S
Cu167  O207    1.958   .     S
Cu167  Cu168   2.699   .     S
Cu168  O206    1.951   .     S
Cu168  O208    1.958   .     S
Cu168  N195    2.028   .     S
Cu168  O204    1.952   .     S
Cu168  O210    1.955   .     S
H170   N196    1.044   .     S
H171   N197    1.045   .     S
H172   N197    1.046   .     S
H173   N198    1.036   .     S
H174   N198    1.043   .     S
H175   N199    1.045   .     S
H176   N199    1.045   .     S
H177   N200    1.045   .     S
H178   N200    1.045   .     S
H179   N201    1.045   .     S
H181   N201    1.045   .     S
H182   N202    1.045   .     S
H183   N202    1.045   .     S
H184   N194    1.045   .     S
H185   N194    1.045   .     S
H192   N196    1.045   .     S
C211   O276    1.293   .     A
C211   O273    1.293   .     A
C211   C229    1.441   .     S
C212   C228    1.403   .     A
C212   N271    1.436   .     S
C212   C284    1.402   .     S
C213   C228    1.403   .     A
C213   N272    1.436   .     S
C213   C306    1.402   .     S
C214   N264    1.436   .     S
C214   C229    1.403   .     A
C214   C352    1.402   1_455 S
C215   C219    1.391   .     A
C215   H239    1.083   .     S
C215   C226    1.404   .     A
C216   C220    1.390   .     A
C216   H250    1.083   .     S
C216   C227    1.404   .     A
C217   C221    1.390   .     A
C217   H256    1.083   .     S
C217   C227    1.403   .     A
C218   C223    1.389   .     A
C218   H257    1.083   .     S
C218   C226    1.403   .     A
C219   C224    1.402   .     A
C219   H258    1.083   .     S
C220   H259    1.082   .     S
C220   C225    1.401   .     A
C221   C225    1.402   .     A
C221   H260    1.083   .     S
C222   O275    1.293   .     A
C222   O274    1.293   .     A
C222   C228    1.441   .     S
C223   C224    1.401   .     A
C223   H261    1.082   .     S
C224   C230    1.461   .     S
C225   C231    1.461   .     S
C226   C857    1.470   1_554 S
C227   C856    1.470   .     S
C229   C236    1.403   .     A
C230   O277    1.300   .     A
C230   O280    1.300   .     A
C231   O278    1.301   .     A
C231   O279    1.299   .     A
C232   N266    1.430   .     S
C232   N265    1.371   .     A
C233   N263    1.359   .     A
C233   N267    1.430   .     S
C233   C444    1.420   .     S
C234   N265    1.387   .     A
C234   N268    1.431   .     S
C235   N263    1.371   .     A
C235   N269    1.431   .     S
C235   C442    1.435   .     S
C236   N270    1.436   .     S
C236   C353    1.402   1_455 S
Cu237  N263    2.028   .     S
Cu237  O275    1.951   .     S
Cu237  O279    1.955   .     S
Cu237  O273    1.952   .     S
Cu237  O277    1.958   .     S
Cu237  Cu238   2.699   .     S
Cu238  O276    1.951   .     S
Cu238  O278    1.958   .     S
Cu238  N265    2.028   .     S
Cu238  O274    1.952   .     S
Cu238  O280    1.955   .     S
H240   N266    1.044   .     S
H241   N267    1.045   .     S
H242   N267    1.046   .     S
H243   N268    1.036   .     S
H244   N268    1.043   .     S
H245   N269    1.045   .     S
H246   N269    1.045   .     S
H247   N270    1.045   .     S
H248   N270    1.045   .     S
H249   N271    1.045   .     S
H251   N271    1.045   .     S
H252   N272    1.045   .     S
H253   N272    1.045   .     S
H254   N264    1.045   .     S
H255   N264    1.045   .     S
H262   N266    1.045   .     S
C281   O346    1.293   .     A
C281   O343    1.293   .     A
C281   C299    1.441   .     S
C282   C298    1.403   .     A
C282   N341    1.436   .     S
C282   C354    1.402   .     S
C283   C298    1.403   .     A
C283   N342    1.436   .     S
C283   C376    1.402   .     S
C284   N334    1.436   .     S
C284   C299    1.403   .     A
C285   C289    1.391   .     A
C285   H309    1.083   .     S
C285   C296    1.404   .     A
C286   C290    1.390   .     A
C286   H320    1.083   .     S
C286   C297    1.404   .     A
C287   C291    1.390   .     A
C287   H326    1.083   .     S
C287   C297    1.403   .     A
C288   C293    1.389   .     A
C288   H327    1.083   .     S
C288   C296    1.403   .     A
C289   C294    1.402   .     A
C289   H328    1.083   .     S
C290   H329    1.082   .     S
C290   C295    1.401   .     A
C291   C295    1.402   .     A
C291   H330    1.083   .     S
C292   O345    1.293   .     A
C292   O344    1.293   .     A
C292   C298    1.441   .     S
C293   C294    1.401   .     A
C293   H331    1.082   .     S
C294   C300    1.461   .     S
C295   C301    1.461   .     S
C296   C927    1.470   1_554 S
C297   C926    1.470   .     S
C299   C306    1.403   .     A
C300   O347    1.300   .     A
C300   O350    1.300   .     A
C301   O348    1.301   .     A
C301   O349    1.299   .     A
C302   N336    1.430   .     S
C302   N335    1.371   .     A
C303   N333    1.359   .     A
C303   N337    1.430   .     S
C303   C514    1.420   .     S
C304   N335    1.387   .     A
C304   N338    1.431   .     S
C305   N333    1.371   .     A
C305   N339    1.431   .     S
C305   C512    1.435   .     S
C306   N340    1.436   .     S
Cu307  N333    2.028   .     S
Cu307  O345    1.951   .     S
Cu307  O349    1.955   .     S
Cu307  O343    1.952   .     S
Cu307  O347    1.958   .     S
Cu307  Cu308   2.699   .     S
Cu308  O346    1.951   .     S
Cu308  O348    1.958   .     S
Cu308  N335    2.028   .     S
Cu308  O344    1.952   .     S
Cu308  O350    1.955   .     S
H310   N336    1.044   .     S
H311   N337    1.045   .     S
H312   N337    1.046   .     S
H313   N338    1.036   .     S
H314   N338    1.043   .     S
H315   N339    1.045   .     S
H316   N339    1.045   .     S
H317   N340    1.045   .     S
H318   N340    1.045   .     S
H319   N341    1.045   .     S
H321   N341    1.045   .     S
H322   N342    1.045   .     S
H323   N342    1.045   .     S
H324   N334    1.045   .     S
H325   N334    1.045   .     S
H332   N336    1.045   .     S
C351   O416    1.293   .     A
C351   O413    1.293   .     A
C351   C369    1.441   .     S
C352   C368    1.403   .     A
C352   N411    1.436   .     S
C352   C214    1.402   1_655 S
C353   C368    1.403   .     A
C353   N412    1.436   .     S
C353   C236    1.402   1_655 S
C354   N404    1.436   .     S
C354   C369    1.403   .     A
C355   C359    1.391   .     A
C355   H379    1.083   .     S
C355   C366    1.404   .     A
C356   C360    1.390   .     A
C356   H390    1.083   .     S
C356   C367    1.404   .     A
C357   C361    1.390   .     A
C357   H396    1.083   .     S
C357   C367    1.403   .     A
C358   C363    1.389   .     A
C358   H397    1.083   .     S
C358   C366    1.403   .     A
C359   C364    1.402   .     A
C359   H398    1.083   .     S
C360   H399    1.082   .     S
C360   C365    1.401   .     A
C361   C365    1.402   .     A
C361   H400    1.083   .     S
C362   O415    1.293   .     A
C362   O414    1.293   .     A
C362   C368    1.441   .     S
C363   C364    1.401   .     A
C363   H401    1.082   .     S
C364   C370    1.461   .     S
C365   C371    1.461   .     S
C366   C997    1.470   1_554 S
C367   C996    1.470   .     S
C369   C376    1.403   .     A
C370   O417    1.300   .     A
C370   O420    1.300   .     A
C371   O418    1.301   .     A
C371   O419    1.299   .     A
C372   N406    1.430   .     S
C372   N405    1.371   .     A
C373   N403    1.359   .     A
C373   N407    1.430   .     S
C373   C584    1.420   .     S
C374   N405    1.387   .     A
C374   N408    1.431   .     S
C375   N403    1.371   .     A
C375   N409    1.431   .     S
C375   C582    1.435   .     S
C376   N410    1.436   .     S
Cu377  N403    2.028   .     S
Cu377  O415    1.951   .     S
Cu377  O419    1.955   .     S
Cu377  O413    1.952   .     S
Cu377  O417    1.958   .     S
Cu377  Cu378   2.699   .     S
Cu378  O416    1.951   .     S
Cu378  O418    1.958   .     S
Cu378  N405    2.028   .     S
Cu378  O414    1.952   .     S
Cu378  O420    1.955   .     S
H380   N406    1.044   .     S
H381   N407    1.045   .     S
H382   N407    1.046   .     S
H383   N408    1.036   .     S
H384   N408    1.043   .     S
H385   N409    1.045   .     S
H386   N409    1.045   .     S
H387   N410    1.045   .     S
H388   N410    1.045   .     S
H389   N411    1.045   .     S
H391   N411    1.045   .     S
H392   N412    1.045   .     S
H393   N412    1.045   .     S
H394   N404    1.045   .     S
H395   N404    1.045   .     S
H402   N406    1.045   .     S
C421   O486    1.293   .     A
C421   O483    1.293   .     A
C421   C439    1.441   .     S
C422   C438    1.403   .     A
C422   N481    1.436   .     S
C422   C494    1.402   .     S
C423   C438    1.403   .     A
C423   N482    1.436   .     S
C423   C516    1.402   .     S
C424   N474    1.436   .     S
C424   C439    1.403   .     A
C424   C562    1.402   1_455 S
C425   C429    1.391   .     A
C425   H449    1.083   .     S
C425   C436    1.404   .     A
C426   C430    1.390   .     A
C426   H460    1.083   .     S
C426   C437    1.404   .     A
C427   C431    1.390   .     A
C427   H466    1.083   .     S
C427   C437    1.403   .     A
C428   C433    1.389   .     A
C428   H467    1.083   .     S
C428   C436    1.403   .     A
C429   C434    1.402   .     A
C429   H468    1.083   .     S
C430   H469    1.082   .     S
C430   C435    1.401   .     A
C431   C435    1.402   .     A
C431   H470    1.083   .     S
C432   O485    1.293   .     A
C432   O484    1.293   .     A
C432   C438    1.441   .     S
C433   C434    1.401   .     A
C433   H471    1.082   .     S
C434   C440    1.461   .     S
C435   C441    1.461   .     S
C436   C1067   1.470   1_554 S
C437   C1066   1.470   .     S
C439   C446    1.403   .     A
C440   O487    1.300   .     A
C440   O490    1.300   .     A
C441   O488    1.301   .     A
C441   O489    1.299   .     A
C442   N476    1.430   .     S
C442   N475    1.371   .     A
C443   N473    1.359   .     A
C443   N477    1.430   .     S
C443   C24     1.420   1_565 S
C444   N475    1.387   .     A
C444   N478    1.431   .     S
C445   N473    1.371   .     A
C445   N479    1.431   .     S
C445   C22     1.435   1_565 S
C446   N480    1.436   .     S
C446   C563    1.402   1_455 S
Cu447  N473    2.028   .     S
Cu447  O485    1.951   .     S
Cu447  O489    1.955   .     S
Cu447  O483    1.952   .     S
Cu447  O487    1.958   .     S
Cu447  Cu448   2.699   .     S
Cu448  O486    1.951   .     S
Cu448  O488    1.958   .     S
Cu448  N475    2.028   .     S
Cu448  O484    1.952   .     S
Cu448  O490    1.955   .     S
H450   N476    1.044   .     S
H451   N477    1.045   .     S
H452   N477    1.046   .     S
H453   N478    1.036   .     S
H454   N478    1.043   .     S
H455   N479    1.045   .     S
H456   N479    1.045   .     S
H457   N480    1.045   .     S
H458   N480    1.045   .     S
H459   N481    1.045   .     S
H461   N481    1.045   .     S
H462   N482    1.045   .     S
H463   N482    1.045   .     S
H464   N474    1.045   .     S
H465   N474    1.045   .     S
H472   N476    1.045   .     S
C491   O556    1.293   .     A
C491   O553    1.293   .     A
C491   C509    1.441   .     S
C492   C508    1.403   .     A
C492   N551    1.436   .     S
C492   C564    1.402   .     S
C493   C508    1.403   .     A
C493   N552    1.436   .     S
C493   C586    1.402   .     S
C494   N544    1.436   .     S
C494   C509    1.403   .     A
C495   C499    1.391   .     A
C495   H519    1.083   .     S
C495   C506    1.404   .     A
C496   C500    1.390   .     A
C496   H530    1.083   .     S
C496   C507    1.404   .     A
C497   C501    1.390   .     A
C497   H536    1.083   .     S
C497   C507    1.403   .     A
C498   C503    1.389   .     A
C498   H537    1.083   .     S
C498   C506    1.403   .     A
C499   C504    1.402   .     A
C499   H538    1.083   .     S
C500   H539    1.082   .     S
C500   C505    1.401   .     A
C501   C505    1.402   .     A
C501   H540    1.083   .     S
C502   O555    1.293   .     A
C502   O554    1.293   .     A
C502   C508    1.441   .     S
C503   C504    1.401   .     A
C503   H541    1.082   .     S
C504   C510    1.461   .     S
C505   C511    1.461   .     S
C506   C1137   1.470   1_554 S
C507   C1136   1.470   .     S
C509   C516    1.403   .     A
C510   O557    1.300   .     A
C510   O560    1.300   .     A
C511   O558    1.301   .     A
C511   O559    1.299   .     A
C512   N546    1.430   .     S
C512   N545    1.371   .     A
C513   N543    1.359   .     A
C513   N547    1.430   .     S
C513   C94     1.420   1_565 S
C514   N545    1.387   .     A
C514   N548    1.431   .     S
C515   N543    1.371   .     A
C515   N549    1.431   .     S
C515   C92     1.435   1_565 S
C516   N550    1.436   .     S
Cu517  N543    2.028   .     S
Cu517  O555    1.951   .     S
Cu517  O559    1.955   .     S
Cu517  O553    1.952   .     S
Cu517  O557    1.958   .     S
Cu517  Cu518   2.699   .     S
Cu518  O556    1.951   .     S
Cu518  O558    1.958   .     S
Cu518  N545    2.028   .     S
Cu518  O554    1.952   .     S
Cu518  O560    1.955   .     S
H520   N546    1.044   .     S
H521   N547    1.045   .     S
H522   N547    1.046   .     S
H523   N548    1.036   .     S
H524   N548    1.043   .     S
H525   N549    1.045   .     S
H526   N549    1.045   .     S
H527   N550    1.045   .     S
H528   N550    1.045   .     S
H529   N551    1.045   .     S
H531   N551    1.045   .     S
H532   N552    1.045   .     S
H533   N552    1.045   .     S
H534   N544    1.045   .     S
H535   N544    1.045   .     S
H542   N546    1.045   .     S
C561   O626    1.293   .     A
C561   O623    1.293   .     A
C561   C579    1.441   .     S
C562   C578    1.403   .     A
C562   N621    1.436   .     S
C562   C424    1.402   1_655 S
C563   C578    1.403   .     A
C563   N622    1.436   .     S
C563   C446    1.402   1_655 S
C564   N614    1.436   .     S
C564   C579    1.403   .     A
C565   C569    1.391   .     A
C565   H589    1.083   .     S
C565   C576    1.404   .     A
C566   C570    1.390   .     A
C566   H600    1.083   .     S
C566   C577    1.404   .     A
C567   C571    1.390   .     A
C567   H606    1.083   .     S
C567   C577    1.403   .     A
C568   C573    1.389   .     A
C568   H607    1.083   .     S
C568   C576    1.403   .     A
C569   C574    1.402   .     A
C569   H608    1.083   .     S
C570   H609    1.082   .     S
C570   C575    1.401   .     A
C571   C575    1.402   .     A
C571   H610    1.083   .     S
C572   O625    1.293   .     A
C572   O624    1.293   .     A
C572   C578    1.441   .     S
C573   C574    1.401   .     A
C573   H611    1.082   .     S
C574   C580    1.461   .     S
C575   C581    1.461   .     S
C576   C1207   1.470   1_554 S
C577   C1206   1.470   .     S
C579   C586    1.403   .     A
C580   O627    1.300   .     A
C580   O630    1.300   .     A
C581   O628    1.301   .     A
C581   O629    1.299   .     A
C582   N616    1.430   .     S
C582   N615    1.371   .     A
C583   N613    1.359   .     A
C583   N617    1.430   .     S
C583   C164    1.420   1_565 S
C584   N615    1.387   .     A
C584   N618    1.431   .     S
C585   N613    1.371   .     A
C585   N619    1.431   .     S
C585   C162    1.435   1_565 S
C586   N620    1.436   .     S
Cu587  N613    2.028   .     S
Cu587  O625    1.951   .     S
Cu587  O629    1.955   .     S
Cu587  O623    1.952   .     S
Cu587  O627    1.958   .     S
Cu587  Cu588   2.699   .     S
Cu588  O626    1.951   .     S
Cu588  O628    1.958   .     S
Cu588  N615    2.028   .     S
Cu588  O624    1.952   .     S
Cu588  O630    1.955   .     S
H590   N616    1.044   .     S
H591   N617    1.045   .     S
H592   N617    1.046   .     S
H593   N618    1.036   .     S
H594   N618    1.043   .     S
H595   N619    1.045   .     S
H596   N619    1.045   .     S
H597   N620    1.045   .     S
H598   N620    1.045   .     S
H599   N621    1.045   .     S
H601   N621    1.045   .     S
H602   N622    1.045   .     S
H603   N622    1.045   .     S
H604   N614    1.045   .     S
H605   N614    1.045   .     S
H612   N616    1.045   .     S
C631   O696    1.293   .     A
C631   O693    1.293   .     A
C631   C649    1.441   .     S
C632   C648    1.403   .     A
C632   N691    1.436   .     S
C632   C704    1.402   .     S
C633   C648    1.403   .     A
C633   N692    1.436   .     S
C633   C726    1.402   .     S
C634   N684    1.436   .     S
C634   C649    1.403   .     A
C634   C772    1.402   1_455 S
C635   C639    1.391   .     A
C635   H659    1.083   .     S
C635   C646    1.404   .     A
C636   C640    1.390   .     A
C636   H670    1.083   .     S
C636   C647    1.404   .     A
C637   C641    1.390   .     A
C637   H676    1.083   .     S
C637   C647    1.403   .     A
C638   C643    1.389   .     A
C638   H677    1.083   .     S
C638   C646    1.403   .     A
C639   C644    1.402   .     A
C639   H678    1.083   .     S
C640   H679    1.082   .     S
C640   C645    1.401   .     A
C641   C645    1.402   .     A
C641   H680    1.083   .     S
C642   O695    1.293   .     A
C642   O694    1.293   .     A
C642   C648    1.441   .     S
C643   C644    1.401   .     A
C643   H681    1.082   .     S
C644   C650    1.461   .     S
C645   C651    1.461   .     S
C647   C16     1.470   1_556 S
C649   C656    1.403   .     A
C650   O697    1.300   .     A
C650   O700    1.300   .     A
C651   O698    1.301   .     A
C651   O699    1.299   .     A
C652   N686    1.430   .     S
C652   N685    1.371   .     A
C652   C1075   1.435   1_545 S
C653   N683    1.359   .     A
C653   N687    1.430   .     S
C653   C864    1.420   .     S
C654   N685    1.387   .     A
C654   N688    1.431   .     S
C654   C1073   1.420   1_545 S
C655   N683    1.371   .     A
C655   N689    1.431   .     S
C655   C862    1.435   .     S
C656   N690    1.436   .     S
C656   C773    1.402   1_455 S
Cu657  N683    2.028   .     S
Cu657  O695    1.951   .     S
Cu657  O699    1.955   .     S
Cu657  O693    1.952   .     S
Cu657  O697    1.958   .     S
Cu657  Cu658   2.699   .     S
Cu658  O696    1.951   .     S
Cu658  O698    1.958   .     S
Cu658  N685    2.028   .     S
Cu658  O694    1.952   .     S
Cu658  O700    1.955   .     S
H660   N686    1.044   .     S
H661   N687    1.045   .     S
H662   N687    1.046   .     S
H663   N688    1.036   .     S
H664   N688    1.043   .     S
H665   N689    1.045   .     S
H666   N689    1.045   .     S
H667   N690    1.045   .     S
H668   N690    1.045   .     S
H669   N691    1.045   .     S
H671   N691    1.045   .     S
H672   N692    1.045   .     S
H673   N692    1.045   .     S
H674   N684    1.045   .     S
H675   N684    1.045   .     S
H682   N686    1.045   .     S
C701   O766    1.293   .     A
C701   O763    1.293   .     A
C701   C719    1.441   .     S
C702   C718    1.403   .     A
C702   N761    1.436   .     S
C702   C774    1.402   .     S
C703   C718    1.403   .     A
C703   N762    1.436   .     S
C703   C796    1.402   .     S
C704   N754    1.436   .     S
C704   C719    1.403   .     A
C705   C709    1.391   .     A
C705   H729    1.083   .     S
C705   C716    1.404   .     A
C706   C710    1.390   .     A
C706   H740    1.083   .     S
C706   C717    1.404   .     A
C707   C711    1.390   .     A
C707   H746    1.083   .     S
C707   C717    1.403   .     A
C708   C713    1.389   .     A
C708   H747    1.083   .     S
C708   C716    1.403   .     A
C709   C714    1.402   .     A
C709   H748    1.083   .     S
C710   H749    1.082   .     S
C710   C715    1.401   .     A
C711   C715    1.402   .     A
C711   H750    1.083   .     S
C712   O765    1.293   .     A
C712   O764    1.293   .     A
C712   C718    1.441   .     S
C713   C714    1.401   .     A
C713   H751    1.082   .     S
C714   C720    1.461   .     S
C715   C721    1.461   .     S
C717   C86     1.470   1_556 S
C719   C726    1.403   .     A
C720   O767    1.300   .     A
C720   O770    1.300   .     A
C721   O768    1.301   .     A
C721   O769    1.299   .     A
C722   N756    1.430   .     S
C722   N755    1.371   .     A
C722   C1145   1.435   1_545 S
C723   N753    1.359   .     A
C723   N757    1.430   .     S
C723   C934    1.420   .     S
C724   N755    1.387   .     A
C724   N758    1.431   .     S
C724   C1143   1.420   1_545 S
C725   N753    1.371   .     A
C725   N759    1.431   .     S
C725   C932    1.435   .     S
C726   N760    1.436   .     S
Cu727  N753    2.028   .     S
Cu727  O765    1.951   .     S
Cu727  O769    1.955   .     S
Cu727  O763    1.952   .     S
Cu727  O767    1.958   .     S
Cu727  Cu728   2.699   .     S
Cu728  O766    1.951   .     S
Cu728  O768    1.958   .     S
Cu728  N755    2.028   .     S
Cu728  O764    1.952   .     S
Cu728  O770    1.955   .     S
H730   N756    1.044   .     S
H731   N757    1.045   .     S
H732   N757    1.046   .     S
H733   N758    1.036   .     S
H734   N758    1.043   .     S
H735   N759    1.045   .     S
H736   N759    1.045   .     S
H737   N760    1.045   .     S
H738   N760    1.045   .     S
H739   N761    1.045   .     S
H741   N761    1.045   .     S
H742   N762    1.045   .     S
H743   N762    1.045   .     S
H744   N754    1.045   .     S
H745   N754    1.045   .     S
H752   N756    1.045   .     S
C771   O836    1.293   .     A
C771   O833    1.293   .     A
C771   C789    1.441   .     S
C772   C788    1.403   .     A
C772   N831    1.436   .     S
C772   C634    1.402   1_655 S
C773   C788    1.403   .     A
C773   N832    1.436   .     S
C773   C656    1.402   1_655 S
C774   N824    1.436   .     S
C774   C789    1.403   .     A
C775   C779    1.391   .     A
C775   H799    1.083   .     S
C775   C786    1.404   .     A
C776   C780    1.390   .     A
C776   H810    1.083   .     S
C776   C787    1.404   .     A
C777   C781    1.390   .     A
C777   H816    1.083   .     S
C777   C787    1.403   .     A
C778   C783    1.389   .     A
C778   H817    1.083   .     S
C778   C786    1.403   .     A
C779   C784    1.402   .     A
C779   H818    1.083   .     S
C780   H819    1.082   .     S
C780   C785    1.401   .     A
C781   C785    1.402   .     A
C781   H820    1.083   .     S
C782   O835    1.293   .     A
C782   O834    1.293   .     A
C782   C788    1.441   .     S
C783   C784    1.401   .     A
C783   H821    1.082   .     S
C784   C790    1.461   .     S
C785   C791    1.461   .     S
C787   C156    1.470   1_556 S
C789   C796    1.403   .     A
C790   O837    1.300   .     A
C790   O840    1.300   .     A
C791   O838    1.301   .     A
C791   O839    1.299   .     A
C792   N826    1.430   .     S
C792   N825    1.371   .     A
C792   C1215   1.435   1_545 S
C793   N823    1.359   .     A
C793   N827    1.430   .     S
C793   C1004   1.420   .     S
C794   N825    1.387   .     A
C794   N828    1.431   .     S
C794   C1213   1.420   1_545 S
C795   N823    1.371   .     A
C795   N829    1.431   .     S
C795   C1002   1.435   .     S
C796   N830    1.436   .     S
Cu797  N823    2.028   .     S
Cu797  O835    1.951   .     S
Cu797  O839    1.955   .     S
Cu797  O833    1.952   .     S
Cu797  O837    1.958   .     S
Cu797  Cu798   2.699   .     S
Cu798  O836    1.951   .     S
Cu798  O838    1.958   .     S
Cu798  N825    2.028   .     S
Cu798  O834    1.952   .     S
Cu798  O840    1.955   .     S
H800   N826    1.044   .     S
H801   N827    1.045   .     S
H802   N827    1.046   .     S
H803   N828    1.036   .     S
H804   N828    1.043   .     S
H805   N829    1.045   .     S
H806   N829    1.045   .     S
H807   N830    1.045   .     S
H808   N830    1.045   .     S
H809   N831    1.045   .     S
H811   N831    1.045   .     S
H812   N832    1.045   .     S
H813   N832    1.045   .     S
H814   N824    1.045   .     S
H815   N824    1.045   .     S
H822   N826    1.045   .     S
C841   O906    1.293   .     A
C841   O903    1.293   .     A
C841   C859    1.441   .     S
C842   C858    1.403   .     A
C842   N901    1.436   .     S
C842   C914    1.402   .     S
C843   C858    1.403   .     A
C843   N902    1.436   .     S
C843   C936    1.402   .     S
C844   N894    1.436   .     S
C844   C859    1.403   .     A
C844   C982    1.402   1_455 S
C845   C849    1.391   .     A
C845   H869    1.083   .     S
C845   C856    1.404   .     A
C846   C850    1.390   .     A
C846   H880    1.083   .     S
C846   C857    1.404   .     A
C847   C851    1.390   .     A
C847   H886    1.083   .     S
C847   C857    1.403   .     A
C848   C853    1.389   .     A
C848   H887    1.083   .     S
C848   C856    1.403   .     A
C849   C854    1.402   .     A
C849   H888    1.083   .     S
C850   H889    1.082   .     S
C850   C855    1.401   .     A
C851   C855    1.402   .     A
C851   H890    1.083   .     S
C852   O905    1.293   .     A
C852   O904    1.293   .     A
C852   C858    1.441   .     S
C853   C854    1.401   .     A
C853   H891    1.082   .     S
C854   C860    1.461   .     S
C855   C861    1.461   .     S
C857   C226    1.470   1_556 S
C859   C866    1.403   .     A
C860   O907    1.300   .     A
C860   O910    1.300   .     A
C861   O908    1.301   .     A
C861   O909    1.299   .     A
C862   N896    1.430   .     S
C862   N895    1.371   .     A
C863   N893    1.359   .     A
C863   N897    1.430   .     S
C863   C1074   1.420   .     S
C864   N895    1.387   .     A
C864   N898    1.431   .     S
C865   N893    1.371   .     A
C865   N899    1.431   .     S
C865   C1072   1.435   .     S
C866   N900    1.436   .     S
C866   C983    1.402   1_455 S
Cu867  N893    2.028   .     S
Cu867  O905    1.951   .     S
Cu867  O909    1.955   .     S
Cu867  O903    1.952   .     S
Cu867  O907    1.958   .     S
Cu867  Cu868   2.699   .     S
Cu868  O906    1.951   .     S
Cu868  O908    1.958   .     S
Cu868  N895    2.028   .     S
Cu868  O904    1.952   .     S
Cu868  O910    1.955   .     S
H870   N896    1.044   .     S
H871   N897    1.045   .     S
H872   N897    1.046   .     S
H873   N898    1.036   .     S
H874   N898    1.043   .     S
H875   N899    1.045   .     S
H876   N899    1.045   .     S
H877   N900    1.045   .     S
H878   N900    1.045   .     S
H879   N901    1.045   .     S
H881   N901    1.045   .     S
H882   N902    1.045   .     S
H883   N902    1.045   .     S
H884   N894    1.045   .     S
H885   N894    1.045   .     S
H892   N896    1.045   .     S
C911   O976    1.293   .     A
C911   O973    1.293   .     A
C911   C929    1.441   .     S
C912   C928    1.403   .     A
C912   N971    1.436   .     S
C912   C984    1.402   .     S
C913   C928    1.403   .     A
C913   N972    1.436   .     S
C913   C1006   1.402   .     S
C914   N964    1.436   .     S
C914   C929    1.403   .     A
C915   C919    1.391   .     A
C915   H939    1.083   .     S
C915   C926    1.404   .     A
C916   C920    1.390   .     A
C916   H950    1.083   .     S
C916   C927    1.404   .     A
C917   C921    1.390   .     A
C917   H956    1.083   .     S
C917   C927    1.403   .     A
C918   C923    1.389   .     A
C918   H957    1.083   .     S
C918   C926    1.403   .     A
C919   C924    1.402   .     A
C919   H958    1.083   .     S
C920   H959    1.082   .     S
C920   C925    1.401   .     A
C921   C925    1.402   .     A
C921   H960    1.083   .     S
C922   O975    1.293   .     A
C922   O974    1.293   .     A
C922   C928    1.441   .     S
C923   C924    1.401   .     A
C923   H961    1.082   .     S
C924   C930    1.461   .     S
C925   C931    1.461   .     S
C927   C296    1.470   1_556 S
C929   C936    1.403   .     A
C930   O977    1.300   .     A
C930   O980    1.300   .     A
C931   O978    1.301   .     A
C931   O979    1.299   .     A
C932   N966    1.430   .     S
C932   N965    1.371   .     A
C933   N963    1.359   .     A
C933   N967    1.430   .     S
C933   C1144   1.420   .     S
C934   N965    1.387   .     A
C934   N968    1.431   .     S
C935   N963    1.371   .     A
C935   N969    1.431   .     S
C935   C1142   1.435   .     S
C936   N970    1.436   .     S
Cu937  N963    2.028   .     S
Cu937  O975    1.951   .     S
Cu937  O979    1.955   .     S
Cu937  O973    1.952   .     S
Cu937  O977    1.958   .     S
Cu937  Cu938   2.699   .     S
Cu938  O976    1.951   .     S
Cu938  O978    1.958   .     S
Cu938  N965    2.028   .     S
Cu938  O974    1.952   .     S
Cu938  O980    1.955   .     S
H940   N966    1.044   .     S
H941   N967    1.045   .     S
H942   N967    1.046   .     S
H943   N968    1.036   .     S
H944   N968    1.043   .     S
H945   N969    1.045   .     S
H946   N969    1.045   .     S
H947   N970    1.045   .     S
H948   N970    1.045   .     S
H949   N971    1.045   .     S
H951   N971    1.045   .     S
H952   N972    1.045   .     S
H953   N972    1.045   .     S
H954   N964    1.045   .     S
H955   N964    1.045   .     S
H962   N966    1.045   .     S
C981   O1046   1.293   .     A
C981   O1043   1.293   .     A
C981   C999    1.441   .     S
C982   C998    1.403   .     A
C982   N1041   1.436   .     S
C982   C844    1.402   1_655 S
C983   C998    1.403   .     A
C983   N1042   1.436   .     S
C983   C866    1.402   1_655 S
C984   N1034   1.436   .     S
C984   C999    1.403   .     A
C985   C989    1.391   .     A
C985   H1009   1.083   .     S
C985   C996    1.404   .     A
C986   C990    1.390   .     A
C986   H1020   1.083   .     S
C986   C997    1.404   .     A
C987   C991    1.390   .     A
C987   H1026   1.083   .     S
C987   C997    1.403   .     A
C988   C993    1.389   .     A
C988   H1027   1.083   .     S
C988   C996    1.403   .     A
C989   C994    1.402   .     A
C989   H1028   1.083   .     S
C990   H1029   1.082   .     S
C990   C995    1.401   .     A
C991   C995    1.402   .     A
C991   H1030   1.083   .     S
C992   O1045   1.293   .     A
C992   O1044   1.293   .     A
C992   C998    1.441   .     S
C993   C994    1.401   .     A
C993   H1031   1.082   .     S
C994   C1000   1.461   .     S
C995   C1001   1.461   .     S
C997   C366    1.470   1_556 S
C999   C1006   1.403   .     A
C1000  O1047   1.300   .     A
C1000  O1050   1.300   .     A
C1001  O1048   1.301   .     A
C1001  O1049   1.299   .     A
C1002  N1036   1.430   .     S
C1002  N1035   1.371   .     A
C1003  N1033   1.359   .     A
C1003  N1037   1.430   .     S
C1003  C1214   1.420   .     S
C1004  N1035   1.387   .     A
C1004  N1038   1.431   .     S
C1005  N1033   1.371   .     A
C1005  N1039   1.431   .     S
C1005  C1212   1.435   .     S
C1006  N1040   1.436   .     S
Cu1007 N1033   2.028   .     S
Cu1007 O1045   1.951   .     S
Cu1007 O1049   1.955   .     S
Cu1007 O1043   1.952   .     S
Cu1007 O1047   1.958   .     S
Cu1007 Cu1008  2.699   .     S
Cu1008 O1046   1.951   .     S
Cu1008 O1048   1.958   .     S
Cu1008 N1035   2.028   .     S
Cu1008 O1044   1.952   .     S
Cu1008 O1050   1.955   .     S
H1010  N1036   1.044   .     S
H1011  N1037   1.045   .     S
H1012  N1037   1.046   .     S
H1013  N1038   1.036   .     S
H1014  N1038   1.043   .     S
H1015  N1039   1.045   .     S
H1016  N1039   1.045   .     S
H1017  N1040   1.045   .     S
H1018  N1040   1.045   .     S
H1019  N1041   1.045   .     S
H1021  N1041   1.045   .     S
H1022  N1042   1.045   .     S
H1023  N1042   1.045   .     S
H1024  N1034   1.045   .     S
H1025  N1034   1.045   .     S
H1032  N1036   1.045   .     S
C1051  O1116   1.293   .     A
C1051  O1113   1.293   .     A
C1051  C1069   1.441   .     S
C1052  C1068   1.403   .     A
C1052  N1111   1.436   .     S
C1052  C1124   1.402   .     S
C1053  C1068   1.403   .     A
C1053  N1112   1.436   .     S
C1053  C1146   1.402   .     S
C1054  N1104   1.436   .     S
C1054  C1069   1.403   .     A
C1054  C1192   1.402   1_455 S
C1055  C1059   1.391   .     A
C1055  H1079   1.083   .     S
C1055  C1066   1.404   .     A
C1056  C1060   1.390   .     A
C1056  H1090   1.083   .     S
C1056  C1067   1.404   .     A
C1057  C1061   1.390   .     A
C1057  H1096   1.083   .     S
C1057  C1067   1.403   .     A
C1058  C1063   1.389   .     A
C1058  H1097   1.083   .     S
C1058  C1066   1.403   .     A
C1059  C1064   1.402   .     A
C1059  H1098   1.083   .     S
C1060  H1099   1.082   .     S
C1060  C1065   1.401   .     A
C1061  C1065   1.402   .     A
C1061  H1100   1.083   .     S
C1062  O1115   1.293   .     A
C1062  O1114   1.293   .     A
C1062  C1068   1.441   .     S
C1063  C1064   1.401   .     A
C1063  H1101   1.082   .     S
C1064  C1070   1.461   .     S
C1065  C1071   1.461   .     S
C1067  C436    1.470   1_556 S
C1069  C1076   1.403   .     A
C1070  O1117   1.300   .     A
C1070  O1120   1.300   .     A
C1071  O1118   1.301   .     A
C1071  O1119   1.299   .     A
C1072  N1106   1.430   .     S
C1072  N1105   1.371   .     A
C1073  N1103   1.359   .     A
C1073  N1107   1.430   .     S
C1073  C654    1.420   1_565 S
C1074  N1105   1.387   .     A
C1074  N1108   1.431   .     S
C1075  N1103   1.371   .     A
C1075  N1109   1.431   .     S
C1075  C652    1.435   1_565 S
C1076  N1110   1.436   .     S
C1076  C1193   1.402   1_455 S
Cu1077 N1103   2.028   .     S
Cu1077 O1115   1.951   .     S
Cu1077 O1119   1.955   .     S
Cu1077 O1113   1.952   .     S
Cu1077 O1117   1.958   .     S
Cu1077 Cu1078  2.699   .     S
Cu1078 O1116   1.951   .     S
Cu1078 O1118   1.958   .     S
Cu1078 N1105   2.028   .     S
Cu1078 O1114   1.952   .     S
Cu1078 O1120   1.955   .     S
H1080  N1106   1.044   .     S
H1081  N1107   1.045   .     S
H1082  N1107   1.046   .     S
H1083  N1108   1.036   .     S
H1084  N1108   1.043   .     S
H1085  N1109   1.045   .     S
H1086  N1109   1.045   .     S
H1087  N1110   1.045   .     S
H1088  N1110   1.045   .     S
H1089  N1111   1.045   .     S
H1091  N1111   1.045   .     S
H1092  N1112   1.045   .     S
H1093  N1112   1.045   .     S
H1094  N1104   1.045   .     S
H1095  N1104   1.045   .     S
H1102  N1106   1.045   .     S
C1121  O1186   1.293   .     A
C1121  O1183   1.293   .     A
C1121  C1139   1.441   .     S
C1122  C1138   1.403   .     A
C1122  N1181   1.436   .     S
C1122  C1194   1.402   .     S
C1123  C1138   1.403   .     A
C1123  N1182   1.436   .     S
C1123  C1216   1.402   .     S
C1124  N1174   1.436   .     S
C1124  C1139   1.403   .     A
C1125  C1129   1.391   .     A
C1125  H1149   1.083   .     S
C1125  C1136   1.404   .     A
C1126  C1130   1.390   .     A
C1126  H1160   1.083   .     S
C1126  C1137   1.404   .     A
C1127  C1131   1.390   .     A
C1127  H1166   1.083   .     S
C1127  C1137   1.403   .     A
C1128  C1133   1.389   .     A
C1128  H1167   1.083   .     S
C1128  C1136   1.403   .     A
C1129  C1134   1.402   .     A
C1129  H1168   1.083   .     S
C1130  H1169   1.082   .     S
C1130  C1135   1.401   .     A
C1131  C1135   1.402   .     A
C1131  H1170   1.083   .     S
C1132  O1185   1.293   .     A
C1132  O1184   1.293   .     A
C1132  C1138   1.441   .     S
C1133  C1134   1.401   .     A
C1133  H1171   1.082   .     S
C1134  C1140   1.461   .     S
C1135  C1141   1.461   .     S
C1137  C506    1.470   1_556 S
C1139  C1146   1.403   .     A
C1140  O1187   1.300   .     A
C1140  O1190   1.300   .     A
C1141  O1188   1.301   .     A
C1141  O1189   1.299   .     A
C1142  N1176   1.430   .     S
C1142  N1175   1.371   .     A
C1143  N1173   1.359   .     A
C1143  N1177   1.430   .     S
C1143  C724    1.420   1_565 S
C1144  N1175   1.387   .     A
C1144  N1178   1.431   .     S
C1145  N1173   1.371   .     A
C1145  N1179   1.431   .     S
C1145  C722    1.435   1_565 S
C1146  N1180   1.436   .     S
Cu1147 N1173   2.028   .     S
Cu1147 O1185   1.951   .     S
Cu1147 O1189   1.955   .     S
Cu1147 O1183   1.952   .     S
Cu1147 O1187   1.958   .     S
Cu1147 Cu1148  2.699   .     S
Cu1148 O1186   1.951   .     S
Cu1148 O1188   1.958   .     S
Cu1148 N1175   2.028   .     S
Cu1148 O1184   1.952   .     S
Cu1148 O1190   1.955   .     S
H1150  N1176   1.044   .     S
H1151  N1177   1.045   .     S
H1152  N1177   1.046   .     S
H1153  N1178   1.036   .     S
H1154  N1178   1.043   .     S
H1155  N1179   1.045   .     S
H1156  N1179   1.045   .     S
H1157  N1180   1.045   .     S
H1158  N1180   1.045   .     S
H1159  N1181   1.045   .     S
H1161  N1181   1.045   .     S
H1162  N1182   1.045   .     S
H1163  N1182   1.045   .     S
H1164  N1174   1.045   .     S
H1165  N1174   1.045   .     S
H1172  N1176   1.045   .     S
C1191  O1256   1.293   .     A
C1191  O1253   1.293   .     A
C1191  C1209   1.441   .     S
C1192  C1208   1.403   .     A
C1192  N1251   1.436   .     S
C1192  C1054   1.402   1_655 S
C1193  C1208   1.403   .     A
C1193  N1252   1.436   .     S
C1193  C1076   1.402   1_655 S
C1194  N1244   1.436   .     S
C1194  C1209   1.403   .     A
C1195  C1199   1.391   .     A
C1195  H1219   1.083   .     S
C1195  C1206   1.404   .     A
C1196  C1200   1.390   .     A
C1196  H1230   1.083   .     S
C1196  C1207   1.404   .     A
C1197  C1201   1.390   .     A
C1197  H1236   1.083   .     S
C1197  C1207   1.403   .     A
C1198  C1203   1.389   .     A
C1198  H1237   1.083   .     S
C1198  C1206   1.403   .     A
C1199  C1204   1.402   .     A
C1199  H1238   1.083   .     S
C1200  H1239   1.082   .     S
C1200  C1205   1.401   .     A
C1201  C1205   1.402   .     A
C1201  H1240   1.083   .     S
C1202  O1255   1.293   .     A
C1202  O1254   1.293   .     A
C1202  C1208   1.441   .     S
C1203  C1204   1.401   .     A
C1203  H1241   1.082   .     S
C1204  C1210   1.461   .     S
C1205  C1211   1.461   .     S
C1207  C576    1.470   1_556 S
C1209  C1216   1.403   .     A
C1210  O1257   1.300   .     A
C1210  O1260   1.300   .     A
C1211  O1258   1.301   .     A
C1211  O1259   1.299   .     A
C1212  N1246   1.430   .     S
C1212  N1245   1.371   .     A
C1213  N1243   1.359   .     A
C1213  N1247   1.430   .     S
C1213  C794    1.420   1_565 S
C1214  N1245   1.387   .     A
C1214  N1248   1.431   .     S
C1215  N1243   1.371   .     A
C1215  N1249   1.431   .     S
C1215  C792    1.435   1_565 S
C1216  N1250   1.436   .     S
Cu1217 N1243   2.028   .     S
Cu1217 O1255   1.951   .     S
Cu1217 O1259   1.955   .     S
Cu1217 O1253   1.952   .     S
Cu1217 O1257   1.958   .     S
Cu1217 Cu1218  2.699   .     S
Cu1218 O1256   1.951   .     S
Cu1218 O1258   1.958   .     S
Cu1218 N1245   2.028   .     S
Cu1218 O1254   1.952   .     S
Cu1218 O1260   1.955   .     S
H1220  N1246   1.044   .     S
H1221  N1247   1.045   .     S
H1222  N1247   1.046   .     S
H1223  N1248   1.036   .     S
H1224  N1248   1.043   .     S
H1225  N1249   1.045   .     S
H1226  N1249   1.045   .     S
H1227  N1250   1.045   .     S
H1228  N1250   1.045   .     S
H1229  N1251   1.045   .     S
H1231  N1251   1.045   .     S
H1232  N1252   1.045   .     S
H1233  N1252   1.045   .     S
H1234  N1244   1.045   .     S
H1235  N1244   1.045   .     S
H1242  N1246   1.045   .     S
