data_str_m1_o10_o16_pcu_sym.185
_audit_creation_date              2020-01-03
_audit_creation_method            'Materials Studio'
_symmetry_space_group_name_H-M    'P1'
_symmetry_Int_Tables_number       1
_symmetry_cell_setting            triclinic
loop_
_symmetry_equiv_pos_as_xyz
  x,y,z
_cell_length_a                    32.5742
_cell_length_b                    32.5072
_cell_length_c                    31.0961
_cell_angle_alpha                 96.0765
_cell_angle_beta                  74.3197
_cell_angle_gamma                 98.5028
loop_
_atom_site_label
_atom_site_type_symbol
_atom_site_fract_x
_atom_site_fract_y
_atom_site_fract_z
_atom_site_U_iso_or_equiv
_atom_site_adp_type
_atom_site_occupancy
Br1    Br    0.03292   0.20576   0.18626   0.00000  Uiso   1.00
C2     C     0.05274   0.15959   0.26030   0.00000  Uiso   1.00
C3     C     0.16594   0.15349   0.05953   0.00000  Uiso   1.00
C4     C     0.23668   0.13657   0.05663   0.00000  Uiso   1.00
C5     C     0.28093   0.17383   0.23976   0.00000  Uiso   1.00
C6     C     0.13851   0.18965   0.42018   0.00000  Uiso   1.00
C7     C     0.32704   0.17632   0.23472   0.00000  Uiso   1.00
C8     C     0.00759   0.15795   0.26379   0.00000  Uiso   1.00
C9     C     0.18064   0.32258   0.23618   0.00000  Uiso   1.00
C10    C     0.15220   0.01177   0.26394   0.00000  Uiso   1.00
C11    C     0.15633   0.05591   0.26012   0.00000  Uiso   1.00
C12    C     0.17668   0.27797   0.24007   0.00000  Uiso   1.00
C13    C     0.08273   0.19537   0.48936   0.00000  Uiso   1.00
C14    C     0.18561   0.14846   0.12934   0.00000  Uiso   1.00
C15    C     0.14905   0.18508   0.37084   0.00000  Uiso   1.00
C16    C     0.24981   0.14181   0.01105   0.00000  Uiso   1.00
C17    C     0.19505   0.14300   0.08091   0.00000  Uiso   1.00
C18    C     0.09708   0.19835   0.44341   0.00000  Uiso   1.00
C19    C     0.10891   0.18265   0.01282   0.00000  Uiso   1.00
C20    C     0.15130   0.17433   0.49086   0.00000  Uiso   1.00
C21    C     0.16687   0.18029   0.44426   0.00000  Uiso   1.00
C22    C     0.17891   0.16058   0.01354   0.00000  Uiso   1.00
C23    C     0.22180   0.15479   0.48958   0.00000  Uiso   1.00
C24    C     0.23716   0.16385   0.44492   0.00000  Uiso   1.00
C25    C     0.21050   0.17728   0.42289   0.00000  Uiso   1.00
H26    H     0.25957   0.12927   0.07343   0.00000  Uiso   1.00
H27    H     0.05046   0.20166   0.00678   0.00000  Uiso   1.00
H28    H     0.22504   0.18617   0.38910   0.00000  Uiso   1.00
H29    H     0.31877   0.14194   0.29146   0.00000  Uiso   1.00
H30    H     0.20690   0.00386   0.21058   0.00000  Uiso   1.00
H31    H     0.12566   0.33126   0.28974   0.00000  Uiso   1.00
H32    H     0.27031   0.16122   0.42701   0.00000  Uiso   1.00
H33    H     0.28255   0.13755   0.49298   0.00000  Uiso   1.00
H34    H     0.13456   0.15849   0.08037   0.00000  Uiso   1.00
H35    H     0.07498   0.20586   0.42575   0.00000  Uiso   1.00
H36    H     0.09497   0.18002   0.04813   0.00000  Uiso   1.00
O37    O     0.16667   0.16667   0.25000   0.00000  Uiso   1.00
O38    O     0.15451   0.12637   0.15458   0.00000  Uiso   1.00
O39    O     0.12940   0.20391   0.34968   0.00000  Uiso   1.00
O40    O     0.20824   0.17759   0.14606   0.00000  Uiso   1.00
O41    O     0.17451   0.15880   0.34968   0.00000  Uiso   1.00
O42    O     0.17930   0.08019   0.28213   0.00000  Uiso   1.00
O43    O     0.14632   0.26085   0.27013   0.00000  Uiso   1.00
O44    O     0.07412   0.13291   0.23413   0.00000  Uiso   1.00
O45    O     0.26693   0.19272   0.21360   0.00000  Uiso   1.00
O46    O     0.07071   0.18878   0.28213   0.00000  Uiso   1.00
O47    O     0.25491   0.15226   0.27013   0.00000  Uiso   1.00
O48    O     0.13760   0.06944   0.23413   0.00000  Uiso   1.00
O49    O     0.20345   0.25620   0.21360   0.00000  Uiso   1.00
Zn50   Zn    0.19338   0.13994   0.28734   0.00000  Uiso   1.00
Zn51   Zn    0.13379   0.12458   0.21875   0.00000  Uiso   1.00
Zn52   Zn    0.21056   0.19775   0.20657   0.00000  Uiso   1.00
Zn53   Zn    0.12893   0.20439   0.28733   0.00000  Uiso   1.00
Br54   Br    0.36626   0.20576   0.18626   0.00000  Uiso   1.00
C55    C     0.38608   0.15959   0.26030   0.00000  Uiso   1.00
C56    C     0.49928   0.15349   0.05953   0.00000  Uiso   1.00
C57    C     0.57001   0.13657   0.05663   0.00000  Uiso   1.00
C58    C     0.61426   0.17383   0.23976   0.00000  Uiso   1.00
C59    C     0.47184   0.18965   0.42018   0.00000  Uiso   1.00
C60    C     0.66037   0.17632   0.23472   0.00000  Uiso   1.00
C61    C     0.34092   0.15795   0.26379   0.00000  Uiso   1.00
C62    C     0.51397   0.32258   0.23618   0.00000  Uiso   1.00
C63    C     0.48553   0.01177   0.26394   0.00000  Uiso   1.00
C64    C     0.48966   0.05591   0.26012   0.00000  Uiso   1.00
C65    C     0.51001   0.27797   0.24007   0.00000  Uiso   1.00
C66    C     0.41606   0.19537   0.48936   0.00000  Uiso   1.00
C67    C     0.51894   0.14846   0.12934   0.00000  Uiso   1.00
C68    C     0.48239   0.18508   0.37084   0.00000  Uiso   1.00
C69    C     0.58315   0.14181   0.01105   0.00000  Uiso   1.00
C70    C     0.52838   0.14300   0.08091   0.00000  Uiso   1.00
C71    C     0.43042   0.19835   0.44341   0.00000  Uiso   1.00
C72    C     0.44224   0.18265   0.01282   0.00000  Uiso   1.00
C73    C     0.48464   0.17433   0.49086   0.00000  Uiso   1.00
C74    C     0.50020   0.18029   0.44426   0.00000  Uiso   1.00
C75    C     0.51224   0.16058   0.01354   0.00000  Uiso   1.00
C76    C     0.55513   0.15479   0.48958   0.00000  Uiso   1.00
C77    C     0.57049   0.16385   0.44492   0.00000  Uiso   1.00
C78    C     0.54383   0.17728   0.42289   0.00000  Uiso   1.00
H79    H     0.59291   0.12927   0.07343   0.00000  Uiso   1.00
H80    H     0.38379   0.20166   0.00678   0.00000  Uiso   1.00
H81    H     0.55837   0.18617   0.38910   0.00000  Uiso   1.00
H82    H     0.65210   0.14194   0.29146   0.00000  Uiso   1.00
H83    H     0.54024   0.00386   0.21058   0.00000  Uiso   1.00
H84    H     0.45899   0.33126   0.28974   0.00000  Uiso   1.00
H85    H     0.60364   0.16122   0.42701   0.00000  Uiso   1.00
H86    H     0.61588   0.13755   0.49298   0.00000  Uiso   1.00
H87    H     0.46789   0.15849   0.08037   0.00000  Uiso   1.00
H88    H     0.40832   0.20586   0.42575   0.00000  Uiso   1.00
H89    H     0.42830   0.18002   0.04813   0.00000  Uiso   1.00
O90    O     0.50000   0.16667   0.25000   0.00000  Uiso   1.00
O91    O     0.48784   0.12637   0.15458   0.00000  Uiso   1.00
O92    O     0.46274   0.20391   0.34968   0.00000  Uiso   1.00
O93    O     0.54157   0.17759   0.14606   0.00000  Uiso   1.00
O94    O     0.50785   0.15880   0.34968   0.00000  Uiso   1.00
O95    O     0.51264   0.08019   0.28213   0.00000  Uiso   1.00
O96    O     0.47965   0.26085   0.27013   0.00000  Uiso   1.00
O97    O     0.40745   0.13291   0.23413   0.00000  Uiso   1.00
O98    O     0.60026   0.19272   0.21360   0.00000  Uiso   1.00
O99    O     0.40405   0.18878   0.28213   0.00000  Uiso   1.00
O100   O     0.58824   0.15226   0.27013   0.00000  Uiso   1.00
O101   O     0.47093   0.06944   0.23413   0.00000  Uiso   1.00
O102   O     0.53678   0.25620   0.21360   0.00000  Uiso   1.00
Zn103  Zn    0.52672   0.13994   0.28734   0.00000  Uiso   1.00
Zn104  Zn    0.46713   0.12458   0.21875   0.00000  Uiso   1.00
Zn105  Zn    0.54389   0.19775   0.20657   0.00000  Uiso   1.00
Zn106  Zn    0.46226   0.20439   0.28733   0.00000  Uiso   1.00
Br107  Br    0.69959   0.20576   0.18626   0.00000  Uiso   1.00
C108   C     0.71941   0.15959   0.26030   0.00000  Uiso   1.00
C109   C     0.83261   0.15349   0.05953   0.00000  Uiso   1.00
C110   C     0.90334   0.13657   0.05663   0.00000  Uiso   1.00
C111   C     0.94759   0.17383   0.23976   0.00000  Uiso   1.00
C112   C     0.80517   0.18965   0.42018   0.00000  Uiso   1.00
C113   C     0.99370   0.17632   0.23472   0.00000  Uiso   1.00
C114   C     0.67425   0.15795   0.26379   0.00000  Uiso   1.00
C115   C     0.84731   0.32258   0.23618   0.00000  Uiso   1.00
C116   C     0.81887   0.01177   0.26394   0.00000  Uiso   1.00
C117   C     0.82299   0.05591   0.26012   0.00000  Uiso   1.00
C118   C     0.84334   0.27797   0.24007   0.00000  Uiso   1.00
C119   C     0.74940   0.19537   0.48936   0.00000  Uiso   1.00
C120   C     0.85227   0.14846   0.12934   0.00000  Uiso   1.00
C121   C     0.81572   0.18508   0.37084   0.00000  Uiso   1.00
C122   C     0.91648   0.14181   0.01105   0.00000  Uiso   1.00
C123   C     0.86172   0.14300   0.08091   0.00000  Uiso   1.00
C124   C     0.76375   0.19835   0.44341   0.00000  Uiso   1.00
C125   C     0.77558   0.18265   0.01282   0.00000  Uiso   1.00
C126   C     0.81797   0.17433   0.49086   0.00000  Uiso   1.00
C127   C     0.83354   0.18029   0.44426   0.00000  Uiso   1.00
C128   C     0.84557   0.16058   0.01354   0.00000  Uiso   1.00
C129   C     0.88846   0.15479   0.48958   0.00000  Uiso   1.00
C130   C     0.90382   0.16385   0.44492   0.00000  Uiso   1.00
C131   C     0.87716   0.17728   0.42289   0.00000  Uiso   1.00
H132   H     0.92624   0.12927   0.07343   0.00000  Uiso   1.00
H133   H     0.71713   0.20166   0.00678   0.00000  Uiso   1.00
H134   H     0.89171   0.18617   0.38910   0.00000  Uiso   1.00
H135   H     0.98544   0.14194   0.29146   0.00000  Uiso   1.00
H136   H     0.87357   0.00386   0.21058   0.00000  Uiso   1.00
H137   H     0.79233   0.33126   0.28974   0.00000  Uiso   1.00
H138   H     0.93698   0.16122   0.42701   0.00000  Uiso   1.00
H139   H     0.94922   0.13755   0.49298   0.00000  Uiso   1.00
H140   H     0.80122   0.15849   0.08037   0.00000  Uiso   1.00
H141   H     0.74165   0.20586   0.42575   0.00000  Uiso   1.00
H142   H     0.76163   0.18002   0.04813   0.00000  Uiso   1.00
O143   O     0.83333   0.16667   0.25000   0.00000  Uiso   1.00
O144   O     0.82118   0.12637   0.15458   0.00000  Uiso   1.00
O145   O     0.79607   0.20391   0.34968   0.00000  Uiso   1.00
O146   O     0.87491   0.17759   0.14606   0.00000  Uiso   1.00
O147   O     0.84118   0.15880   0.34968   0.00000  Uiso   1.00
O148   O     0.84597   0.08019   0.28213   0.00000  Uiso   1.00
O149   O     0.81298   0.26085   0.27013   0.00000  Uiso   1.00
O150   O     0.74078   0.13291   0.23413   0.00000  Uiso   1.00
O151   O     0.93360   0.19272   0.21360   0.00000  Uiso   1.00
O152   O     0.73738   0.18878   0.28213   0.00000  Uiso   1.00
O153   O     0.92158   0.15226   0.27013   0.00000  Uiso   1.00
O154   O     0.80426   0.06944   0.23413   0.00000  Uiso   1.00
O155   O     0.87012   0.25620   0.21360   0.00000  Uiso   1.00
Zn156  Zn    0.86005   0.13994   0.28734   0.00000  Uiso   1.00
Zn157  Zn    0.80046   0.12458   0.21875   0.00000  Uiso   1.00
Zn158  Zn    0.87723   0.19775   0.20657   0.00000  Uiso   1.00
Zn159  Zn    0.79560   0.20439   0.28733   0.00000  Uiso   1.00
Br160  Br    0.03292   0.53909   0.18626   0.00000  Uiso   1.00
C161   C     0.05274   0.49292   0.26030   0.00000  Uiso   1.00
C162   C     0.16594   0.48682   0.05953   0.00000  Uiso   1.00
C163   C     0.23668   0.46990   0.05663   0.00000  Uiso   1.00
C164   C     0.28093   0.50717   0.23976   0.00000  Uiso   1.00
C165   C     0.13851   0.52298   0.42018   0.00000  Uiso   1.00
C166   C     0.32704   0.50965   0.23472   0.00000  Uiso   1.00
C167   C     0.00759   0.49129   0.26379   0.00000  Uiso   1.00
C168   C     0.18064   0.65591   0.23618   0.00000  Uiso   1.00
C169   C     0.15220   0.34511   0.26394   0.00000  Uiso   1.00
C170   C     0.15633   0.38924   0.26012   0.00000  Uiso   1.00
C171   C     0.17668   0.61131   0.24007   0.00000  Uiso   1.00
C172   C     0.08273   0.52870   0.48936   0.00000  Uiso   1.00
C173   C     0.18561   0.48179   0.12934   0.00000  Uiso   1.00
C174   C     0.14905   0.51841   0.37084   0.00000  Uiso   1.00
C175   C     0.24981   0.47514   0.01105   0.00000  Uiso   1.00
C176   C     0.19505   0.47633   0.08091   0.00000  Uiso   1.00
C177   C     0.09708   0.53168   0.44341   0.00000  Uiso   1.00
C178   C     0.10891   0.51598   0.01282   0.00000  Uiso   1.00
C179   C     0.15130   0.50766   0.49086   0.00000  Uiso   1.00
C180   C     0.16687   0.51363   0.44426   0.00000  Uiso   1.00
C181   C     0.17891   0.49392   0.01354   0.00000  Uiso   1.00
C182   C     0.22180   0.48813   0.48958   0.00000  Uiso   1.00
C183   C     0.23716   0.49719   0.44492   0.00000  Uiso   1.00
C184   C     0.21050   0.51062   0.42289   0.00000  Uiso   1.00
H185   H     0.25957   0.46260   0.07343   0.00000  Uiso   1.00
H186   H     0.05046   0.53500   0.00678   0.00000  Uiso   1.00
H187   H     0.22504   0.51951   0.38910   0.00000  Uiso   1.00
H188   H     0.31877   0.47527   0.29146   0.00000  Uiso   1.00
H189   H     0.20690   0.33719   0.21058   0.00000  Uiso   1.00
H190   H     0.12566   0.66459   0.28974   0.00000  Uiso   1.00
H191   H     0.27031   0.49455   0.42701   0.00000  Uiso   1.00
H192   H     0.28255   0.47088   0.49298   0.00000  Uiso   1.00
H193   H     0.13456   0.49182   0.08037   0.00000  Uiso   1.00
H194   H     0.07498   0.53919   0.42575   0.00000  Uiso   1.00
H195   H     0.09497   0.51335   0.04813   0.00000  Uiso   1.00
O196   O     0.16667   0.50000   0.25000   0.00000  Uiso   1.00
O197   O     0.15451   0.45970   0.15458   0.00000  Uiso   1.00
O198   O     0.12940   0.53724   0.34968   0.00000  Uiso   1.00
O199   O     0.20824   0.51092   0.14606   0.00000  Uiso   1.00
O200   O     0.17451   0.49213   0.34968   0.00000  Uiso   1.00
O201   O     0.17930   0.41352   0.28213   0.00000  Uiso   1.00
O202   O     0.14632   0.59418   0.27013   0.00000  Uiso   1.00
O203   O     0.07412   0.46625   0.23413   0.00000  Uiso   1.00
O204   O     0.26693   0.52605   0.21360   0.00000  Uiso   1.00
O205   O     0.07071   0.52211   0.28213   0.00000  Uiso   1.00
O206   O     0.25491   0.48559   0.27013   0.00000  Uiso   1.00
O207   O     0.13760   0.40277   0.23413   0.00000  Uiso   1.00
O208   O     0.20345   0.58953   0.21360   0.00000  Uiso   1.00
Zn209  Zn    0.19338   0.47327   0.28734   0.00000  Uiso   1.00
Zn210  Zn    0.13379   0.45791   0.21875   0.00000  Uiso   1.00
Zn211  Zn    0.21056   0.53109   0.20657   0.00000  Uiso   1.00
Zn212  Zn    0.12893   0.53773   0.28733   0.00000  Uiso   1.00
Br213  Br    0.36626   0.53909   0.18626   0.00000  Uiso   1.00
C214   C     0.38608   0.49292   0.26030   0.00000  Uiso   1.00
C215   C     0.49928   0.48682   0.05953   0.00000  Uiso   1.00
C216   C     0.57001   0.46990   0.05663   0.00000  Uiso   1.00
C217   C     0.61426   0.50717   0.23976   0.00000  Uiso   1.00
C218   C     0.47184   0.52298   0.42018   0.00000  Uiso   1.00
C219   C     0.66037   0.50965   0.23472   0.00000  Uiso   1.00
C220   C     0.34092   0.49129   0.26379   0.00000  Uiso   1.00
C221   C     0.51397   0.65591   0.23618   0.00000  Uiso   1.00
C222   C     0.48553   0.34511   0.26394   0.00000  Uiso   1.00
C223   C     0.48966   0.38924   0.26012   0.00000  Uiso   1.00
C224   C     0.51001   0.61131   0.24007   0.00000  Uiso   1.00
C225   C     0.41606   0.52870   0.48936   0.00000  Uiso   1.00
C226   C     0.51894   0.48179   0.12934   0.00000  Uiso   1.00
C227   C     0.48239   0.51841   0.37084   0.00000  Uiso   1.00
C228   C     0.58315   0.47514   0.01105   0.00000  Uiso   1.00
C229   C     0.52838   0.47633   0.08091   0.00000  Uiso   1.00
C230   C     0.43042   0.53168   0.44341   0.00000  Uiso   1.00
C231   C     0.44224   0.51598   0.01282   0.00000  Uiso   1.00
C232   C     0.48464   0.50766   0.49086   0.00000  Uiso   1.00
C233   C     0.50020   0.51363   0.44426   0.00000  Uiso   1.00
C234   C     0.51224   0.49392   0.01354   0.00000  Uiso   1.00
C235   C     0.55513   0.48813   0.48958   0.00000  Uiso   1.00
C236   C     0.57049   0.49719   0.44492   0.00000  Uiso   1.00
C237   C     0.54383   0.51062   0.42289   0.00000  Uiso   1.00
H238   H     0.59291   0.46260   0.07343   0.00000  Uiso   1.00
H239   H     0.38379   0.53500   0.00678   0.00000  Uiso   1.00
H240   H     0.55837   0.51951   0.38910   0.00000  Uiso   1.00
H241   H     0.65210   0.47527   0.29146   0.00000  Uiso   1.00
H242   H     0.54024   0.33719   0.21058   0.00000  Uiso   1.00
H243   H     0.45899   0.66459   0.28974   0.00000  Uiso   1.00
H244   H     0.60364   0.49455   0.42701   0.00000  Uiso   1.00
H245   H     0.61588   0.47088   0.49298   0.00000  Uiso   1.00
H246   H     0.46789   0.49182   0.08037   0.00000  Uiso   1.00
H247   H     0.40832   0.53919   0.42575   0.00000  Uiso   1.00
H248   H     0.42830   0.51335   0.04813   0.00000  Uiso   1.00
O249   O     0.50000   0.50000   0.25000   0.00000  Uiso   1.00
O250   O     0.48784   0.45970   0.15458   0.00000  Uiso   1.00
O251   O     0.46274   0.53724   0.34968   0.00000  Uiso   1.00
O252   O     0.54157   0.51092   0.14606   0.00000  Uiso   1.00
O253   O     0.50785   0.49213   0.34968   0.00000  Uiso   1.00
O254   O     0.51264   0.41352   0.28213   0.00000  Uiso   1.00
O255   O     0.47965   0.59418   0.27013   0.00000  Uiso   1.00
O256   O     0.40745   0.46625   0.23413   0.00000  Uiso   1.00
O257   O     0.60026   0.52605   0.21360   0.00000  Uiso   1.00
O258   O     0.40405   0.52211   0.28213   0.00000  Uiso   1.00
O259   O     0.58824   0.48559   0.27013   0.00000  Uiso   1.00
O260   O     0.47093   0.40277   0.23413   0.00000  Uiso   1.00
O261   O     0.53678   0.58953   0.21360   0.00000  Uiso   1.00
Zn262  Zn    0.52672   0.47327   0.28734   0.00000  Uiso   1.00
Zn263  Zn    0.46713   0.45791   0.21875   0.00000  Uiso   1.00
Zn264  Zn    0.54389   0.53109   0.20657   0.00000  Uiso   1.00
Zn265  Zn    0.46226   0.53773   0.28733   0.00000  Uiso   1.00
Br266  Br    0.69959   0.53909   0.18626   0.00000  Uiso   1.00
C267   C     0.71941   0.49292   0.26030   0.00000  Uiso   1.00
C268   C     0.83261   0.48682   0.05953   0.00000  Uiso   1.00
C269   C     0.90334   0.46990   0.05663   0.00000  Uiso   1.00
C270   C     0.94759   0.50717   0.23976   0.00000  Uiso   1.00
C271   C     0.80517   0.52298   0.42018   0.00000  Uiso   1.00
C272   C     0.99370   0.50965   0.23472   0.00000  Uiso   1.00
C273   C     0.67425   0.49129   0.26379   0.00000  Uiso   1.00
C274   C     0.84731   0.65591   0.23618   0.00000  Uiso   1.00
C275   C     0.81887   0.34511   0.26394   0.00000  Uiso   1.00
C276   C     0.82299   0.38924   0.26012   0.00000  Uiso   1.00
C277   C     0.84334   0.61131   0.24007   0.00000  Uiso   1.00
C278   C     0.74940   0.52870   0.48936   0.00000  Uiso   1.00
C279   C     0.85227   0.48179   0.12934   0.00000  Uiso   1.00
C280   C     0.81572   0.51841   0.37084   0.00000  Uiso   1.00
C281   C     0.91648   0.47514   0.01105   0.00000  Uiso   1.00
C282   C     0.86172   0.47633   0.08091   0.00000  Uiso   1.00
C283   C     0.76375   0.53168   0.44341   0.00000  Uiso   1.00
C284   C     0.77558   0.51598   0.01282   0.00000  Uiso   1.00
C285   C     0.81797   0.50766   0.49086   0.00000  Uiso   1.00
C286   C     0.83354   0.51363   0.44426   0.00000  Uiso   1.00
C287   C     0.84557   0.49392   0.01354   0.00000  Uiso   1.00
C288   C     0.88846   0.48813   0.48958   0.00000  Uiso   1.00
C289   C     0.90382   0.49719   0.44492   0.00000  Uiso   1.00
C290   C     0.87716   0.51062   0.42289   0.00000  Uiso   1.00
H291   H     0.92624   0.46260   0.07343   0.00000  Uiso   1.00
H292   H     0.71713   0.53500   0.00678   0.00000  Uiso   1.00
H293   H     0.89171   0.51951   0.38910   0.00000  Uiso   1.00
H294   H     0.98544   0.47527   0.29146   0.00000  Uiso   1.00
H295   H     0.87357   0.33719   0.21058   0.00000  Uiso   1.00
H296   H     0.79233   0.66459   0.28974   0.00000  Uiso   1.00
H297   H     0.93698   0.49455   0.42701   0.00000  Uiso   1.00
H298   H     0.94922   0.47088   0.49298   0.00000  Uiso   1.00
H299   H     0.80122   0.49182   0.08037   0.00000  Uiso   1.00
H300   H     0.74165   0.53919   0.42575   0.00000  Uiso   1.00
H301   H     0.76163   0.51335   0.04813   0.00000  Uiso   1.00
O302   O     0.83333   0.50000   0.25000   0.00000  Uiso   1.00
O303   O     0.82118   0.45970   0.15458   0.00000  Uiso   1.00
O304   O     0.79607   0.53724   0.34968   0.00000  Uiso   1.00
O305   O     0.87491   0.51092   0.14606   0.00000  Uiso   1.00
O306   O     0.84118   0.49213   0.34968   0.00000  Uiso   1.00
O307   O     0.84597   0.41352   0.28213   0.00000  Uiso   1.00
O308   O     0.81298   0.59418   0.27013   0.00000  Uiso   1.00
O309   O     0.74078   0.46625   0.23413   0.00000  Uiso   1.00
O310   O     0.93360   0.52605   0.21360   0.00000  Uiso   1.00
O311   O     0.73738   0.52211   0.28213   0.00000  Uiso   1.00
O312   O     0.92158   0.48559   0.27013   0.00000  Uiso   1.00
O313   O     0.80426   0.40277   0.23413   0.00000  Uiso   1.00
O314   O     0.87012   0.58953   0.21360   0.00000  Uiso   1.00
Zn315  Zn    0.86005   0.47327   0.28734   0.00000  Uiso   1.00
Zn316  Zn    0.80046   0.45791   0.21875   0.00000  Uiso   1.00
Zn317  Zn    0.87723   0.53109   0.20657   0.00000  Uiso   1.00
Zn318  Zn    0.79560   0.53773   0.28733   0.00000  Uiso   1.00
Br319  Br    0.03292   0.87242   0.18626   0.00000  Uiso   1.00
C320   C     0.05274   0.82626   0.26030   0.00000  Uiso   1.00
C321   C     0.16594   0.82015   0.05953   0.00000  Uiso   1.00
C322   C     0.23668   0.80323   0.05663   0.00000  Uiso   1.00
C323   C     0.28093   0.84050   0.23976   0.00000  Uiso   1.00
C324   C     0.13851   0.85631   0.42018   0.00000  Uiso   1.00
C325   C     0.32704   0.84299   0.23472   0.00000  Uiso   1.00
C326   C     0.00759   0.82462   0.26379   0.00000  Uiso   1.00
C327   C     0.18064   0.98925   0.23618   0.00000  Uiso   1.00
C328   C     0.15220   0.67844   0.26394   0.00000  Uiso   1.00
C329   C     0.15633   0.72257   0.26012   0.00000  Uiso   1.00
C330   C     0.17668   0.94464   0.24007   0.00000  Uiso   1.00
C331   C     0.08273   0.86203   0.48936   0.00000  Uiso   1.00
C332   C     0.18561   0.81513   0.12934   0.00000  Uiso   1.00
C333   C     0.14905   0.85175   0.37084   0.00000  Uiso   1.00
C334   C     0.24981   0.80847   0.01105   0.00000  Uiso   1.00
C335   C     0.19505   0.80967   0.08091   0.00000  Uiso   1.00
C336   C     0.09708   0.86502   0.44341   0.00000  Uiso   1.00
C337   C     0.10891   0.84932   0.01282   0.00000  Uiso   1.00
C338   C     0.15130   0.84099   0.49086   0.00000  Uiso   1.00
C339   C     0.16687   0.84696   0.44426   0.00000  Uiso   1.00
C340   C     0.17891   0.82725   0.01354   0.00000  Uiso   1.00
C341   C     0.22180   0.82146   0.48958   0.00000  Uiso   1.00
C342   C     0.23716   0.83052   0.44492   0.00000  Uiso   1.00
C343   C     0.21050   0.84395   0.42289   0.00000  Uiso   1.00
H344   H     0.25957   0.79594   0.07343   0.00000  Uiso   1.00
H345   H     0.05046   0.86833   0.00678   0.00000  Uiso   1.00
H346   H     0.22504   0.85284   0.38910   0.00000  Uiso   1.00
H347   H     0.31877   0.80860   0.29146   0.00000  Uiso   1.00
H348   H     0.20690   0.67053   0.21058   0.00000  Uiso   1.00
H349   H     0.12566   0.99792   0.28974   0.00000  Uiso   1.00
H350   H     0.27031   0.82789   0.42701   0.00000  Uiso   1.00
H351   H     0.28255   0.80421   0.49298   0.00000  Uiso   1.00
H352   H     0.13456   0.82515   0.08037   0.00000  Uiso   1.00
H353   H     0.07498   0.87252   0.42575   0.00000  Uiso   1.00
H354   H     0.09497   0.84668   0.04813   0.00000  Uiso   1.00
O355   O     0.16667   0.83333   0.25000   0.00000  Uiso   1.00
O356   O     0.15451   0.79304   0.15458   0.00000  Uiso   1.00
O357   O     0.12940   0.87058   0.34968   0.00000  Uiso   1.00
O358   O     0.20824   0.84425   0.14606   0.00000  Uiso   1.00
O359   O     0.17451   0.82546   0.34968   0.00000  Uiso   1.00
O360   O     0.17930   0.74686   0.28213   0.00000  Uiso   1.00
O361   O     0.14632   0.92751   0.27013   0.00000  Uiso   1.00
O362   O     0.07412   0.79958   0.23413   0.00000  Uiso   1.00
O363   O     0.26693   0.85939   0.21360   0.00000  Uiso   1.00
O364   O     0.07071   0.85544   0.28213   0.00000  Uiso   1.00
O365   O     0.25491   0.81892   0.27013   0.00000  Uiso   1.00
O366   O     0.13760   0.73610   0.23413   0.00000  Uiso   1.00
O367   O     0.20345   0.92286   0.21360   0.00000  Uiso   1.00
Zn368  Zn    0.19338   0.80661   0.28734   0.00000  Uiso   1.00
Zn369  Zn    0.13379   0.79124   0.21875   0.00000  Uiso   1.00
Zn370  Zn    0.21056   0.86442   0.20657   0.00000  Uiso   1.00
Zn371  Zn    0.12893   0.87106   0.28733   0.00000  Uiso   1.00
Br372  Br    0.36626   0.87242   0.18626   0.00000  Uiso   1.00
C373   C     0.38608   0.82626   0.26030   0.00000  Uiso   1.00
C374   C     0.49928   0.82015   0.05953   0.00000  Uiso   1.00
C375   C     0.57001   0.80323   0.05663   0.00000  Uiso   1.00
C376   C     0.61426   0.84050   0.23976   0.00000  Uiso   1.00
C377   C     0.47184   0.85631   0.42018   0.00000  Uiso   1.00
C378   C     0.66037   0.84299   0.23472   0.00000  Uiso   1.00
C379   C     0.34092   0.82462   0.26379   0.00000  Uiso   1.00
C380   C     0.51397   0.98925   0.23618   0.00000  Uiso   1.00
C381   C     0.48553   0.67844   0.26394   0.00000  Uiso   1.00
C382   C     0.48966   0.72257   0.26012   0.00000  Uiso   1.00
C383   C     0.51001   0.94464   0.24007   0.00000  Uiso   1.00
C384   C     0.41606   0.86203   0.48936   0.00000  Uiso   1.00
C385   C     0.51894   0.81513   0.12934   0.00000  Uiso   1.00
C386   C     0.48239   0.85175   0.37084   0.00000  Uiso   1.00
C387   C     0.58315   0.80847   0.01105   0.00000  Uiso   1.00
C388   C     0.52838   0.80967   0.08091   0.00000  Uiso   1.00
C389   C     0.43042   0.86502   0.44341   0.00000  Uiso   1.00
C390   C     0.44224   0.84932   0.01282   0.00000  Uiso   1.00
C391   C     0.48464   0.84099   0.49086   0.00000  Uiso   1.00
C392   C     0.50020   0.84696   0.44426   0.00000  Uiso   1.00
C393   C     0.51224   0.82725   0.01354   0.00000  Uiso   1.00
C394   C     0.55513   0.82146   0.48958   0.00000  Uiso   1.00
C395   C     0.57049   0.83052   0.44492   0.00000  Uiso   1.00
C396   C     0.54383   0.84395   0.42289   0.00000  Uiso   1.00
H397   H     0.59291   0.79594   0.07343   0.00000  Uiso   1.00
H398   H     0.38379   0.86833   0.00678   0.00000  Uiso   1.00
H399   H     0.55837   0.85284   0.38910   0.00000  Uiso   1.00
H400   H     0.65210   0.80860   0.29146   0.00000  Uiso   1.00
H401   H     0.54024   0.67053   0.21058   0.00000  Uiso   1.00
H402   H     0.45899   0.99792   0.28974   0.00000  Uiso   1.00
H403   H     0.60364   0.82789   0.42701   0.00000  Uiso   1.00
H404   H     0.61588   0.80421   0.49298   0.00000  Uiso   1.00
H405   H     0.46789   0.82515   0.08037   0.00000  Uiso   1.00
H406   H     0.40832   0.87252   0.42575   0.00000  Uiso   1.00
H407   H     0.42830   0.84668   0.04813   0.00000  Uiso   1.00
O408   O     0.50000   0.83333   0.25000   0.00000  Uiso   1.00
O409   O     0.48784   0.79304   0.15458   0.00000  Uiso   1.00
O410   O     0.46274   0.87058   0.34968   0.00000  Uiso   1.00
O411   O     0.54157   0.84425   0.14606   0.00000  Uiso   1.00
O412   O     0.50785   0.82546   0.34968   0.00000  Uiso   1.00
O413   O     0.51264   0.74686   0.28213   0.00000  Uiso   1.00
O414   O     0.47965   0.92751   0.27013   0.00000  Uiso   1.00
O415   O     0.40745   0.79958   0.23413   0.00000  Uiso   1.00
O416   O     0.60026   0.85939   0.21360   0.00000  Uiso   1.00
O417   O     0.40405   0.85544   0.28213   0.00000  Uiso   1.00
O418   O     0.58824   0.81892   0.27013   0.00000  Uiso   1.00
O419   O     0.47093   0.73610   0.23413   0.00000  Uiso   1.00
O420   O     0.53678   0.92286   0.21360   0.00000  Uiso   1.00
Zn421  Zn    0.52672   0.80661   0.28734   0.00000  Uiso   1.00
Zn422  Zn    0.46713   0.79124   0.21875   0.00000  Uiso   1.00
Zn423  Zn    0.54389   0.86442   0.20657   0.00000  Uiso   1.00
Zn424  Zn    0.46226   0.87106   0.28733   0.00000  Uiso   1.00
Br425  Br    0.69959   0.87242   0.18626   0.00000  Uiso   1.00
C426   C     0.71941   0.82626   0.26030   0.00000  Uiso   1.00
C427   C     0.83261   0.82015   0.05953   0.00000  Uiso   1.00
C428   C     0.90334   0.80323   0.05663   0.00000  Uiso   1.00
C429   C     0.94759   0.84050   0.23976   0.00000  Uiso   1.00
C430   C     0.80517   0.85631   0.42018   0.00000  Uiso   1.00
C431   C     0.99370   0.84299   0.23472   0.00000  Uiso   1.00
C432   C     0.67425   0.82462   0.26379   0.00000  Uiso   1.00
C433   C     0.84731   0.98925   0.23618   0.00000  Uiso   1.00
C434   C     0.81887   0.67844   0.26394   0.00000  Uiso   1.00
C435   C     0.82299   0.72257   0.26012   0.00000  Uiso   1.00
C436   C     0.84334   0.94464   0.24007   0.00000  Uiso   1.00
C437   C     0.74940   0.86203   0.48936   0.00000  Uiso   1.00
C438   C     0.85227   0.81513   0.12934   0.00000  Uiso   1.00
C439   C     0.81572   0.85175   0.37084   0.00000  Uiso   1.00
C440   C     0.91648   0.80847   0.01105   0.00000  Uiso   1.00
C441   C     0.86172   0.80967   0.08091   0.00000  Uiso   1.00
C442   C     0.76375   0.86502   0.44341   0.00000  Uiso   1.00
C443   C     0.77558   0.84932   0.01282   0.00000  Uiso   1.00
C444   C     0.81797   0.84099   0.49086   0.00000  Uiso   1.00
C445   C     0.83354   0.84696   0.44426   0.00000  Uiso   1.00
C446   C     0.84557   0.82725   0.01354   0.00000  Uiso   1.00
C447   C     0.88846   0.82146   0.48958   0.00000  Uiso   1.00
C448   C     0.90382   0.83052   0.44492   0.00000  Uiso   1.00
C449   C     0.87716   0.84395   0.42289   0.00000  Uiso   1.00
H450   H     0.92624   0.79594   0.07343   0.00000  Uiso   1.00
H451   H     0.71713   0.86833   0.00678   0.00000  Uiso   1.00
H452   H     0.89171   0.85284   0.38910   0.00000  Uiso   1.00
H453   H     0.98544   0.80860   0.29146   0.00000  Uiso   1.00
H454   H     0.87357   0.67053   0.21058   0.00000  Uiso   1.00
H455   H     0.79233   0.99792   0.28974   0.00000  Uiso   1.00
H456   H     0.93698   0.82789   0.42701   0.00000  Uiso   1.00
H457   H     0.94922   0.80421   0.49298   0.00000  Uiso   1.00
H458   H     0.80122   0.82515   0.08037   0.00000  Uiso   1.00
H459   H     0.74165   0.87252   0.42575   0.00000  Uiso   1.00
H460   H     0.76163   0.84668   0.04813   0.00000  Uiso   1.00
O461   O     0.83333   0.83333   0.25000   0.00000  Uiso   1.00
O462   O     0.82118   0.79304   0.15458   0.00000  Uiso   1.00
O463   O     0.79607   0.87058   0.34968   0.00000  Uiso   1.00
O464   O     0.87491   0.84425   0.14606   0.00000  Uiso   1.00
O465   O     0.84118   0.82546   0.34968   0.00000  Uiso   1.00
O466   O     0.84597   0.74686   0.28213   0.00000  Uiso   1.00
O467   O     0.81298   0.92751   0.27013   0.00000  Uiso   1.00
O468   O     0.74078   0.79958   0.23413   0.00000  Uiso   1.00
O469   O     0.93360   0.85939   0.21360   0.00000  Uiso   1.00
O470   O     0.73738   0.85544   0.28213   0.00000  Uiso   1.00
O471   O     0.92158   0.81892   0.27013   0.00000  Uiso   1.00
O472   O     0.80426   0.73610   0.23413   0.00000  Uiso   1.00
O473   O     0.87012   0.92286   0.21360   0.00000  Uiso   1.00
Zn474  Zn    0.86005   0.80661   0.28734   0.00000  Uiso   1.00
Zn475  Zn    0.80046   0.79124   0.21875   0.00000  Uiso   1.00
Zn476  Zn    0.87723   0.86442   0.20657   0.00000  Uiso   1.00
Zn477  Zn    0.79560   0.87106   0.28733   0.00000  Uiso   1.00
Br478  Br    0.03292   0.20576   0.68626   0.00000  Uiso   1.00
C479   C     0.05274   0.15959   0.76030   0.00000  Uiso   1.00
C480   C     0.16594   0.15349   0.55953   0.00000  Uiso   1.00
C481   C     0.23668   0.13657   0.55663   0.00000  Uiso   1.00
C482   C     0.28093   0.17383   0.73976   0.00000  Uiso   1.00
C483   C     0.13851   0.18965   0.92018   0.00000  Uiso   1.00
C484   C     0.32704   0.17632   0.73472   0.00000  Uiso   1.00
C485   C     0.00759   0.15795   0.76379   0.00000  Uiso   1.00
C486   C     0.18064   0.32258   0.73618   0.00000  Uiso   1.00
C487   C     0.15220   0.01177   0.76394   0.00000  Uiso   1.00
C488   C     0.15633   0.05591   0.76012   0.00000  Uiso   1.00
C489   C     0.17668   0.27797   0.74007   0.00000  Uiso   1.00
C490   C     0.08273   0.19537   0.98936   0.00000  Uiso   1.00
C491   C     0.18561   0.14846   0.62934   0.00000  Uiso   1.00
C492   C     0.14905   0.18508   0.87084   0.00000  Uiso   1.00
C493   C     0.24981   0.14181   0.51105   0.00000  Uiso   1.00
C494   C     0.19505   0.14300   0.58091   0.00000  Uiso   1.00
C495   C     0.09708   0.19835   0.94341   0.00000  Uiso   1.00
C496   C     0.10891   0.18265   0.51282   0.00000  Uiso   1.00
C497   C     0.15130   0.17433   0.99086   0.00000  Uiso   1.00
C498   C     0.16687   0.18029   0.94426   0.00000  Uiso   1.00
C499   C     0.17891   0.16058   0.51354   0.00000  Uiso   1.00
C500   C     0.22180   0.15479   0.98958   0.00000  Uiso   1.00
C501   C     0.23716   0.16385   0.94492   0.00000  Uiso   1.00
C502   C     0.21050   0.17728   0.92289   0.00000  Uiso   1.00
H503   H     0.25957   0.12927   0.57343   0.00000  Uiso   1.00
H504   H     0.05046   0.20166   0.50678   0.00000  Uiso   1.00
H505   H     0.22504   0.18617   0.88910   0.00000  Uiso   1.00
H506   H     0.31877   0.14194   0.79146   0.00000  Uiso   1.00
H507   H     0.20690   0.00386   0.71058   0.00000  Uiso   1.00
H508   H     0.12566   0.33126   0.78974   0.00000  Uiso   1.00
H509   H     0.27031   0.16122   0.92701   0.00000  Uiso   1.00
H510   H     0.28255   0.13755   0.99298   0.00000  Uiso   1.00
H511   H     0.13456   0.15849   0.58037   0.00000  Uiso   1.00
H512   H     0.07498   0.20586   0.92575   0.00000  Uiso   1.00
H513   H     0.09497   0.18002   0.54813   0.00000  Uiso   1.00
O514   O     0.16667   0.16667   0.75000   0.00000  Uiso   1.00
O515   O     0.15451   0.12637   0.65458   0.00000  Uiso   1.00
O516   O     0.12940   0.20391   0.84968   0.00000  Uiso   1.00
O517   O     0.20824   0.17759   0.64606   0.00000  Uiso   1.00
O518   O     0.17451   0.15880   0.84968   0.00000  Uiso   1.00
O519   O     0.17930   0.08019   0.78213   0.00000  Uiso   1.00
O520   O     0.14632   0.26085   0.77013   0.00000  Uiso   1.00
O521   O     0.07412   0.13291   0.73413   0.00000  Uiso   1.00
O522   O     0.26693   0.19272   0.71360   0.00000  Uiso   1.00
O523   O     0.07071   0.18878   0.78213   0.00000  Uiso   1.00
O524   O     0.25491   0.15226   0.77013   0.00000  Uiso   1.00
O525   O     0.13760   0.06944   0.73413   0.00000  Uiso   1.00
O526   O     0.20345   0.25620   0.71360   0.00000  Uiso   1.00
Zn527  Zn    0.19338   0.13994   0.78734   0.00000  Uiso   1.00
Zn528  Zn    0.13379   0.12458   0.71875   0.00000  Uiso   1.00
Zn529  Zn    0.21056   0.19775   0.70657   0.00000  Uiso   1.00
Zn530  Zn    0.12893   0.20439   0.78733   0.00000  Uiso   1.00
Br531  Br    0.36626   0.20576   0.68626   0.00000  Uiso   1.00
C532   C     0.38608   0.15959   0.76030   0.00000  Uiso   1.00
C533   C     0.49928   0.15349   0.55953   0.00000  Uiso   1.00
C534   C     0.57001   0.13657   0.55663   0.00000  Uiso   1.00
C535   C     0.61426   0.17383   0.73976   0.00000  Uiso   1.00
C536   C     0.47184   0.18965   0.92018   0.00000  Uiso   1.00
C537   C     0.66037   0.17632   0.73472   0.00000  Uiso   1.00
C538   C     0.34092   0.15795   0.76379   0.00000  Uiso   1.00
C539   C     0.51397   0.32258   0.73618   0.00000  Uiso   1.00
C540   C     0.48553   0.01177   0.76394   0.00000  Uiso   1.00
C541   C     0.48966   0.05591   0.76012   0.00000  Uiso   1.00
C542   C     0.51001   0.27797   0.74007   0.00000  Uiso   1.00
C543   C     0.41606   0.19537   0.98936   0.00000  Uiso   1.00
C544   C     0.51894   0.14846   0.62934   0.00000  Uiso   1.00
C545   C     0.48239   0.18508   0.87084   0.00000  Uiso   1.00
C546   C     0.58315   0.14181   0.51105   0.00000  Uiso   1.00
C547   C     0.52838   0.14300   0.58091   0.00000  Uiso   1.00
C548   C     0.43042   0.19835   0.94341   0.00000  Uiso   1.00
C549   C     0.44224   0.18265   0.51282   0.00000  Uiso   1.00
C550   C     0.48464   0.17433   0.99086   0.00000  Uiso   1.00
C551   C     0.50020   0.18029   0.94426   0.00000  Uiso   1.00
C552   C     0.51224   0.16058   0.51354   0.00000  Uiso   1.00
C553   C     0.55513   0.15479   0.98958   0.00000  Uiso   1.00
C554   C     0.57049   0.16385   0.94492   0.00000  Uiso   1.00
C555   C     0.54383   0.17728   0.92289   0.00000  Uiso   1.00
H556   H     0.59291   0.12927   0.57343   0.00000  Uiso   1.00
H557   H     0.38379   0.20166   0.50678   0.00000  Uiso   1.00
H558   H     0.55837   0.18617   0.88910   0.00000  Uiso   1.00
H559   H     0.65210   0.14194   0.79146   0.00000  Uiso   1.00
H560   H     0.54024   0.00386   0.71058   0.00000  Uiso   1.00
H561   H     0.45899   0.33126   0.78974   0.00000  Uiso   1.00
H562   H     0.60364   0.16122   0.92701   0.00000  Uiso   1.00
H563   H     0.61588   0.13755   0.99298   0.00000  Uiso   1.00
H564   H     0.46789   0.15849   0.58037   0.00000  Uiso   1.00
H565   H     0.40832   0.20586   0.92575   0.00000  Uiso   1.00
H566   H     0.42830   0.18002   0.54813   0.00000  Uiso   1.00
O567   O     0.50000   0.16667   0.75000   0.00000  Uiso   1.00
O568   O     0.48784   0.12637   0.65458   0.00000  Uiso   1.00
O569   O     0.46274   0.20391   0.84968   0.00000  Uiso   1.00
O570   O     0.54157   0.17759   0.64606   0.00000  Uiso   1.00
O571   O     0.50785   0.15880   0.84968   0.00000  Uiso   1.00
O572   O     0.51264   0.08019   0.78213   0.00000  Uiso   1.00
O573   O     0.47965   0.26085   0.77013   0.00000  Uiso   1.00
O574   O     0.40745   0.13291   0.73413   0.00000  Uiso   1.00
O575   O     0.60026   0.19272   0.71360   0.00000  Uiso   1.00
O576   O     0.40405   0.18878   0.78213   0.00000  Uiso   1.00
O577   O     0.58824   0.15226   0.77013   0.00000  Uiso   1.00
O578   O     0.47093   0.06944   0.73413   0.00000  Uiso   1.00
O579   O     0.53678   0.25620   0.71360   0.00000  Uiso   1.00
Zn580  Zn    0.52672   0.13994   0.78734   0.00000  Uiso   1.00
Zn581  Zn    0.46713   0.12458   0.71875   0.00000  Uiso   1.00
Zn582  Zn    0.54389   0.19775   0.70657   0.00000  Uiso   1.00
Zn583  Zn    0.46226   0.20439   0.78733   0.00000  Uiso   1.00
Br584  Br    0.69959   0.20576   0.68626   0.00000  Uiso   1.00
C585   C     0.71941   0.15959   0.76030   0.00000  Uiso   1.00
C586   C     0.83261   0.15349   0.55953   0.00000  Uiso   1.00
C587   C     0.90334   0.13657   0.55663   0.00000  Uiso   1.00
C588   C     0.94759   0.17383   0.73976   0.00000  Uiso   1.00
C589   C     0.80517   0.18965   0.92018   0.00000  Uiso   1.00
C590   C     0.99370   0.17632   0.73472   0.00000  Uiso   1.00
C591   C     0.67425   0.15795   0.76379   0.00000  Uiso   1.00
C592   C     0.84731   0.32258   0.73618   0.00000  Uiso   1.00
C593   C     0.81887   0.01177   0.76394   0.00000  Uiso   1.00
C594   C     0.82299   0.05591   0.76012   0.00000  Uiso   1.00
C595   C     0.84334   0.27797   0.74007   0.00000  Uiso   1.00
C596   C     0.74940   0.19537   0.98936   0.00000  Uiso   1.00
C597   C     0.85227   0.14846   0.62934   0.00000  Uiso   1.00
C598   C     0.81572   0.18508   0.87084   0.00000  Uiso   1.00
C599   C     0.91648   0.14181   0.51105   0.00000  Uiso   1.00
C600   C     0.86172   0.14300   0.58091   0.00000  Uiso   1.00
C601   C     0.76375   0.19835   0.94341   0.00000  Uiso   1.00
C602   C     0.77558   0.18265   0.51282   0.00000  Uiso   1.00
C603   C     0.81797   0.17433   0.99086   0.00000  Uiso   1.00
C604   C     0.83354   0.18029   0.94426   0.00000  Uiso   1.00
C605   C     0.84557   0.16058   0.51354   0.00000  Uiso   1.00
C606   C     0.88846   0.15479   0.98958   0.00000  Uiso   1.00
C607   C     0.90382   0.16385   0.94492   0.00000  Uiso   1.00
C608   C     0.87716   0.17728   0.92289   0.00000  Uiso   1.00
H609   H     0.92624   0.12927   0.57343   0.00000  Uiso   1.00
H610   H     0.71713   0.20166   0.50678   0.00000  Uiso   1.00
H611   H     0.89171   0.18617   0.88910   0.00000  Uiso   1.00
H612   H     0.98544   0.14194   0.79146   0.00000  Uiso   1.00
H613   H     0.87357   0.00386   0.71058   0.00000  Uiso   1.00
H614   H     0.79233   0.33126   0.78974   0.00000  Uiso   1.00
H615   H     0.93698   0.16122   0.92701   0.00000  Uiso   1.00
H616   H     0.94922   0.13755   0.99298   0.00000  Uiso   1.00
H617   H     0.80122   0.15849   0.58037   0.00000  Uiso   1.00
H618   H     0.74165   0.20586   0.92575   0.00000  Uiso   1.00
H619   H     0.76163   0.18002   0.54813   0.00000  Uiso   1.00
O620   O     0.83333   0.16667   0.75000   0.00000  Uiso   1.00
O621   O     0.82118   0.12637   0.65458   0.00000  Uiso   1.00
O622   O     0.79607   0.20391   0.84968   0.00000  Uiso   1.00
O623   O     0.87491   0.17759   0.64606   0.00000  Uiso   1.00
O624   O     0.84118   0.15880   0.84968   0.00000  Uiso   1.00
O625   O     0.84597   0.08019   0.78213   0.00000  Uiso   1.00
O626   O     0.81298   0.26085   0.77013   0.00000  Uiso   1.00
O627   O     0.74078   0.13291   0.73413   0.00000  Uiso   1.00
O628   O     0.93360   0.19272   0.71360   0.00000  Uiso   1.00
O629   O     0.73738   0.18878   0.78213   0.00000  Uiso   1.00
O630   O     0.92158   0.15226   0.77013   0.00000  Uiso   1.00
O631   O     0.80426   0.06944   0.73413   0.00000  Uiso   1.00
O632   O     0.87012   0.25620   0.71360   0.00000  Uiso   1.00
Zn633  Zn    0.86005   0.13994   0.78734   0.00000  Uiso   1.00
Zn634  Zn    0.80046   0.12458   0.71875   0.00000  Uiso   1.00
Zn635  Zn    0.87723   0.19775   0.70657   0.00000  Uiso   1.00
Zn636  Zn    0.79560   0.20439   0.78733   0.00000  Uiso   1.00
Br637  Br    0.03292   0.53909   0.68626   0.00000  Uiso   1.00
C638   C     0.05274   0.49292   0.76030   0.00000  Uiso   1.00
C639   C     0.16594   0.48682   0.55953   0.00000  Uiso   1.00
C640   C     0.23668   0.46990   0.55663   0.00000  Uiso   1.00
C641   C     0.28093   0.50717   0.73976   0.00000  Uiso   1.00
C642   C     0.13851   0.52298   0.92018   0.00000  Uiso   1.00
C643   C     0.32704   0.50965   0.73472   0.00000  Uiso   1.00
C644   C     0.00759   0.49129   0.76379   0.00000  Uiso   1.00
C645   C     0.18064   0.65591   0.73618   0.00000  Uiso   1.00
C646   C     0.15220   0.34511   0.76394   0.00000  Uiso   1.00
C647   C     0.15633   0.38924   0.76012   0.00000  Uiso   1.00
C648   C     0.17668   0.61131   0.74007   0.00000  Uiso   1.00
C649   C     0.08273   0.52870   0.98936   0.00000  Uiso   1.00
C650   C     0.18561   0.48179   0.62934   0.00000  Uiso   1.00
C651   C     0.14905   0.51841   0.87084   0.00000  Uiso   1.00
C652   C     0.24981   0.47514   0.51105   0.00000  Uiso   1.00
C653   C     0.19505   0.47633   0.58091   0.00000  Uiso   1.00
C654   C     0.09708   0.53168   0.94341   0.00000  Uiso   1.00
C655   C     0.10891   0.51598   0.51282   0.00000  Uiso   1.00
C656   C     0.15130   0.50766   0.99086   0.00000  Uiso   1.00
C657   C     0.16687   0.51363   0.94426   0.00000  Uiso   1.00
C658   C     0.17891   0.49392   0.51354   0.00000  Uiso   1.00
C659   C     0.22180   0.48813   0.98958   0.00000  Uiso   1.00
C660   C     0.23716   0.49719   0.94492   0.00000  Uiso   1.00
C661   C     0.21050   0.51062   0.92289   0.00000  Uiso   1.00
H662   H     0.25957   0.46260   0.57343   0.00000  Uiso   1.00
H663   H     0.05046   0.53500   0.50678   0.00000  Uiso   1.00
H664   H     0.22504   0.51951   0.88910   0.00000  Uiso   1.00
H665   H     0.31877   0.47527   0.79146   0.00000  Uiso   1.00
H666   H     0.20690   0.33719   0.71058   0.00000  Uiso   1.00
H667   H     0.12566   0.66459   0.78974   0.00000  Uiso   1.00
H668   H     0.27031   0.49455   0.92701   0.00000  Uiso   1.00
H669   H     0.28255   0.47088   0.99298   0.00000  Uiso   1.00
H670   H     0.13456   0.49182   0.58037   0.00000  Uiso   1.00
H671   H     0.07498   0.53919   0.92575   0.00000  Uiso   1.00
H672   H     0.09497   0.51335   0.54813   0.00000  Uiso   1.00
O673   O     0.16667   0.50000   0.75000   0.00000  Uiso   1.00
O674   O     0.15451   0.45970   0.65458   0.00000  Uiso   1.00
O675   O     0.12940   0.53724   0.84968   0.00000  Uiso   1.00
O676   O     0.20824   0.51092   0.64606   0.00000  Uiso   1.00
O677   O     0.17451   0.49213   0.84968   0.00000  Uiso   1.00
O678   O     0.17930   0.41352   0.78213   0.00000  Uiso   1.00
O679   O     0.14632   0.59418   0.77013   0.00000  Uiso   1.00
O680   O     0.07412   0.46625   0.73413   0.00000  Uiso   1.00
O681   O     0.26693   0.52605   0.71360   0.00000  Uiso   1.00
O682   O     0.07071   0.52211   0.78213   0.00000  Uiso   1.00
O683   O     0.25491   0.48559   0.77013   0.00000  Uiso   1.00
O684   O     0.13760   0.40277   0.73413   0.00000  Uiso   1.00
O685   O     0.20345   0.58953   0.71360   0.00000  Uiso   1.00
Zn686  Zn    0.19338   0.47327   0.78734   0.00000  Uiso   1.00
Zn687  Zn    0.13379   0.45791   0.71875   0.00000  Uiso   1.00
Zn688  Zn    0.21056   0.53109   0.70657   0.00000  Uiso   1.00
Zn689  Zn    0.12893   0.53773   0.78733   0.00000  Uiso   1.00
Br690  Br    0.36626   0.53909   0.68626   0.00000  Uiso   1.00
C691   C     0.38608   0.49292   0.76030   0.00000  Uiso   1.00
C692   C     0.49928   0.48682   0.55953   0.00000  Uiso   1.00
C693   C     0.57001   0.46990   0.55663   0.00000  Uiso   1.00
C694   C     0.61426   0.50717   0.73976   0.00000  Uiso   1.00
C695   C     0.47184   0.52298   0.92018   0.00000  Uiso   1.00
C696   C     0.66037   0.50965   0.73472   0.00000  Uiso   1.00
C697   C     0.34092   0.49129   0.76379   0.00000  Uiso   1.00
C698   C     0.51397   0.65591   0.73618   0.00000  Uiso   1.00
C699   C     0.48553   0.34511   0.76394   0.00000  Uiso   1.00
C700   C     0.48966   0.38924   0.76012   0.00000  Uiso   1.00
C701   C     0.51001   0.61131   0.74007   0.00000  Uiso   1.00
C702   C     0.41606   0.52870   0.98936   0.00000  Uiso   1.00
C703   C     0.51894   0.48179   0.62934   0.00000  Uiso   1.00
C704   C     0.48239   0.51841   0.87084   0.00000  Uiso   1.00
C705   C     0.58315   0.47514   0.51105   0.00000  Uiso   1.00
C706   C     0.52838   0.47633   0.58091   0.00000  Uiso   1.00
C707   C     0.43042   0.53168   0.94341   0.00000  Uiso   1.00
C708   C     0.44224   0.51598   0.51282   0.00000  Uiso   1.00
C709   C     0.48464   0.50766   0.99086   0.00000  Uiso   1.00
C710   C     0.50020   0.51363   0.94426   0.00000  Uiso   1.00
C711   C     0.51224   0.49392   0.51354   0.00000  Uiso   1.00
C712   C     0.55513   0.48813   0.98958   0.00000  Uiso   1.00
C713   C     0.57049   0.49719   0.94492   0.00000  Uiso   1.00
C714   C     0.54383   0.51062   0.92289   0.00000  Uiso   1.00
H715   H     0.59291   0.46260   0.57343   0.00000  Uiso   1.00
H716   H     0.38379   0.53500   0.50678   0.00000  Uiso   1.00
H717   H     0.55837   0.51951   0.88910   0.00000  Uiso   1.00
H718   H     0.65210   0.47527   0.79146   0.00000  Uiso   1.00
H719   H     0.54024   0.33719   0.71058   0.00000  Uiso   1.00
H720   H     0.45899   0.66459   0.78974   0.00000  Uiso   1.00
H721   H     0.60364   0.49455   0.92701   0.00000  Uiso   1.00
H722   H     0.61588   0.47088   0.99298   0.00000  Uiso   1.00
H723   H     0.46789   0.49182   0.58037   0.00000  Uiso   1.00
H724   H     0.40832   0.53919   0.92575   0.00000  Uiso   1.00
H725   H     0.42830   0.51335   0.54813   0.00000  Uiso   1.00
O726   O     0.50000   0.50000   0.75000   0.00000  Uiso   1.00
O727   O     0.48784   0.45970   0.65458   0.00000  Uiso   1.00
O728   O     0.46274   0.53724   0.84968   0.00000  Uiso   1.00
O729   O     0.54157   0.51092   0.64606   0.00000  Uiso   1.00
O730   O     0.50785   0.49213   0.84968   0.00000  Uiso   1.00
O731   O     0.51264   0.41352   0.78213   0.00000  Uiso   1.00
O732   O     0.47965   0.59418   0.77013   0.00000  Uiso   1.00
O733   O     0.40745   0.46625   0.73413   0.00000  Uiso   1.00
O734   O     0.60026   0.52605   0.71360   0.00000  Uiso   1.00
O735   O     0.40405   0.52211   0.78213   0.00000  Uiso   1.00
O736   O     0.58824   0.48559   0.77013   0.00000  Uiso   1.00
O737   O     0.47093   0.40277   0.73413   0.00000  Uiso   1.00
O738   O     0.53678   0.58953   0.71360   0.00000  Uiso   1.00
Zn739  Zn    0.52672   0.47327   0.78734   0.00000  Uiso   1.00
Zn740  Zn    0.46713   0.45791   0.71875   0.00000  Uiso   1.00
Zn741  Zn    0.54389   0.53109   0.70657   0.00000  Uiso   1.00
Zn742  Zn    0.46226   0.53773   0.78733   0.00000  Uiso   1.00
Br743  Br    0.69959   0.53909   0.68626   0.00000  Uiso   1.00
C744   C     0.71941   0.49292   0.76030   0.00000  Uiso   1.00
C745   C     0.83261   0.48682   0.55953   0.00000  Uiso   1.00
C746   C     0.90334   0.46990   0.55663   0.00000  Uiso   1.00
C747   C     0.94759   0.50717   0.73976   0.00000  Uiso   1.00
C748   C     0.80517   0.52298   0.92018   0.00000  Uiso   1.00
C749   C     0.99370   0.50965   0.73472   0.00000  Uiso   1.00
C750   C     0.67425   0.49129   0.76379   0.00000  Uiso   1.00
C751   C     0.84731   0.65591   0.73618   0.00000  Uiso   1.00
C752   C     0.81887   0.34511   0.76394   0.00000  Uiso   1.00
C753   C     0.82299   0.38924   0.76012   0.00000  Uiso   1.00
C754   C     0.84334   0.61131   0.74007   0.00000  Uiso   1.00
C755   C     0.74940   0.52870   0.98936   0.00000  Uiso   1.00
C756   C     0.85227   0.48179   0.62934   0.00000  Uiso   1.00
C757   C     0.81572   0.51841   0.87084   0.00000  Uiso   1.00
C758   C     0.91648   0.47514   0.51105   0.00000  Uiso   1.00
C759   C     0.86172   0.47633   0.58091   0.00000  Uiso   1.00
C760   C     0.76375   0.53168   0.94341   0.00000  Uiso   1.00
C761   C     0.77558   0.51598   0.51282   0.00000  Uiso   1.00
C762   C     0.81797   0.50766   0.99086   0.00000  Uiso   1.00
C763   C     0.83354   0.51363   0.94426   0.00000  Uiso   1.00
C764   C     0.84557   0.49392   0.51354   0.00000  Uiso   1.00
C765   C     0.88846   0.48813   0.98958   0.00000  Uiso   1.00
C766   C     0.90382   0.49719   0.94492   0.00000  Uiso   1.00
C767   C     0.87716   0.51062   0.92289   0.00000  Uiso   1.00
H768   H     0.92624   0.46260   0.57343   0.00000  Uiso   1.00
H769   H     0.71713   0.53500   0.50678   0.00000  Uiso   1.00
H770   H     0.89171   0.51951   0.88910   0.00000  Uiso   1.00
H771   H     0.98544   0.47527   0.79146   0.00000  Uiso   1.00
H772   H     0.87357   0.33719   0.71058   0.00000  Uiso   1.00
H773   H     0.79233   0.66459   0.78974   0.00000  Uiso   1.00
H774   H     0.93698   0.49455   0.92701   0.00000  Uiso   1.00
H775   H     0.94922   0.47088   0.99298   0.00000  Uiso   1.00
H776   H     0.80122   0.49182   0.58037   0.00000  Uiso   1.00
H777   H     0.74165   0.53919   0.92575   0.00000  Uiso   1.00
H778   H     0.76163   0.51335   0.54813   0.00000  Uiso   1.00
O779   O     0.83333   0.50000   0.75000   0.00000  Uiso   1.00
O780   O     0.82118   0.45970   0.65458   0.00000  Uiso   1.00
O781   O     0.79607   0.53724   0.84968   0.00000  Uiso   1.00
O782   O     0.87491   0.51092   0.64606   0.00000  Uiso   1.00
O783   O     0.84118   0.49213   0.84968   0.00000  Uiso   1.00
O784   O     0.84597   0.41352   0.78213   0.00000  Uiso   1.00
O785   O     0.81298   0.59418   0.77013   0.00000  Uiso   1.00
O786   O     0.74078   0.46625   0.73413   0.00000  Uiso   1.00
O787   O     0.93360   0.52605   0.71360   0.00000  Uiso   1.00
O788   O     0.73738   0.52211   0.78213   0.00000  Uiso   1.00
O789   O     0.92158   0.48559   0.77013   0.00000  Uiso   1.00
O790   O     0.80426   0.40277   0.73413   0.00000  Uiso   1.00
O791   O     0.87012   0.58953   0.71360   0.00000  Uiso   1.00
Zn792  Zn    0.86005   0.47327   0.78734   0.00000  Uiso   1.00
Zn793  Zn    0.80046   0.45791   0.71875   0.00000  Uiso   1.00
Zn794  Zn    0.87723   0.53109   0.70657   0.00000  Uiso   1.00
Zn795  Zn    0.79560   0.53773   0.78733   0.00000  Uiso   1.00
Br796  Br    0.03292   0.87242   0.68626   0.00000  Uiso   1.00
C797   C     0.05274   0.82626   0.76030   0.00000  Uiso   1.00
C798   C     0.16594   0.82015   0.55953   0.00000  Uiso   1.00
C799   C     0.23668   0.80323   0.55663   0.00000  Uiso   1.00
C800   C     0.28093   0.84050   0.73976   0.00000  Uiso   1.00
C801   C     0.13851   0.85631   0.92018   0.00000  Uiso   1.00
C802   C     0.32704   0.84299   0.73472   0.00000  Uiso   1.00
C803   C     0.00759   0.82462   0.76379   0.00000  Uiso   1.00
C804   C     0.18064   0.98925   0.73618   0.00000  Uiso   1.00
C805   C     0.15220   0.67844   0.76394   0.00000  Uiso   1.00
C806   C     0.15633   0.72257   0.76012   0.00000  Uiso   1.00
C807   C     0.17668   0.94464   0.74007   0.00000  Uiso   1.00
C808   C     0.08273   0.86203   0.98936   0.00000  Uiso   1.00
C809   C     0.18561   0.81513   0.62934   0.00000  Uiso   1.00
C810   C     0.14905   0.85175   0.87084   0.00000  Uiso   1.00
C811   C     0.24981   0.80847   0.51105   0.00000  Uiso   1.00
C812   C     0.19505   0.80967   0.58091   0.00000  Uiso   1.00
C813   C     0.09708   0.86502   0.94341   0.00000  Uiso   1.00
C814   C     0.10891   0.84932   0.51282   0.00000  Uiso   1.00
C815   C     0.15130   0.84099   0.99086   0.00000  Uiso   1.00
C816   C     0.16687   0.84696   0.94426   0.00000  Uiso   1.00
C817   C     0.17891   0.82725   0.51354   0.00000  Uiso   1.00
C818   C     0.22180   0.82146   0.98958   0.00000  Uiso   1.00
C819   C     0.23716   0.83052   0.94492   0.00000  Uiso   1.00
C820   C     0.21050   0.84395   0.92289   0.00000  Uiso   1.00
H821   H     0.25957   0.79594   0.57343   0.00000  Uiso   1.00
H822   H     0.05046   0.86833   0.50678   0.00000  Uiso   1.00
H823   H     0.22504   0.85284   0.88910   0.00000  Uiso   1.00
H824   H     0.31877   0.80860   0.79146   0.00000  Uiso   1.00
H825   H     0.20690   0.67053   0.71058   0.00000  Uiso   1.00
H826   H     0.12566   0.99792   0.78974   0.00000  Uiso   1.00
H827   H     0.27031   0.82789   0.92701   0.00000  Uiso   1.00
H828   H     0.28255   0.80421   0.99298   0.00000  Uiso   1.00
H829   H     0.13456   0.82515   0.58037   0.00000  Uiso   1.00
H830   H     0.07498   0.87252   0.92575   0.00000  Uiso   1.00
H831   H     0.09497   0.84668   0.54813   0.00000  Uiso   1.00
O832   O     0.16667   0.83333   0.75000   0.00000  Uiso   1.00
O833   O     0.15451   0.79304   0.65458   0.00000  Uiso   1.00
O834   O     0.12940   0.87058   0.84968   0.00000  Uiso   1.00
O835   O     0.20824   0.84425   0.64606   0.00000  Uiso   1.00
O836   O     0.17451   0.82546   0.84968   0.00000  Uiso   1.00
O837   O     0.17930   0.74686   0.78213   0.00000  Uiso   1.00
O838   O     0.14632   0.92751   0.77013   0.00000  Uiso   1.00
O839   O     0.07412   0.79958   0.73413   0.00000  Uiso   1.00
O840   O     0.26693   0.85939   0.71360   0.00000  Uiso   1.00
O841   O     0.07071   0.85544   0.78213   0.00000  Uiso   1.00
O842   O     0.25491   0.81892   0.77013   0.00000  Uiso   1.00
O843   O     0.13760   0.73610   0.73413   0.00000  Uiso   1.00
O844   O     0.20345   0.92286   0.71360   0.00000  Uiso   1.00
Zn845  Zn    0.19338   0.80661   0.78734   0.00000  Uiso   1.00
Zn846  Zn    0.13379   0.79124   0.71875   0.00000  Uiso   1.00
Zn847  Zn    0.21056   0.86442   0.70657   0.00000  Uiso   1.00
Zn848  Zn    0.12893   0.87106   0.78733   0.00000  Uiso   1.00
Br849  Br    0.36626   0.87242   0.68626   0.00000  Uiso   1.00
C850   C     0.38608   0.82626   0.76030   0.00000  Uiso   1.00
C851   C     0.49928   0.82015   0.55953   0.00000  Uiso   1.00
C852   C     0.57001   0.80323   0.55663   0.00000  Uiso   1.00
C853   C     0.61426   0.84050   0.73976   0.00000  Uiso   1.00
C854   C     0.47184   0.85631   0.92018   0.00000  Uiso   1.00
C855   C     0.66037   0.84299   0.73472   0.00000  Uiso   1.00
C856   C     0.34092   0.82462   0.76379   0.00000  Uiso   1.00
C857   C     0.51397   0.98925   0.73618   0.00000  Uiso   1.00
C858   C     0.48553   0.67844   0.76394   0.00000  Uiso   1.00
C859   C     0.48966   0.72257   0.76012   0.00000  Uiso   1.00
C860   C     0.51001   0.94464   0.74007   0.00000  Uiso   1.00
C861   C     0.41606   0.86203   0.98936   0.00000  Uiso   1.00
C862   C     0.51894   0.81513   0.62934   0.00000  Uiso   1.00
C863   C     0.48239   0.85175   0.87084   0.00000  Uiso   1.00
C864   C     0.58315   0.80847   0.51105   0.00000  Uiso   1.00
C865   C     0.52838   0.80967   0.58091   0.00000  Uiso   1.00
C866   C     0.43042   0.86502   0.94341   0.00000  Uiso   1.00
C867   C     0.44224   0.84932   0.51282   0.00000  Uiso   1.00
C868   C     0.48464   0.84099   0.99086   0.00000  Uiso   1.00
C869   C     0.50020   0.84696   0.94426   0.00000  Uiso   1.00
C870   C     0.51224   0.82725   0.51354   0.00000  Uiso   1.00
C871   C     0.55513   0.82146   0.98958   0.00000  Uiso   1.00
C872   C     0.57049   0.83052   0.94492   0.00000  Uiso   1.00
C873   C     0.54383   0.84395   0.92289   0.00000  Uiso   1.00
H874   H     0.59291   0.79594   0.57343   0.00000  Uiso   1.00
H875   H     0.38379   0.86833   0.50678   0.00000  Uiso   1.00
H876   H     0.55837   0.85284   0.88910   0.00000  Uiso   1.00
H877   H     0.65210   0.80860   0.79146   0.00000  Uiso   1.00
H878   H     0.54024   0.67053   0.71058   0.00000  Uiso   1.00
H879   H     0.45899   0.99792   0.78974   0.00000  Uiso   1.00
H880   H     0.60364   0.82789   0.92701   0.00000  Uiso   1.00
H881   H     0.61588   0.80421   0.99298   0.00000  Uiso   1.00
H882   H     0.46789   0.82515   0.58037   0.00000  Uiso   1.00
H883   H     0.40832   0.87252   0.92575   0.00000  Uiso   1.00
H884   H     0.42830   0.84668   0.54813   0.00000  Uiso   1.00
O885   O     0.50000   0.83333   0.75000   0.00000  Uiso   1.00
O886   O     0.48784   0.79304   0.65458   0.00000  Uiso   1.00
O887   O     0.46274   0.87058   0.84968   0.00000  Uiso   1.00
O888   O     0.54157   0.84425   0.64606   0.00000  Uiso   1.00
O889   O     0.50785   0.82546   0.84968   0.00000  Uiso   1.00
O890   O     0.51264   0.74686   0.78213   0.00000  Uiso   1.00
O891   O     0.47965   0.92751   0.77013   0.00000  Uiso   1.00
O892   O     0.40745   0.79958   0.73413   0.00000  Uiso   1.00
O893   O     0.60026   0.85939   0.71360   0.00000  Uiso   1.00
O894   O     0.40405   0.85544   0.78213   0.00000  Uiso   1.00
O895   O     0.58824   0.81892   0.77013   0.00000  Uiso   1.00
O896   O     0.47093   0.73610   0.73413   0.00000  Uiso   1.00
O897   O     0.53678   0.92286   0.71360   0.00000  Uiso   1.00
Zn898  Zn    0.52672   0.80661   0.78734   0.00000  Uiso   1.00
Zn899  Zn    0.46713   0.79124   0.71875   0.00000  Uiso   1.00
Zn900  Zn    0.54389   0.86442   0.70657   0.00000  Uiso   1.00
Zn901  Zn    0.46226   0.87106   0.78733   0.00000  Uiso   1.00
Br902  Br    0.69959   0.87242   0.68626   0.00000  Uiso   1.00
C903   C     0.71941   0.82626   0.76030   0.00000  Uiso   1.00
C904   C     0.83261   0.82015   0.55953   0.00000  Uiso   1.00
C905   C     0.90334   0.80323   0.55663   0.00000  Uiso   1.00
C906   C     0.94759   0.84050   0.73976   0.00000  Uiso   1.00
C907   C     0.80517   0.85631   0.92018   0.00000  Uiso   1.00
C908   C     0.99370   0.84299   0.73472   0.00000  Uiso   1.00
C909   C     0.67425   0.82462   0.76379   0.00000  Uiso   1.00
C910   C     0.84731   0.98925   0.73618   0.00000  Uiso   1.00
C911   C     0.81887   0.67844   0.76394   0.00000  Uiso   1.00
C912   C     0.82299   0.72257   0.76012   0.00000  Uiso   1.00
C913   C     0.84334   0.94464   0.74007   0.00000  Uiso   1.00
C914   C     0.74940   0.86203   0.98936   0.00000  Uiso   1.00
C915   C     0.85227   0.81513   0.62934   0.00000  Uiso   1.00
C916   C     0.81572   0.85175   0.87084   0.00000  Uiso   1.00
C917   C     0.91648   0.80847   0.51105   0.00000  Uiso   1.00
C918   C     0.86172   0.80967   0.58091   0.00000  Uiso   1.00
C919   C     0.76375   0.86502   0.94341   0.00000  Uiso   1.00
C920   C     0.77558   0.84932   0.51282   0.00000  Uiso   1.00
C921   C     0.81797   0.84099   0.99086   0.00000  Uiso   1.00
C922   C     0.83354   0.84696   0.94426   0.00000  Uiso   1.00
C923   C     0.84557   0.82725   0.51354   0.00000  Uiso   1.00
C924   C     0.88846   0.82146   0.98958   0.00000  Uiso   1.00
C925   C     0.90382   0.83052   0.94492   0.00000  Uiso   1.00
C926   C     0.87716   0.84395   0.92289   0.00000  Uiso   1.00
H927   H     0.92624   0.79594   0.57343   0.00000  Uiso   1.00
H928   H     0.71713   0.86833   0.50678   0.00000  Uiso   1.00
H929   H     0.89171   0.85284   0.88910   0.00000  Uiso   1.00
H930   H     0.98544   0.80860   0.79146   0.00000  Uiso   1.00
H931   H     0.87357   0.67053   0.71058   0.00000  Uiso   1.00
H932   H     0.79233   0.99792   0.78974   0.00000  Uiso   1.00
H933   H     0.93698   0.82789   0.92701   0.00000  Uiso   1.00
H934   H     0.94922   0.80421   0.99298   0.00000  Uiso   1.00
H935   H     0.80122   0.82515   0.58037   0.00000  Uiso   1.00
H936   H     0.74165   0.87252   0.92575   0.00000  Uiso   1.00
H937   H     0.76163   0.84668   0.54813   0.00000  Uiso   1.00
O938   O     0.83333   0.83333   0.75000   0.00000  Uiso   1.00
O939   O     0.82118   0.79304   0.65458   0.00000  Uiso   1.00
O940   O     0.79607   0.87058   0.84968   0.00000  Uiso   1.00
O941   O     0.87491   0.84425   0.64606   0.00000  Uiso   1.00
O942   O     0.84118   0.82546   0.84968   0.00000  Uiso   1.00
O943   O     0.84597   0.74686   0.78213   0.00000  Uiso   1.00
O944   O     0.81298   0.92751   0.77013   0.00000  Uiso   1.00
O945   O     0.74078   0.79958   0.73413   0.00000  Uiso   1.00
O946   O     0.93360   0.85939   0.71360   0.00000  Uiso   1.00
O947   O     0.73738   0.85544   0.78213   0.00000  Uiso   1.00
O948   O     0.92158   0.81892   0.77013   0.00000  Uiso   1.00
O949   O     0.80426   0.73610   0.73413   0.00000  Uiso   1.00
O950   O     0.87012   0.92286   0.71360   0.00000  Uiso   1.00
Zn951  Zn    0.86005   0.80661   0.78734   0.00000  Uiso   1.00
Zn952  Zn    0.80046   0.79124   0.71875   0.00000  Uiso   1.00
Zn953  Zn    0.87723   0.86442   0.70657   0.00000  Uiso   1.00
Zn954  Zn    0.79560   0.87106   0.78733   0.00000  Uiso   1.00
loop_
_geom_bond_atom_site_label_1
_geom_bond_atom_site_label_2
_geom_bond_distance
_geom_bond_site_symmetry_2
_ccdc_geom_bond_type
Br1    C113    1.929   1_455 S
C2     O46     1.272   .     A
C2     C8      1.439   .     S
C2     O44     1.274   .     A
C3     C17     1.393   .     A
C3     C22     1.411   .     A
C3     H34     1.077   .     S
C4     C16     1.387   .     A
C4     H26     1.084   .     S
C4     C17     1.396   .     A
C5     O47     1.278   .     A
C5     C7      1.458   .     S
C5     O45     1.279   .     A
C6     C18     1.402   .     A
C6     C15     1.475   .     S
C6     C21     1.419   .     A
C7     Br54    1.929   .     S
C7     C61     1.339   .     S
C8     C113    1.339   1_455 S
C8     H135    1.086   1_455 S
C9     C12     1.452   .     S
C9     C169    1.332   .     S
C9     H189    1.088   .     S
C10    C11     1.436   .     S
C10    C327    1.332   1_545 S
C10    H349    1.086   1_545 S
C11    O48     1.281   .     A
C11    O42     1.281   .     A
C12    O49     1.269   .     A
C12    O43     1.269   .     A
C13    C18     1.387   .     A
C13    C496    1.391   .     S
C13    H504    1.083   .     S
C14    C17     1.450   .     S
C14    O38     1.278   .     A
C14    O40     1.268   .     A
C15    O39     1.283   .     A
C15    O41     1.283   .     A
C16    C500    1.400   1_554 S
C16    H510    1.084   1_554 S
C18    H35     1.083   .     S
C19    H36     1.076   .     S
C19    C490    1.391   1_554 S
C19    C497    1.417   1_554 S
C20    C21     1.424   .     A
C20    C496    1.417   .     S
C20    C499    1.426   .     S
C21    C25     1.410   .     A
C22    C497    1.426   1_554 S
C22    C500    1.424   1_554 S
C23    C24     1.391   .     A
C23    C493    1.400   .     S
C23    C499    1.424   .     S
C24    H32     1.084   .     S
C24    C25     1.382   .     A
C25    H28     1.080   .     S
H27    C490    1.083   1_554 S
H29    C61     1.086   .     S
H30    C327    1.088   1_545 S
H31    C169    1.086   .     S
H33    C493    1.084   .     S
O37    Zn53    1.933   .     S
O37    Zn50    1.961   .     S
O37    Zn51    1.952   .     S
O37    Zn52    1.925   .     S
O38    Zn51    1.930   .     S
O39    Zn53    1.945   .     S
O40    Zn52    1.943   .     S
O41    Zn50    1.931   .     S
O42    Zn50    1.929   .     S
O43    Zn53    1.926   .     S
O44    Zn51    1.925   .     S
O45    Zn52    1.939   .     S
O46    Zn53    1.935   .     S
O47    Zn50    1.921   .     S
O48    Zn51    1.933   .     S
O49    Zn52    1.930   .     S
C55    O99     1.272   .     A
C55    C61     1.439   .     S
C55    O97     1.274   .     A
C56    C70     1.393   .     A
C56    C75     1.411   .     A
C56    H87     1.077   .     S
C57    C69     1.387   .     A
C57    H79     1.084   .     S
C57    C70     1.396   .     A
C58    O100    1.278   .     A
C58    C60     1.458   .     S
C58    O98     1.279   .     A
C59    C71     1.402   .     A
C59    C68     1.475   .     S
C59    C74     1.419   .     A
C60    Br107   1.929   .     S
C60    C114    1.339   .     S
C62    C65     1.452   .     S
C62    C222    1.332   .     S
C62    H242    1.088   .     S
C63    C64     1.436   .     S
C63    C380    1.332   1_545 S
C63    H402    1.086   1_545 S
C64    O101    1.281   .     A
C64    O95     1.281   .     A
C65    O102    1.269   .     A
C65    O96     1.269   .     A
C66    C71     1.387   .     A
C66    C549    1.391   .     S
C66    H557    1.083   .     S
C67    C70     1.450   .     S
C67    O91     1.278   .     A
C67    O93     1.268   .     A
C68    O92     1.283   .     A
C68    O94     1.283   .     A
C69    C553    1.400   1_554 S
C69    H563    1.084   1_554 S
C71    H88     1.083   .     S
C72    H89     1.076   .     S
C72    C543    1.391   1_554 S
C72    C550    1.417   1_554 S
C73    C74     1.424   .     A
C73    C549    1.417   .     S
C73    C552    1.426   .     S
C74    C78     1.410   .     A
C75    C550    1.426   1_554 S
C75    C553    1.424   1_554 S
C76    C77     1.391   .     A
C76    C546    1.400   .     S
C76    C552    1.424   .     S
C77    H85     1.084   .     S
C77    C78     1.382   .     A
C78    H81     1.080   .     S
H80    C543    1.083   1_554 S
H82    C114    1.086   .     S
H83    C380    1.088   1_545 S
H84    C222    1.086   .     S
H86    C546    1.084   .     S
O90    Zn106   1.933   .     S
O90    Zn103   1.961   .     S
O90    Zn104   1.952   .     S
O90    Zn105   1.925   .     S
O91    Zn104   1.930   .     S
O92    Zn106   1.945   .     S
O93    Zn105   1.943   .     S
O94    Zn103   1.931   .     S
O95    Zn103   1.929   .     S
O96    Zn106   1.926   .     S
O97    Zn104   1.925   .     S
O98    Zn105   1.939   .     S
O99    Zn106   1.935   .     S
O100   Zn103   1.921   .     S
O101   Zn104   1.933   .     S
O102   Zn105   1.930   .     S
C108   O152    1.272   .     A
C108   C114    1.439   .     S
C108   O150    1.274   .     A
C109   C123    1.393   .     A
C109   C128    1.411   .     A
C109   H140    1.077   .     S
C110   C122    1.387   .     A
C110   H132    1.084   .     S
C110   C123    1.396   .     A
C111   O153    1.278   .     A
C111   C113    1.458   .     S
C111   O151    1.279   .     A
C112   C124    1.402   .     A
C112   C121    1.475   .     S
C112   C127    1.419   .     A
C113   Br1     1.929   1_655 S
C113   C8      1.339   1_655 S
C115   C118    1.452   .     S
C115   C275    1.332   .     S
C115   H295    1.088   .     S
C116   C117    1.436   .     S
C116   C433    1.332   1_545 S
C116   H455    1.086   1_545 S
C117   O154    1.281   .     A
C117   O148    1.281   .     A
C118   O155    1.269   .     A
C118   O149    1.269   .     A
C119   C124    1.387   .     A
C119   C602    1.391   .     S
C119   H610    1.083   .     S
C120   C123    1.450   .     S
C120   O144    1.278   .     A
C120   O146    1.268   .     A
C121   O145    1.283   .     A
C121   O147    1.283   .     A
C122   C606    1.400   1_554 S
C122   H616    1.084   1_554 S
C124   H141    1.083   .     S
C125   H142    1.076   .     S
C125   C596    1.391   1_554 S
C125   C603    1.417   1_554 S
C126   C127    1.424   .     A
C126   C602    1.417   .     S
C126   C605    1.426   .     S
C127   C131    1.410   .     A
C128   C603    1.426   1_554 S
C128   C606    1.424   1_554 S
C129   C130    1.391   .     A
C129   C599    1.400   .     S
C129   C605    1.424   .     S
C130   H138    1.084   .     S
C130   C131    1.382   .     A
C131   H134    1.080   .     S
H133   C596    1.083   1_554 S
H135   C8      1.086   1_655 S
H136   C433    1.088   1_545 S
H137   C275    1.086   .     S
H139   C599    1.084   .     S
O143   Zn159   1.933   .     S
O143   Zn156   1.961   .     S
O143   Zn157   1.952   .     S
O143   Zn158   1.925   .     S
O144   Zn157   1.930   .     S
O145   Zn159   1.945   .     S
O146   Zn158   1.943   .     S
O147   Zn156   1.931   .     S
O148   Zn156   1.929   .     S
O149   Zn159   1.926   .     S
O150   Zn157   1.925   .     S
O151   Zn158   1.939   .     S
O152   Zn159   1.935   .     S
O153   Zn156   1.921   .     S
O154   Zn157   1.933   .     S
O155   Zn158   1.930   .     S
Br160  C272    1.929   1_455 S
C161   O205    1.272   .     A
C161   C167    1.439   .     S
C161   O203    1.274   .     A
C162   C176    1.393   .     A
C162   C181    1.411   .     A
C162   H193    1.077   .     S
C163   C175    1.387   .     A
C163   H185    1.084   .     S
C163   C176    1.396   .     A
C164   O206    1.278   .     A
C164   C166    1.458   .     S
C164   O204    1.279   .     A
C165   C177    1.402   .     A
C165   C174    1.475   .     S
C165   C180    1.419   .     A
C166   Br213   1.929   .     S
C166   C220    1.339   .     S
C167   C272    1.339   1_455 S
C167   H294    1.086   1_455 S
C168   C171    1.452   .     S
C168   C328    1.332   .     S
C168   H348    1.088   .     S
C169   C170    1.436   .     S
C170   O207    1.281   .     A
C170   O201    1.281   .     A
C171   O208    1.269   .     A
C171   O202    1.269   .     A
C172   C177    1.387   .     A
C172   C655    1.391   .     S
C172   H663    1.083   .     S
C173   C176    1.450   .     S
C173   O197    1.278   .     A
C173   O199    1.268   .     A
C174   O198    1.283   .     A
C174   O200    1.283   .     A
C175   C659    1.400   1_554 S
C175   H669    1.084   1_554 S
C177   H194    1.083   .     S
C178   H195    1.076   .     S
C178   C649    1.391   1_554 S
C178   C656    1.417   1_554 S
C179   C180    1.424   .     A
C179   C655    1.417   .     S
C179   C658    1.426   .     S
C180   C184    1.410   .     A
C181   C656    1.426   1_554 S
C181   C659    1.424   1_554 S
C182   C183    1.391   .     A
C182   C652    1.400   .     S
C182   C658    1.424   .     S
C183   H191    1.084   .     S
C183   C184    1.382   .     A
C184   H187    1.080   .     S
H186   C649    1.083   1_554 S
H188   C220    1.086   .     S
H190   C328    1.086   .     S
H192   C652    1.084   .     S
O196   Zn212   1.933   .     S
O196   Zn209   1.961   .     S
O196   Zn210   1.952   .     S
O196   Zn211   1.925   .     S
O197   Zn210   1.930   .     S
O198   Zn212   1.945   .     S
O199   Zn211   1.943   .     S
O200   Zn209   1.931   .     S
O201   Zn209   1.929   .     S
O202   Zn212   1.926   .     S
O203   Zn210   1.925   .     S
O204   Zn211   1.939   .     S
O205   Zn212   1.935   .     S
O206   Zn209   1.921   .     S
O207   Zn210   1.933   .     S
O208   Zn211   1.930   .     S
C214   O258    1.272   .     A
C214   C220    1.439   .     S
C214   O256    1.274   .     A
C215   C229    1.393   .     A
C215   C234    1.411   .     A
C215   H246    1.077   .     S
C216   C228    1.387   .     A
C216   H238    1.084   .     S
C216   C229    1.396   .     A
C217   O259    1.278   .     A
C217   C219    1.458   .     S
C217   O257    1.279   .     A
C218   C230    1.402   .     A
C218   C227    1.475   .     S
C218   C233    1.419   .     A
C219   Br266   1.929   .     S
C219   C273    1.339   .     S
C221   C224    1.452   .     S
C221   C381    1.332   .     S
C221   H401    1.088   .     S
C222   C223    1.436   .     S
C223   O260    1.281   .     A
C223   O254    1.281   .     A
C224   O261    1.269   .     A
C224   O255    1.269   .     A
C225   C230    1.387   .     A
C225   C708    1.391   .     S
C225   H716    1.083   .     S
C226   C229    1.450   .     S
C226   O250    1.278   .     A
C226   O252    1.268   .     A
C227   O251    1.283   .     A
C227   O253    1.283   .     A
C228   C712    1.400   1_554 S
C228   H722    1.084   1_554 S
C230   H247    1.083   .     S
C231   H248    1.076   .     S
C231   C702    1.391   1_554 S
C231   C709    1.417   1_554 S
C232   C233    1.424   .     A
C232   C708    1.417   .     S
C232   C711    1.426   .     S
C233   C237    1.410   .     A
C234   C709    1.426   1_554 S
C234   C712    1.424   1_554 S
C235   C236    1.391   .     A
C235   C705    1.400   .     S
C235   C711    1.424   .     S
C236   H244    1.084   .     S
C236   C237    1.382   .     A
C237   H240    1.080   .     S
H239   C702    1.083   1_554 S
H241   C273    1.086   .     S
H243   C381    1.086   .     S
H245   C705    1.084   .     S
O249   Zn265   1.933   .     S
O249   Zn262   1.961   .     S
O249   Zn263   1.952   .     S
O249   Zn264   1.925   .     S
O250   Zn263   1.930   .     S
O251   Zn265   1.945   .     S
O252   Zn264   1.943   .     S
O253   Zn262   1.931   .     S
O254   Zn262   1.929   .     S
O255   Zn265   1.926   .     S
O256   Zn263   1.925   .     S
O257   Zn264   1.939   .     S
O258   Zn265   1.935   .     S
O259   Zn262   1.921   .     S
O260   Zn263   1.933   .     S
O261   Zn264   1.930   .     S
C267   O311    1.272   .     A
C267   C273    1.439   .     S
C267   O309    1.274   .     A
C268   C282    1.393   .     A
C268   C287    1.411   .     A
C268   H299    1.077   .     S
C269   C281    1.387   .     A
C269   H291    1.084   .     S
C269   C282    1.396   .     A
C270   O312    1.278   .     A
C270   C272    1.458   .     S
C270   O310    1.279   .     A
C271   C283    1.402   .     A
C271   C280    1.475   .     S
C271   C286    1.419   .     A
C272   Br160   1.929   1_655 S
C272   C167    1.339   1_655 S
C274   C277    1.452   .     S
C274   C434    1.332   .     S
C274   H454    1.088   .     S
C275   C276    1.436   .     S
C276   O313    1.281   .     A
C276   O307    1.281   .     A
C277   O314    1.269   .     A
C277   O308    1.269   .     A
C278   C283    1.387   .     A
C278   C761    1.391   .     S
C278   H769    1.083   .     S
C279   C282    1.450   .     S
C279   O303    1.278   .     A
C279   O305    1.268   .     A
C280   O304    1.283   .     A
C280   O306    1.283   .     A
C281   C765    1.400   1_554 S
C281   H775    1.084   1_554 S
C283   H300    1.083   .     S
C284   H301    1.076   .     S
C284   C755    1.391   1_554 S
C284   C762    1.417   1_554 S
C285   C286    1.424   .     A
C285   C761    1.417   .     S
C285   C764    1.426   .     S
C286   C290    1.410   .     A
C287   C762    1.426   1_554 S
C287   C765    1.424   1_554 S
C288   C289    1.391   .     A
C288   C758    1.400   .     S
C288   C764    1.424   .     S
C289   H297    1.084   .     S
C289   C290    1.382   .     A
C290   H293    1.080   .     S
H292   C755    1.083   1_554 S
H294   C167    1.086   1_655 S
H296   C434    1.086   .     S
H298   C758    1.084   .     S
O302   Zn318   1.933   .     S
O302   Zn315   1.961   .     S
O302   Zn316   1.952   .     S
O302   Zn317   1.925   .     S
O303   Zn316   1.930   .     S
O304   Zn318   1.945   .     S
O305   Zn317   1.943   .     S
O306   Zn315   1.931   .     S
O307   Zn315   1.929   .     S
O308   Zn318   1.926   .     S
O309   Zn316   1.925   .     S
O310   Zn317   1.939   .     S
O311   Zn318   1.935   .     S
O312   Zn315   1.921   .     S
O313   Zn316   1.933   .     S
O314   Zn317   1.930   .     S
Br319  C431    1.929   1_455 S
C320   O364    1.272   .     A
C320   C326    1.439   .     S
C320   O362    1.274   .     A
C321   C335    1.393   .     A
C321   C340    1.411   .     A
C321   H352    1.077   .     S
C322   C334    1.387   .     A
C322   H344    1.084   .     S
C322   C335    1.396   .     A
C323   O365    1.278   .     A
C323   C325    1.458   .     S
C323   O363    1.279   .     A
C324   C336    1.402   .     A
C324   C333    1.475   .     S
C324   C339    1.419   .     A
C325   Br372   1.929   .     S
C325   C379    1.339   .     S
C326   C431    1.339   1_455 S
C326   H453    1.086   1_455 S
C327   C330    1.452   .     S
C327   C10     1.332   1_565 S
C327   H30     1.088   1_565 S
C328   C329    1.436   .     S
C329   O366    1.281   .     A
C329   O360    1.281   .     A
C330   O367    1.269   .     A
C330   O361    1.269   .     A
C331   C336    1.387   .     A
C331   C814    1.391   .     S
C331   H822    1.083   .     S
C332   C335    1.450   .     S
C332   O356    1.278   .     A
C332   O358    1.268   .     A
C333   O357    1.283   .     A
C333   O359    1.283   .     A
C334   C818    1.400   1_554 S
C334   H828    1.084   1_554 S
C336   H353    1.083   .     S
C337   H354    1.076   .     S
C337   C808    1.391   1_554 S
C337   C815    1.417   1_554 S
C338   C339    1.424   .     A
C338   C814    1.417   .     S
C338   C817    1.426   .     S
C339   C343    1.410   .     A
C340   C815    1.426   1_554 S
C340   C818    1.424   1_554 S
C341   C342    1.391   .     A
C341   C811    1.400   .     S
C341   C817    1.424   .     S
C342   H350    1.084   .     S
C342   C343    1.382   .     A
C343   H346    1.080   .     S
H345   C808    1.083   1_554 S
H347   C379    1.086   .     S
H349   C10     1.086   1_565 S
H351   C811    1.084   .     S
O355   Zn371   1.933   .     S
O355   Zn368   1.961   .     S
O355   Zn369   1.952   .     S
O355   Zn370   1.925   .     S
O356   Zn369   1.930   .     S
O357   Zn371   1.945   .     S
O358   Zn370   1.943   .     S
O359   Zn368   1.931   .     S
O360   Zn368   1.929   .     S
O361   Zn371   1.926   .     S
O362   Zn369   1.925   .     S
O363   Zn370   1.939   .     S
O364   Zn371   1.935   .     S
O365   Zn368   1.921   .     S
O366   Zn369   1.933   .     S
O367   Zn370   1.930   .     S
C373   O417    1.272   .     A
C373   C379    1.439   .     S
C373   O415    1.274   .     A
C374   C388    1.393   .     A
C374   C393    1.411   .     A
C374   H405    1.077   .     S
C375   C387    1.387   .     A
C375   H397    1.084   .     S
C375   C388    1.396   .     A
C376   O418    1.278   .     A
C376   C378    1.458   .     S
C376   O416    1.279   .     A
C377   C389    1.402   .     A
C377   C386    1.475   .     S
C377   C392    1.419   .     A
C378   Br425   1.929   .     S
C378   C432    1.339   .     S
C380   C383    1.452   .     S
C380   C63     1.332   1_565 S
C380   H83     1.088   1_565 S
C381   C382    1.436   .     S
C382   O419    1.281   .     A
C382   O413    1.281   .     A
C383   O420    1.269   .     A
C383   O414    1.269   .     A
C384   C389    1.387   .     A
C384   C867    1.391   .     S
C384   H875    1.083   .     S
C385   C388    1.450   .     S
C385   O409    1.278   .     A
C385   O411    1.268   .     A
C386   O410    1.283   .     A
C386   O412    1.283   .     A
C387   C871    1.400   1_554 S
C387   H881    1.084   1_554 S
C389   H406    1.083   .     S
C390   H407    1.076   .     S
C390   C861    1.391   1_554 S
C390   C868    1.417   1_554 S
C391   C392    1.424   .     A
C391   C867    1.417   .     S
C391   C870    1.426   .     S
C392   C396    1.410   .     A
C393   C868    1.426   1_554 S
C393   C871    1.424   1_554 S
C394   C395    1.391   .     A
C394   C864    1.400   .     S
C394   C870    1.424   .     S
C395   H403    1.084   .     S
C395   C396    1.382   .     A
C396   H399    1.080   .     S
H398   C861    1.083   1_554 S
H400   C432    1.086   .     S
H402   C63     1.086   1_565 S
H404   C864    1.084   .     S
O408   Zn424   1.933   .     S
O408   Zn421   1.961   .     S
O408   Zn422   1.952   .     S
O408   Zn423   1.925   .     S
O409   Zn422   1.930   .     S
O410   Zn424   1.945   .     S
O411   Zn423   1.943   .     S
O412   Zn421   1.931   .     S
O413   Zn421   1.929   .     S
O414   Zn424   1.926   .     S
O415   Zn422   1.925   .     S
O416   Zn423   1.939   .     S
O417   Zn424   1.935   .     S
O418   Zn421   1.921   .     S
O419   Zn422   1.933   .     S
O420   Zn423   1.930   .     S
C426   O470    1.272   .     A
C426   C432    1.439   .     S
C426   O468    1.274   .     A
C427   C441    1.393   .     A
C427   C446    1.411   .     A
C427   H458    1.077   .     S
C428   C440    1.387   .     A
C428   H450    1.084   .     S
C428   C441    1.396   .     A
C429   O471    1.278   .     A
C429   C431    1.458   .     S
C429   O469    1.279   .     A
C430   C442    1.402   .     A
C430   C439    1.475   .     S
C430   C445    1.419   .     A
C431   Br319   1.929   1_655 S
C431   C326    1.339   1_655 S
C433   C436    1.452   .     S
C433   C116    1.332   1_565 S
C433   H136    1.088   1_565 S
C434   C435    1.436   .     S
C435   O472    1.281   .     A
C435   O466    1.281   .     A
C436   O473    1.269   .     A
C436   O467    1.269   .     A
C437   C442    1.387   .     A
C437   C920    1.391   .     S
C437   H928    1.083   .     S
C438   C441    1.450   .     S
C438   O462    1.278   .     A
C438   O464    1.268   .     A
C439   O463    1.283   .     A
C439   O465    1.283   .     A
C440   C924    1.400   1_554 S
C440   H934    1.084   1_554 S
C442   H459    1.083   .     S
C443   H460    1.076   .     S
C443   C914    1.391   1_554 S
C443   C921    1.417   1_554 S
C444   C445    1.424   .     A
C444   C920    1.417   .     S
C444   C923    1.426   .     S
C445   C449    1.410   .     A
C446   C921    1.426   1_554 S
C446   C924    1.424   1_554 S
C447   C448    1.391   .     A
C447   C917    1.400   .     S
C447   C923    1.424   .     S
C448   H456    1.084   .     S
C448   C449    1.382   .     A
C449   H452    1.080   .     S
H451   C914    1.083   1_554 S
H453   C326    1.086   1_655 S
H455   C116    1.086   1_565 S
H457   C917    1.084   .     S
O461   Zn477   1.933   .     S
O461   Zn474   1.961   .     S
O461   Zn475   1.952   .     S
O461   Zn476   1.925   .     S
O462   Zn475   1.930   .     S
O463   Zn477   1.945   .     S
O464   Zn476   1.943   .     S
O465   Zn474   1.931   .     S
O466   Zn474   1.929   .     S
O467   Zn477   1.926   .     S
O468   Zn475   1.925   .     S
O469   Zn476   1.939   .     S
O470   Zn477   1.935   .     S
O471   Zn474   1.921   .     S
O472   Zn475   1.933   .     S
O473   Zn476   1.930   .     S
Br478  C590    1.929   1_455 S
C479   O523    1.272   .     A
C479   C485    1.439   .     S
C479   O521    1.274   .     A
C480   C494    1.393   .     A
C480   C499    1.411   .     A
C480   H511    1.077   .     S
C481   C493    1.387   .     A
C481   H503    1.084   .     S
C481   C494    1.396   .     A
C482   O524    1.278   .     A
C482   C484    1.458   .     S
C482   O522    1.279   .     A
C483   C495    1.402   .     A
C483   C492    1.475   .     S
C483   C498    1.419   .     A
C484   Br531   1.929   .     S
C484   C538    1.339   .     S
C485   C590    1.339   1_455 S
C485   H612    1.086   1_455 S
C486   C489    1.452   .     S
C486   C646    1.332   .     S
C486   H666    1.088   .     S
C487   C488    1.436   .     S
C487   C804    1.332   1_545 S
C487   H826    1.086   1_545 S
C488   O525    1.281   .     A
C488   O519    1.281   .     A
C489   O526    1.269   .     A
C489   O520    1.269   .     A
C490   C495    1.387   .     A
C490   C19     1.391   1_556 S
C490   H27     1.083   1_556 S
C491   C494    1.450   .     S
C491   O515    1.278   .     A
C491   O517    1.268   .     A
C492   O516    1.283   .     A
C492   O518    1.283   .     A
C495   H512    1.083   .     S
C496   H513    1.076   .     S
C497   C498    1.424   .     A
C497   C19     1.417   1_556 S
C497   C22     1.426   1_556 S
C498   C502    1.410   .     A
C500   C501    1.391   .     A
C500   C16     1.400   1_556 S
C500   C22     1.424   1_556 S
C501   H509    1.084   .     S
C501   C502    1.382   .     A
C502   H505    1.080   .     S
H506   C538    1.086   .     S
H507   C804    1.088   1_545 S
H508   C646    1.086   .     S
H510   C16     1.084   1_556 S
O514   Zn530   1.933   .     S
O514   Zn527   1.961   .     S
O514   Zn528   1.952   .     S
O514   Zn529   1.925   .     S
O515   Zn528   1.930   .     S
O516   Zn530   1.945   .     S
O517   Zn529   1.943   .     S
O518   Zn527   1.931   .     S
O519   Zn527   1.929   .     S
O520   Zn530   1.926   .     S
O521   Zn528   1.925   .     S
O522   Zn529   1.939   .     S
O523   Zn530   1.935   .     S
O524   Zn527   1.921   .     S
O525   Zn528   1.933   .     S
O526   Zn529   1.930   .     S
C532   O576    1.272   .     A
C532   C538    1.439   .     S
C532   O574    1.274   .     A
C533   C547    1.393   .     A
C533   C552    1.411   .     A
C533   H564    1.077   .     S
C534   C546    1.387   .     A
C534   H556    1.084   .     S
C534   C547    1.396   .     A
C535   O577    1.278   .     A
C535   C537    1.458   .     S
C535   O575    1.279   .     A
C536   C548    1.402   .     A
C536   C545    1.475   .     S
C536   C551    1.419   .     A
C537   Br584   1.929   .     S
C537   C591    1.339   .     S
C539   C542    1.452   .     S
C539   C699    1.332   .     S
C539   H719    1.088   .     S
C540   C541    1.436   .     S
C540   C857    1.332   1_545 S
C540   H879    1.086   1_545 S
C541   O578    1.281   .     A
C541   O572    1.281   .     A
C542   O579    1.269   .     A
C542   O573    1.269   .     A
C543   C548    1.387   .     A
C543   C72     1.391   1_556 S
C543   H80     1.083   1_556 S
C544   C547    1.450   .     S
C544   O568    1.278   .     A
C544   O570    1.268   .     A
C545   O569    1.283   .     A
C545   O571    1.283   .     A
C548   H565    1.083   .     S
C549   H566    1.076   .     S
C550   C551    1.424   .     A
C550   C72     1.417   1_556 S
C550   C75     1.426   1_556 S
C551   C555    1.410   .     A
C553   C554    1.391   .     A
C553   C69     1.400   1_556 S
C553   C75     1.424   1_556 S
C554   H562    1.084   .     S
C554   C555    1.382   .     A
C555   H558    1.080   .     S
H559   C591    1.086   .     S
H560   C857    1.088   1_545 S
H561   C699    1.086   .     S
H563   C69     1.084   1_556 S
O567   Zn583   1.933   .     S
O567   Zn580   1.961   .     S
O567   Zn581   1.952   .     S
O567   Zn582   1.925   .     S
O568   Zn581   1.930   .     S
O569   Zn583   1.945   .     S
O570   Zn582   1.943   .     S
O571   Zn580   1.931   .     S
O572   Zn580   1.929   .     S
O573   Zn583   1.926   .     S
O574   Zn581   1.925   .     S
O575   Zn582   1.939   .     S
O576   Zn583   1.935   .     S
O577   Zn580   1.921   .     S
O578   Zn581   1.933   .     S
O579   Zn582   1.930   .     S
C585   O629    1.272   .     A
C585   C591    1.439   .     S
C585   O627    1.274   .     A
C586   C600    1.393   .     A
C586   C605    1.411   .     A
C586   H617    1.077   .     S
C587   C599    1.387   .     A
C587   H609    1.084   .     S
C587   C600    1.396   .     A
C588   O630    1.278   .     A
C588   C590    1.458   .     S
C588   O628    1.279   .     A
C589   C601    1.402   .     A
C589   C598    1.475   .     S
C589   C604    1.419   .     A
C590   Br478   1.929   1_655 S
C590   C485    1.339   1_655 S
C592   C595    1.452   .     S
C592   C752    1.332   .     S
C592   H772    1.088   .     S
C593   C594    1.436   .     S
C593   C910    1.332   1_545 S
C593   H932    1.086   1_545 S
C594   O631    1.281   .     A
C594   O625    1.281   .     A
C595   O632    1.269   .     A
C595   O626    1.269   .     A
C596   C601    1.387   .     A
C596   C125    1.391   1_556 S
C596   H133    1.083   1_556 S
C597   C600    1.450   .     S
C597   O621    1.278   .     A
C597   O623    1.268   .     A
C598   O622    1.283   .     A
C598   O624    1.283   .     A
C601   H618    1.083   .     S
C602   H619    1.076   .     S
C603   C604    1.424   .     A
C603   C125    1.417   1_556 S
C603   C128    1.426   1_556 S
C604   C608    1.410   .     A
C606   C607    1.391   .     A
C606   C122    1.400   1_556 S
C606   C128    1.424   1_556 S
C607   H615    1.084   .     S
C607   C608    1.382   .     A
C608   H611    1.080   .     S
H612   C485    1.086   1_655 S
H613   C910    1.088   1_545 S
H614   C752    1.086   .     S
H616   C122    1.084   1_556 S
O620   Zn636   1.933   .     S
O620   Zn633   1.961   .     S
O620   Zn634   1.952   .     S
O620   Zn635   1.925   .     S
O621   Zn634   1.930   .     S
O622   Zn636   1.945   .     S
O623   Zn635   1.943   .     S
O624   Zn633   1.931   .     S
O625   Zn633   1.929   .     S
O626   Zn636   1.926   .     S
O627   Zn634   1.925   .     S
O628   Zn635   1.939   .     S
O629   Zn636   1.935   .     S
O630   Zn633   1.921   .     S
O631   Zn634   1.933   .     S
O632   Zn635   1.930   .     S
Br637  C749    1.929   1_455 S
C638   O682    1.272   .     A
C638   C644    1.439   .     S
C638   O680    1.274   .     A
C639   C653    1.393   .     A
C639   C658    1.411   .     A
C639   H670    1.077   .     S
C640   C652    1.387   .     A
C640   H662    1.084   .     S
C640   C653    1.396   .     A
C641   O683    1.278   .     A
C641   C643    1.458   .     S
C641   O681    1.279   .     A
C642   C654    1.402   .     A
C642   C651    1.475   .     S
C642   C657    1.419   .     A
C643   Br690   1.929   .     S
C643   C697    1.339   .     S
C644   C749    1.339   1_455 S
C644   H771    1.086   1_455 S
C645   C648    1.452   .     S
C645   C805    1.332   .     S
C645   H825    1.088   .     S
C646   C647    1.436   .     S
C647   O684    1.281   .     A
C647   O678    1.281   .     A
C648   O685    1.269   .     A
C648   O679    1.269   .     A
C649   C654    1.387   .     A
C649   C178    1.391   1_556 S
C649   H186    1.083   1_556 S
C650   C653    1.450   .     S
C650   O674    1.278   .     A
C650   O676    1.268   .     A
C651   O675    1.283   .     A
C651   O677    1.283   .     A
C654   H671    1.083   .     S
C655   H672    1.076   .     S
C656   C657    1.424   .     A
C656   C178    1.417   1_556 S
C656   C181    1.426   1_556 S
C657   C661    1.410   .     A
C659   C660    1.391   .     A
C659   C175    1.400   1_556 S
C659   C181    1.424   1_556 S
C660   H668    1.084   .     S
C660   C661    1.382   .     A
C661   H664    1.080   .     S
H665   C697    1.086   .     S
H667   C805    1.086   .     S
H669   C175    1.084   1_556 S
O673   Zn689   1.933   .     S
O673   Zn686   1.961   .     S
O673   Zn687   1.952   .     S
O673   Zn688   1.925   .     S
O674   Zn687   1.930   .     S
O675   Zn689   1.945   .     S
O676   Zn688   1.943   .     S
O677   Zn686   1.931   .     S
O678   Zn686   1.929   .     S
O679   Zn689   1.926   .     S
O680   Zn687   1.925   .     S
O681   Zn688   1.939   .     S
O682   Zn689   1.935   .     S
O683   Zn686   1.921   .     S
O684   Zn687   1.933   .     S
O685   Zn688   1.930   .     S
C691   O735    1.272   .     A
C691   C697    1.439   .     S
C691   O733    1.274   .     A
C692   C706    1.393   .     A
C692   C711    1.411   .     A
C692   H723    1.077   .     S
C693   C705    1.387   .     A
C693   H715    1.084   .     S
C693   C706    1.396   .     A
C694   O736    1.278   .     A
C694   C696    1.458   .     S
C694   O734    1.279   .     A
C695   C707    1.402   .     A
C695   C704    1.475   .     S
C695   C710    1.419   .     A
C696   Br743   1.929   .     S
C696   C750    1.339   .     S
C698   C701    1.452   .     S
C698   C858    1.332   .     S
C698   H878    1.088   .     S
C699   C700    1.436   .     S
C700   O737    1.281   .     A
C700   O731    1.281   .     A
C701   O738    1.269   .     A
C701   O732    1.269   .     A
C702   C707    1.387   .     A
C702   C231    1.391   1_556 S
C702   H239    1.083   1_556 S
C703   C706    1.450   .     S
C703   O727    1.278   .     A
C703   O729    1.268   .     A
C704   O728    1.283   .     A
C704   O730    1.283   .     A
C707   H724    1.083   .     S
C708   H725    1.076   .     S
C709   C710    1.424   .     A
C709   C231    1.417   1_556 S
C709   C234    1.426   1_556 S
C710   C714    1.410   .     A
C712   C713    1.391   .     A
C712   C228    1.400   1_556 S
C712   C234    1.424   1_556 S
C713   H721    1.084   .     S
C713   C714    1.382   .     A
C714   H717    1.080   .     S
H718   C750    1.086   .     S
H720   C858    1.086   .     S
H722   C228    1.084   1_556 S
O726   Zn742   1.933   .     S
O726   Zn739   1.961   .     S
O726   Zn740   1.952   .     S
O726   Zn741   1.925   .     S
O727   Zn740   1.930   .     S
O728   Zn742   1.945   .     S
O729   Zn741   1.943   .     S
O730   Zn739   1.931   .     S
O731   Zn739   1.929   .     S
O732   Zn742   1.926   .     S
O733   Zn740   1.925   .     S
O734   Zn741   1.939   .     S
O735   Zn742   1.935   .     S
O736   Zn739   1.921   .     S
O737   Zn740   1.933   .     S
O738   Zn741   1.930   .     S
C744   O788    1.272   .     A
C744   C750    1.439   .     S
C744   O786    1.274   .     A
C745   C759    1.393   .     A
C745   C764    1.411   .     A
C745   H776    1.077   .     S
C746   C758    1.387   .     A
C746   H768    1.084   .     S
C746   C759    1.396   .     A
C747   O789    1.278   .     A
C747   C749    1.458   .     S
C747   O787    1.279   .     A
C748   C760    1.402   .     A
C748   C757    1.475   .     S
C748   C763    1.419   .     A
C749   Br637   1.929   1_655 S
C749   C644    1.339   1_655 S
C751   C754    1.452   .     S
C751   C911    1.332   .     S
C751   H931    1.088   .     S
C752   C753    1.436   .     S
C753   O790    1.281   .     A
C753   O784    1.281   .     A
C754   O791    1.269   .     A
C754   O785    1.269   .     A
C755   C760    1.387   .     A
C755   C284    1.391   1_556 S
C755   H292    1.083   1_556 S
C756   C759    1.450   .     S
C756   O780    1.278   .     A
C756   O782    1.268   .     A
C757   O781    1.283   .     A
C757   O783    1.283   .     A
C760   H777    1.083   .     S
C761   H778    1.076   .     S
C762   C763    1.424   .     A
C762   C284    1.417   1_556 S
C762   C287    1.426   1_556 S
C763   C767    1.410   .     A
C765   C766    1.391   .     A
C765   C281    1.400   1_556 S
C765   C287    1.424   1_556 S
C766   H774    1.084   .     S
C766   C767    1.382   .     A
C767   H770    1.080   .     S
H771   C644    1.086   1_655 S
H773   C911    1.086   .     S
H775   C281    1.084   1_556 S
O779   Zn795   1.933   .     S
O779   Zn792   1.961   .     S
O779   Zn793   1.952   .     S
O779   Zn794   1.925   .     S
O780   Zn793   1.930   .     S
O781   Zn795   1.945   .     S
O782   Zn794   1.943   .     S
O783   Zn792   1.931   .     S
O784   Zn792   1.929   .     S
O785   Zn795   1.926   .     S
O786   Zn793   1.925   .     S
O787   Zn794   1.939   .     S
O788   Zn795   1.935   .     S
O789   Zn792   1.921   .     S
O790   Zn793   1.933   .     S
O791   Zn794   1.930   .     S
Br796  C908    1.929   1_455 S
C797   O841    1.272   .     A
C797   C803    1.439   .     S
C797   O839    1.274   .     A
C798   C812    1.393   .     A
C798   C817    1.411   .     A
C798   H829    1.077   .     S
C799   C811    1.387   .     A
C799   H821    1.084   .     S
C799   C812    1.396   .     A
C800   O842    1.278   .     A
C800   C802    1.458   .     S
C800   O840    1.279   .     A
C801   C813    1.402   .     A
C801   C810    1.475   .     S
C801   C816    1.419   .     A
C802   Br849   1.929   .     S
C802   C856    1.339   .     S
C803   C908    1.339   1_455 S
C803   H930    1.086   1_455 S
C804   C807    1.452   .     S
C804   C487    1.332   1_565 S
C804   H507    1.088   1_565 S
C805   C806    1.436   .     S
C806   O843    1.281   .     A
C806   O837    1.281   .     A
C807   O844    1.269   .     A
C807   O838    1.269   .     A
C808   C813    1.387   .     A
C808   C337    1.391   1_556 S
C808   H345    1.083   1_556 S
C809   C812    1.450   .     S
C809   O833    1.278   .     A
C809   O835    1.268   .     A
C810   O834    1.283   .     A
C810   O836    1.283   .     A
C813   H830    1.083   .     S
C814   H831    1.076   .     S
C815   C816    1.424   .     A
C815   C337    1.417   1_556 S
C815   C340    1.426   1_556 S
C816   C820    1.410   .     A
C818   C819    1.391   .     A
C818   C334    1.400   1_556 S
C818   C340    1.424   1_556 S
C819   H827    1.084   .     S
C819   C820    1.382   .     A
C820   H823    1.080   .     S
H824   C856    1.086   .     S
H826   C487    1.086   1_565 S
H828   C334    1.084   1_556 S
O832   Zn848   1.933   .     S
O832   Zn845   1.961   .     S
O832   Zn846   1.952   .     S
O832   Zn847   1.925   .     S
O833   Zn846   1.930   .     S
O834   Zn848   1.945   .     S
O835   Zn847   1.943   .     S
O836   Zn845   1.931   .     S
O837   Zn845   1.929   .     S
O838   Zn848   1.926   .     S
O839   Zn846   1.925   .     S
O840   Zn847   1.939   .     S
O841   Zn848   1.935   .     S
O842   Zn845   1.921   .     S
O843   Zn846   1.933   .     S
O844   Zn847   1.930   .     S
C850   O894    1.272   .     A
C850   C856    1.439   .     S
C850   O892    1.274   .     A
C851   C865    1.393   .     A
C851   C870    1.411   .     A
C851   H882    1.077   .     S
C852   C864    1.387   .     A
C852   H874    1.084   .     S
C852   C865    1.396   .     A
C853   O895    1.278   .     A
C853   C855    1.458   .     S
C853   O893    1.279   .     A
C854   C866    1.402   .     A
C854   C863    1.475   .     S
C854   C869    1.419   .     A
C855   Br902   1.929   .     S
C855   C909    1.339   .     S
C857   C860    1.452   .     S
C857   C540    1.332   1_565 S
C857   H560    1.088   1_565 S
C858   C859    1.436   .     S
C859   O896    1.281   .     A
C859   O890    1.281   .     A
C860   O897    1.269   .     A
C860   O891    1.269   .     A
C861   C866    1.387   .     A
C861   C390    1.391   1_556 S
C861   H398    1.083   1_556 S
C862   C865    1.450   .     S
C862   O886    1.278   .     A
C862   O888    1.268   .     A
C863   O887    1.283   .     A
C863   O889    1.283   .     A
C866   H883    1.083   .     S
C867   H884    1.076   .     S
C868   C869    1.424   .     A
C868   C390    1.417   1_556 S
C868   C393    1.426   1_556 S
C869   C873    1.410   .     A
C871   C872    1.391   .     A
C871   C387    1.400   1_556 S
C871   C393    1.424   1_556 S
C872   H880    1.084   .     S
C872   C873    1.382   .     A
C873   H876    1.080   .     S
H877   C909    1.086   .     S
H879   C540    1.086   1_565 S
H881   C387    1.084   1_556 S
O885   Zn901   1.933   .     S
O885   Zn898   1.961   .     S
O885   Zn899   1.952   .     S
O885   Zn900   1.925   .     S
O886   Zn899   1.930   .     S
O887   Zn901   1.945   .     S
O888   Zn900   1.943   .     S
O889   Zn898   1.931   .     S
O890   Zn898   1.929   .     S
O891   Zn901   1.926   .     S
O892   Zn899   1.925   .     S
O893   Zn900   1.939   .     S
O894   Zn901   1.935   .     S
O895   Zn898   1.921   .     S
O896   Zn899   1.933   .     S
O897   Zn900   1.930   .     S
C903   O947    1.272   .     A
C903   C909    1.439   .     S
C903   O945    1.274   .     A
C904   C918    1.393   .     A
C904   C923    1.411   .     A
C904   H935    1.077   .     S
C905   C917    1.387   .     A
C905   H927    1.084   .     S
C905   C918    1.396   .     A
C906   O948    1.278   .     A
C906   C908    1.458   .     S
C906   O946    1.279   .     A
C907   C919    1.402   .     A
C907   C916    1.475   .     S
C907   C922    1.419   .     A
C908   Br796   1.929   1_655 S
C908   C803    1.339   1_655 S
C910   C913    1.452   .     S
C910   C593    1.332   1_565 S
C910   H613    1.088   1_565 S
C911   C912    1.436   .     S
C912   O949    1.281   .     A
C912   O943    1.281   .     A
C913   O950    1.269   .     A
C913   O944    1.269   .     A
C914   C919    1.387   .     A
C914   C443    1.391   1_556 S
C914   H451    1.083   1_556 S
C915   C918    1.450   .     S
C915   O939    1.278   .     A
C915   O941    1.268   .     A
C916   O940    1.283   .     A
C916   O942    1.283   .     A
C919   H936    1.083   .     S
C920   H937    1.076   .     S
C921   C922    1.424   .     A
C921   C443    1.417   1_556 S
C921   C446    1.426   1_556 S
C922   C926    1.410   .     A
C924   C925    1.391   .     A
C924   C440    1.400   1_556 S
C924   C446    1.424   1_556 S
C925   H933    1.084   .     S
C925   C926    1.382   .     A
C926   H929    1.080   .     S
H930   C803    1.086   1_655 S
H932   C593    1.086   1_565 S
H934   C440    1.084   1_556 S
O938   Zn954   1.933   .     S
O938   Zn951   1.961   .     S
O938   Zn952   1.952   .     S
O938   Zn953   1.925   .     S
O939   Zn952   1.930   .     S
O940   Zn954   1.945   .     S
O941   Zn953   1.943   .     S
O942   Zn951   1.931   .     S
O943   Zn951   1.929   .     S
O944   Zn954   1.926   .     S
O945   Zn952   1.925   .     S
O946   Zn953   1.939   .     S
O947   Zn954   1.935   .     S
O948   Zn951   1.921   .     S
O949   Zn952   1.933   .     S
O950   Zn953   1.930   .     S
