data_str_m2_o10_o17_pcu_sym.230
_audit_creation_date              2020-01-03
_audit_creation_method            'Materials Studio'
_symmetry_space_group_name_H-M    'P1'
_symmetry_Int_Tables_number       1
_symmetry_cell_setting            triclinic
loop_
_symmetry_equiv_pos_as_xyz
  x,y,z
_cell_length_a                    30.0761
_cell_length_b                    26.2238
_cell_length_c                    22.3313
_cell_angle_alpha                 102.8931
_cell_angle_beta                  94.5419
_cell_angle_gamma                 92.7683
loop_
_atom_site_label
_atom_site_type_symbol
_atom_site_fract_x
_atom_site_fract_y
_atom_site_fract_z
_atom_site_U_iso_or_equiv
_atom_site_adp_type
_atom_site_occupancy
C1     C     0.24626   0.06668   0.15127   0.00000  Uiso   1.00
C2     C     0.24927   0.26643   0.18216   0.00000  Uiso   1.00
C3     C     0.01545   0.13010   0.05597   0.00000  Uiso   1.00
C4     C     0.48466   0.20432   0.27736   0.00000  Uiso   1.00
C5     C     0.24045   0.01076   0.14241   0.00000  Uiso   1.00
C6     C     0.24489   0.32180   0.19129   0.00000  Uiso   1.00
C7     C     0.16436   0.16635   0.16719   0.00000  Uiso   1.00
C8     C     0.33566   0.16714   0.16616   0.00000  Uiso   1.00
C9     C     0.41118   0.18605   0.22122   0.00000  Uiso   1.00
C10    C     0.08889   0.14799   0.11215   0.00000  Uiso   1.00
C11    C     0.38408   0.16798   0.16563   0.00000  Uiso   1.00
C12    C     0.11599   0.16592   0.16775   0.00000  Uiso   1.00
C13    C     0.40330   0.15020   0.11028   0.00000  Uiso   1.00
C14    C     0.09682   0.18399   0.22308   0.00000  Uiso   1.00
C15    C     0.44959   0.14953   0.11034   0.00000  Uiso   1.00
C16    C     0.05053   0.18486   0.22301   0.00000  Uiso   1.00
C17    C     0.47678   0.16754   0.16641   0.00000  Uiso   1.00
C18    C     0.02333   0.16686   0.16693   0.00000  Uiso   1.00
C19    C     0.45746   0.18614   0.22198   0.00000  Uiso   1.00
C20    C     0.04264   0.14818   0.11137   0.00000  Uiso   1.00
C21    C     0.46913   0.13084   0.05544   0.00000  Uiso   1.00
C22    C     0.03099   0.20364   0.27788   0.00000  Uiso   1.00
Cu23   Cu    0.25501   0.17246   0.22813   0.00000  Uiso   1.00
Cu24   Cu    0.24500   0.16087   0.10521   0.00000  Uiso   1.00
H25    H     0.39631   0.20021   0.26401   0.00000  Uiso   1.00
H26    H     0.10374   0.13367   0.06937   0.00000  Uiso   1.00
H27    H     0.38227   0.13611   0.06742   0.00000  Uiso   1.00
H28    H     0.11787   0.19807   0.26594   0.00000  Uiso   1.00
H29    H     0.44862   0.11687   0.01215   0.00000  Uiso   1.00
H30    H     0.05151   0.21764   0.32116   0.00000  Uiso   1.00
H31    H     0.03002   0.11554   0.01307   0.00000  Uiso   1.00
H32    H     0.47010   0.21887   0.32025   0.00000  Uiso   1.00
H33    H     0.21318   0.12842   0.31643   0.00000  Uiso   1.00
H34    H     0.28617   0.20599   0.01704   0.00000  Uiso   1.00
N35    N     0.23745   0.15214   0.01284   0.00000  Uiso   1.00
N36    N     0.26256   0.18119   0.32049   0.00000  Uiso   1.00
O37    O     0.25326   0.09538   0.20659   0.00000  Uiso   1.00
O38    O     0.24675   0.23796   0.12674   0.00000  Uiso   1.00
O39    O     0.24480   0.08559   0.10279   0.00000  Uiso   1.00
O40    O     0.25520   0.24774   0.23055   0.00000  Uiso   1.00
O41    O     0.18936   0.17155   0.21857   0.00000  Uiso   1.00
O42    O     0.31065   0.16179   0.11476   0.00000  Uiso   1.00
O43    O     0.18090   0.16176   0.11477   0.00000  Uiso   1.00
O44    O     0.31910   0.17157   0.21857   0.00000  Uiso   1.00
O45    O     0.23182   0.31467   0.08230   0.00000  Uiso   1.00
C46    C     0.18504   0.30464   0.06957   0.00000  Uiso   1.00
H47    H     0.16826   0.00821   0.06950   0.00000  Uiso   1.00
H48    H     0.17041   0.28421   0.10288   0.00000  Uiso   1.00
H49    H     0.17799   0.27830   0.02310   0.00000  Uiso   1.00
O50    O     0.24613   0.01738   0.25159   0.00000  Uiso   1.00
C51    C     0.20196   0.01788   0.26883   0.00000  Uiso   1.00
H52    H     0.18645   0.31087   0.26364   0.00000  Uiso   1.00
H53    H     0.18080   0.03995   0.24166   0.00000  Uiso   1.00
H54    H     0.20278   0.03803   0.31811   0.00000  Uiso   1.00
C55    C     0.74626   0.06668   0.15127   0.00000  Uiso   1.00
C56    C     0.74927   0.26643   0.18216   0.00000  Uiso   1.00
C57    C     0.51545   0.13010   0.05597   0.00000  Uiso   1.00
C58    C     0.98466   0.20432   0.27736   0.00000  Uiso   1.00
C59    C     0.74045   0.01076   0.14241   0.00000  Uiso   1.00
C60    C     0.74489   0.32180   0.19129   0.00000  Uiso   1.00
C61    C     0.66436   0.16635   0.16719   0.00000  Uiso   1.00
C62    C     0.83566   0.16714   0.16616   0.00000  Uiso   1.00
C63    C     0.91118   0.18605   0.22122   0.00000  Uiso   1.00
C64    C     0.58889   0.14799   0.11215   0.00000  Uiso   1.00
C65    C     0.88408   0.16798   0.16563   0.00000  Uiso   1.00
C66    C     0.61599   0.16592   0.16775   0.00000  Uiso   1.00
C67    C     0.90330   0.15020   0.11028   0.00000  Uiso   1.00
C68    C     0.59682   0.18399   0.22308   0.00000  Uiso   1.00
C69    C     0.94959   0.14953   0.11034   0.00000  Uiso   1.00
C70    C     0.55053   0.18486   0.22301   0.00000  Uiso   1.00
C71    C     0.97678   0.16754   0.16641   0.00000  Uiso   1.00
C72    C     0.52333   0.16686   0.16693   0.00000  Uiso   1.00
C73    C     0.95746   0.18614   0.22198   0.00000  Uiso   1.00
C74    C     0.54264   0.14818   0.11137   0.00000  Uiso   1.00
C75    C     0.96913   0.13084   0.05544   0.00000  Uiso   1.00
C76    C     0.53099   0.20364   0.27788   0.00000  Uiso   1.00
Cu77   Cu    0.75501   0.17246   0.22813   0.00000  Uiso   1.00
Cu78   Cu    0.74500   0.16087   0.10521   0.00000  Uiso   1.00
H79    H     0.89631   0.20021   0.26401   0.00000  Uiso   1.00
H80    H     0.60374   0.13367   0.06937   0.00000  Uiso   1.00
H81    H     0.88227   0.13611   0.06742   0.00000  Uiso   1.00
H82    H     0.61787   0.19807   0.26594   0.00000  Uiso   1.00
H83    H     0.94862   0.11687   0.01215   0.00000  Uiso   1.00
H84    H     0.55151   0.21764   0.32116   0.00000  Uiso   1.00
H85    H     0.53002   0.11554   0.01307   0.00000  Uiso   1.00
H86    H     0.97010   0.21887   0.32025   0.00000  Uiso   1.00
H87    H     0.71318   0.12842   0.31643   0.00000  Uiso   1.00
H88    H     0.78617   0.20599   0.01704   0.00000  Uiso   1.00
N89    N     0.73745   0.15214   0.01284   0.00000  Uiso   1.00
N90    N     0.76256   0.18119   0.32049   0.00000  Uiso   1.00
O91    O     0.75326   0.09538   0.20659   0.00000  Uiso   1.00
O92    O     0.74675   0.23796   0.12674   0.00000  Uiso   1.00
O93    O     0.74480   0.08559   0.10279   0.00000  Uiso   1.00
O94    O     0.75520   0.24774   0.23055   0.00000  Uiso   1.00
O95    O     0.68936   0.17155   0.21857   0.00000  Uiso   1.00
O96    O     0.81065   0.16179   0.11476   0.00000  Uiso   1.00
O97    O     0.68090   0.16176   0.11477   0.00000  Uiso   1.00
O98    O     0.81910   0.17157   0.21857   0.00000  Uiso   1.00
O99    O     0.73182   0.31467   0.08230   0.00000  Uiso   1.00
C100   C     0.68504   0.30464   0.06957   0.00000  Uiso   1.00
H101   H     0.66826   0.00821   0.06950   0.00000  Uiso   1.00
H102   H     0.67041   0.28421   0.10288   0.00000  Uiso   1.00
H103   H     0.67799   0.27830   0.02310   0.00000  Uiso   1.00
O104   O     0.74613   0.01738   0.25159   0.00000  Uiso   1.00
C105   C     0.70196   0.01788   0.26883   0.00000  Uiso   1.00
H106   H     0.68645   0.31087   0.26364   0.00000  Uiso   1.00
H107   H     0.68080   0.03995   0.24166   0.00000  Uiso   1.00
H108   H     0.70278   0.03803   0.31811   0.00000  Uiso   1.00
C109   C     0.24626   0.40001   0.15127   0.00000  Uiso   1.00
C110   C     0.24927   0.59977   0.18216   0.00000  Uiso   1.00
C111   C     0.01545   0.46343   0.05597   0.00000  Uiso   1.00
C112   C     0.48466   0.53766   0.27736   0.00000  Uiso   1.00
C113   C     0.24045   0.34409   0.14241   0.00000  Uiso   1.00
C114   C     0.24489   0.65514   0.19129   0.00000  Uiso   1.00
C115   C     0.16436   0.49968   0.16719   0.00000  Uiso   1.00
C116   C     0.33566   0.50048   0.16616   0.00000  Uiso   1.00
C117   C     0.41118   0.51938   0.22122   0.00000  Uiso   1.00
C118   C     0.08889   0.48132   0.11215   0.00000  Uiso   1.00
C119   C     0.38408   0.50131   0.16563   0.00000  Uiso   1.00
C120   C     0.11599   0.49925   0.16775   0.00000  Uiso   1.00
C121   C     0.40330   0.48353   0.11028   0.00000  Uiso   1.00
C122   C     0.09682   0.51732   0.22308   0.00000  Uiso   1.00
C123   C     0.44959   0.48286   0.11034   0.00000  Uiso   1.00
C124   C     0.05053   0.51819   0.22301   0.00000  Uiso   1.00
C125   C     0.47678   0.50087   0.16641   0.00000  Uiso   1.00
C126   C     0.02333   0.50020   0.16693   0.00000  Uiso   1.00
C127   C     0.45746   0.51947   0.22198   0.00000  Uiso   1.00
C128   C     0.04264   0.48151   0.11137   0.00000  Uiso   1.00
C129   C     0.46913   0.46417   0.05544   0.00000  Uiso   1.00
C130   C     0.03099   0.53698   0.27788   0.00000  Uiso   1.00
Cu131  Cu    0.25501   0.50579   0.22813   0.00000  Uiso   1.00
Cu132  Cu    0.24500   0.49421   0.10521   0.00000  Uiso   1.00
H133   H     0.39631   0.53355   0.26401   0.00000  Uiso   1.00
H134   H     0.10374   0.46701   0.06937   0.00000  Uiso   1.00
H135   H     0.38227   0.46945   0.06742   0.00000  Uiso   1.00
H136   H     0.11787   0.53140   0.26594   0.00000  Uiso   1.00
H137   H     0.44862   0.45021   0.01215   0.00000  Uiso   1.00
H138   H     0.05151   0.55097   0.32116   0.00000  Uiso   1.00
H139   H     0.03002   0.44888   0.01307   0.00000  Uiso   1.00
H140   H     0.47010   0.55221   0.32025   0.00000  Uiso   1.00
H141   H     0.21318   0.46176   0.31643   0.00000  Uiso   1.00
H142   H     0.28617   0.53933   0.01704   0.00000  Uiso   1.00
N143   N     0.23745   0.48547   0.01284   0.00000  Uiso   1.00
N144   N     0.26256   0.51453   0.32049   0.00000  Uiso   1.00
O145   O     0.25326   0.42871   0.20659   0.00000  Uiso   1.00
O146   O     0.24675   0.57129   0.12674   0.00000  Uiso   1.00
O147   O     0.24480   0.41892   0.10279   0.00000  Uiso   1.00
O148   O     0.25520   0.58108   0.23055   0.00000  Uiso   1.00
O149   O     0.18936   0.50488   0.21857   0.00000  Uiso   1.00
O150   O     0.31065   0.49512   0.11476   0.00000  Uiso   1.00
O151   O     0.18090   0.49510   0.11477   0.00000  Uiso   1.00
O152   O     0.31910   0.50490   0.21857   0.00000  Uiso   1.00
O153   O     0.23182   0.64800   0.08230   0.00000  Uiso   1.00
C154   C     0.18504   0.63797   0.06957   0.00000  Uiso   1.00
H155   H     0.16826   0.34154   0.06950   0.00000  Uiso   1.00
H156   H     0.17041   0.61755   0.10288   0.00000  Uiso   1.00
H157   H     0.17799   0.61164   0.02310   0.00000  Uiso   1.00
O158   O     0.24613   0.35071   0.25159   0.00000  Uiso   1.00
C159   C     0.20196   0.35122   0.26883   0.00000  Uiso   1.00
H160   H     0.18645   0.64421   0.26364   0.00000  Uiso   1.00
H161   H     0.18080   0.37328   0.24166   0.00000  Uiso   1.00
H162   H     0.20278   0.37137   0.31811   0.00000  Uiso   1.00
C163   C     0.74626   0.40001   0.15127   0.00000  Uiso   1.00
C164   C     0.74927   0.59977   0.18216   0.00000  Uiso   1.00
C165   C     0.51545   0.46343   0.05597   0.00000  Uiso   1.00
C166   C     0.98466   0.53766   0.27736   0.00000  Uiso   1.00
C167   C     0.74045   0.34409   0.14241   0.00000  Uiso   1.00
C168   C     0.74489   0.65514   0.19129   0.00000  Uiso   1.00
C169   C     0.66436   0.49968   0.16719   0.00000  Uiso   1.00
C170   C     0.83566   0.50048   0.16616   0.00000  Uiso   1.00
C171   C     0.91118   0.51938   0.22122   0.00000  Uiso   1.00
C172   C     0.58889   0.48132   0.11215   0.00000  Uiso   1.00
C173   C     0.88408   0.50131   0.16563   0.00000  Uiso   1.00
C174   C     0.61599   0.49925   0.16775   0.00000  Uiso   1.00
C175   C     0.90330   0.48353   0.11028   0.00000  Uiso   1.00
C176   C     0.59682   0.51732   0.22308   0.00000  Uiso   1.00
C177   C     0.94959   0.48286   0.11034   0.00000  Uiso   1.00
C178   C     0.55053   0.51819   0.22301   0.00000  Uiso   1.00
C179   C     0.97678   0.50087   0.16641   0.00000  Uiso   1.00
C180   C     0.52333   0.50020   0.16693   0.00000  Uiso   1.00
C181   C     0.95746   0.51947   0.22198   0.00000  Uiso   1.00
C182   C     0.54264   0.48151   0.11137   0.00000  Uiso   1.00
C183   C     0.96913   0.46417   0.05544   0.00000  Uiso   1.00
C184   C     0.53099   0.53698   0.27788   0.00000  Uiso   1.00
Cu185  Cu    0.75501   0.50579   0.22813   0.00000  Uiso   1.00
Cu186  Cu    0.74500   0.49421   0.10521   0.00000  Uiso   1.00
H187   H     0.89631   0.53355   0.26401   0.00000  Uiso   1.00
H188   H     0.60374   0.46701   0.06937   0.00000  Uiso   1.00
H189   H     0.88227   0.46945   0.06742   0.00000  Uiso   1.00
H190   H     0.61787   0.53140   0.26594   0.00000  Uiso   1.00
H191   H     0.94862   0.45021   0.01215   0.00000  Uiso   1.00
H192   H     0.55151   0.55097   0.32116   0.00000  Uiso   1.00
H193   H     0.53002   0.44888   0.01307   0.00000  Uiso   1.00
H194   H     0.97010   0.55221   0.32025   0.00000  Uiso   1.00
H195   H     0.71318   0.46176   0.31643   0.00000  Uiso   1.00
H196   H     0.78617   0.53933   0.01704   0.00000  Uiso   1.00
N197   N     0.73745   0.48547   0.01284   0.00000  Uiso   1.00
N198   N     0.76256   0.51453   0.32049   0.00000  Uiso   1.00
O199   O     0.75326   0.42871   0.20659   0.00000  Uiso   1.00
O200   O     0.74675   0.57129   0.12674   0.00000  Uiso   1.00
O201   O     0.74480   0.41892   0.10279   0.00000  Uiso   1.00
O202   O     0.75520   0.58108   0.23055   0.00000  Uiso   1.00
O203   O     0.68936   0.50488   0.21857   0.00000  Uiso   1.00
O204   O     0.81065   0.49512   0.11476   0.00000  Uiso   1.00
O205   O     0.68090   0.49510   0.11477   0.00000  Uiso   1.00
O206   O     0.81910   0.50490   0.21857   0.00000  Uiso   1.00
O207   O     0.73182   0.64800   0.08230   0.00000  Uiso   1.00
C208   C     0.68504   0.63797   0.06957   0.00000  Uiso   1.00
H209   H     0.66826   0.34154   0.06950   0.00000  Uiso   1.00
H210   H     0.67041   0.61755   0.10288   0.00000  Uiso   1.00
H211   H     0.67799   0.61164   0.02310   0.00000  Uiso   1.00
O212   O     0.74613   0.35071   0.25159   0.00000  Uiso   1.00
C213   C     0.70196   0.35122   0.26883   0.00000  Uiso   1.00
H214   H     0.68645   0.64421   0.26364   0.00000  Uiso   1.00
H215   H     0.68080   0.37328   0.24166   0.00000  Uiso   1.00
H216   H     0.70278   0.37137   0.31811   0.00000  Uiso   1.00
C217   C     0.24626   0.73335   0.15127   0.00000  Uiso   1.00
C218   C     0.24927   0.93310   0.18216   0.00000  Uiso   1.00
C219   C     0.01545   0.79677   0.05597   0.00000  Uiso   1.00
C220   C     0.48466   0.87099   0.27736   0.00000  Uiso   1.00
C221   C     0.24045   0.67742   0.14241   0.00000  Uiso   1.00
C222   C     0.24489   0.98847   0.19129   0.00000  Uiso   1.00
C223   C     0.16436   0.83301   0.16719   0.00000  Uiso   1.00
C224   C     0.33566   0.83381   0.16616   0.00000  Uiso   1.00
C225   C     0.41118   0.85272   0.22122   0.00000  Uiso   1.00
C226   C     0.08889   0.81466   0.11215   0.00000  Uiso   1.00
C227   C     0.38408   0.83465   0.16563   0.00000  Uiso   1.00
C228   C     0.11599   0.83258   0.16775   0.00000  Uiso   1.00
C229   C     0.40330   0.81687   0.11028   0.00000  Uiso   1.00
C230   C     0.09682   0.85066   0.22308   0.00000  Uiso   1.00
C231   C     0.44959   0.81620   0.11034   0.00000  Uiso   1.00
C232   C     0.05053   0.85152   0.22301   0.00000  Uiso   1.00
C233   C     0.47678   0.83420   0.16641   0.00000  Uiso   1.00
C234   C     0.02333   0.83353   0.16693   0.00000  Uiso   1.00
C235   C     0.45746   0.85281   0.22198   0.00000  Uiso   1.00
C236   C     0.04264   0.81485   0.11137   0.00000  Uiso   1.00
C237   C     0.46913   0.79750   0.05544   0.00000  Uiso   1.00
C238   C     0.03099   0.87031   0.27788   0.00000  Uiso   1.00
Cu239  Cu    0.25501   0.83913   0.22813   0.00000  Uiso   1.00
Cu240  Cu    0.24500   0.82754   0.10521   0.00000  Uiso   1.00
H241   H     0.39631   0.86688   0.26401   0.00000  Uiso   1.00
H242   H     0.10374   0.80034   0.06937   0.00000  Uiso   1.00
H243   H     0.38227   0.80278   0.06742   0.00000  Uiso   1.00
H244   H     0.11787   0.86474   0.26594   0.00000  Uiso   1.00
H245   H     0.44862   0.78354   0.01215   0.00000  Uiso   1.00
H246   H     0.05151   0.88430   0.32116   0.00000  Uiso   1.00
H247   H     0.03002   0.78221   0.01307   0.00000  Uiso   1.00
H248   H     0.47010   0.88554   0.32025   0.00000  Uiso   1.00
H249   H     0.21318   0.79509   0.31643   0.00000  Uiso   1.00
H250   H     0.28617   0.87266   0.01704   0.00000  Uiso   1.00
N251   N     0.23745   0.81881   0.01284   0.00000  Uiso   1.00
N252   N     0.26256   0.84786   0.32049   0.00000  Uiso   1.00
O253   O     0.25326   0.76204   0.20659   0.00000  Uiso   1.00
O254   O     0.24675   0.90462   0.12674   0.00000  Uiso   1.00
O255   O     0.24480   0.75226   0.10279   0.00000  Uiso   1.00
O256   O     0.25520   0.91441   0.23055   0.00000  Uiso   1.00
O257   O     0.18936   0.83821   0.21857   0.00000  Uiso   1.00
O258   O     0.31065   0.82845   0.11476   0.00000  Uiso   1.00
O259   O     0.18090   0.82843   0.11477   0.00000  Uiso   1.00
O260   O     0.31910   0.83824   0.21857   0.00000  Uiso   1.00
O261   O     0.23182   0.98134   0.08230   0.00000  Uiso   1.00
C262   C     0.18504   0.97131   0.06957   0.00000  Uiso   1.00
H263   H     0.16826   0.67488   0.06950   0.00000  Uiso   1.00
H264   H     0.17041   0.95088   0.10288   0.00000  Uiso   1.00
H265   H     0.17799   0.94497   0.02310   0.00000  Uiso   1.00
O266   O     0.24613   0.68404   0.25159   0.00000  Uiso   1.00
C267   C     0.20196   0.68455   0.26883   0.00000  Uiso   1.00
H268   H     0.18645   0.97754   0.26364   0.00000  Uiso   1.00
H269   H     0.18080   0.70661   0.24166   0.00000  Uiso   1.00
H270   H     0.20278   0.70470   0.31811   0.00000  Uiso   1.00
C271   C     0.74626   0.73335   0.15127   0.00000  Uiso   1.00
C272   C     0.74927   0.93310   0.18216   0.00000  Uiso   1.00
C273   C     0.51545   0.79677   0.05597   0.00000  Uiso   1.00
C274   C     0.98466   0.87099   0.27736   0.00000  Uiso   1.00
C275   C     0.74045   0.67742   0.14241   0.00000  Uiso   1.00
C276   C     0.74489   0.98847   0.19129   0.00000  Uiso   1.00
C277   C     0.66436   0.83301   0.16719   0.00000  Uiso   1.00
C278   C     0.83566   0.83381   0.16616   0.00000  Uiso   1.00
C279   C     0.91118   0.85272   0.22122   0.00000  Uiso   1.00
C280   C     0.58889   0.81466   0.11215   0.00000  Uiso   1.00
C281   C     0.88408   0.83465   0.16563   0.00000  Uiso   1.00
C282   C     0.61599   0.83258   0.16775   0.00000  Uiso   1.00
C283   C     0.90330   0.81687   0.11028   0.00000  Uiso   1.00
C284   C     0.59682   0.85066   0.22308   0.00000  Uiso   1.00
C285   C     0.94959   0.81620   0.11034   0.00000  Uiso   1.00
C286   C     0.55053   0.85152   0.22301   0.00000  Uiso   1.00
C287   C     0.97678   0.83420   0.16641   0.00000  Uiso   1.00
C288   C     0.52333   0.83353   0.16693   0.00000  Uiso   1.00
C289   C     0.95746   0.85281   0.22198   0.00000  Uiso   1.00
C290   C     0.54264   0.81485   0.11137   0.00000  Uiso   1.00
C291   C     0.96913   0.79750   0.05544   0.00000  Uiso   1.00
C292   C     0.53099   0.87031   0.27788   0.00000  Uiso   1.00
Cu293  Cu    0.75501   0.83913   0.22813   0.00000  Uiso   1.00
Cu294  Cu    0.74500   0.82754   0.10521   0.00000  Uiso   1.00
H295   H     0.89631   0.86688   0.26401   0.00000  Uiso   1.00
H296   H     0.60374   0.80034   0.06937   0.00000  Uiso   1.00
H297   H     0.88227   0.80278   0.06742   0.00000  Uiso   1.00
H298   H     0.61787   0.86474   0.26594   0.00000  Uiso   1.00
H299   H     0.94862   0.78354   0.01215   0.00000  Uiso   1.00
H300   H     0.55151   0.88430   0.32116   0.00000  Uiso   1.00
H301   H     0.53002   0.78221   0.01307   0.00000  Uiso   1.00
H302   H     0.97010   0.88554   0.32025   0.00000  Uiso   1.00
H303   H     0.71318   0.79509   0.31643   0.00000  Uiso   1.00
H304   H     0.78617   0.87266   0.01704   0.00000  Uiso   1.00
N305   N     0.73745   0.81881   0.01284   0.00000  Uiso   1.00
N306   N     0.76256   0.84786   0.32049   0.00000  Uiso   1.00
O307   O     0.75326   0.76204   0.20659   0.00000  Uiso   1.00
O308   O     0.74675   0.90462   0.12674   0.00000  Uiso   1.00
O309   O     0.74480   0.75226   0.10279   0.00000  Uiso   1.00
O310   O     0.75520   0.91441   0.23055   0.00000  Uiso   1.00
O311   O     0.68936   0.83821   0.21857   0.00000  Uiso   1.00
O312   O     0.81065   0.82845   0.11476   0.00000  Uiso   1.00
O313   O     0.68090   0.82843   0.11477   0.00000  Uiso   1.00
O314   O     0.81910   0.83824   0.21857   0.00000  Uiso   1.00
O315   O     0.73182   0.98134   0.08230   0.00000  Uiso   1.00
C316   C     0.68504   0.97131   0.06957   0.00000  Uiso   1.00
H317   H     0.66826   0.67488   0.06950   0.00000  Uiso   1.00
H318   H     0.67041   0.95088   0.10288   0.00000  Uiso   1.00
H319   H     0.67799   0.94497   0.02310   0.00000  Uiso   1.00
O320   O     0.74613   0.68404   0.25159   0.00000  Uiso   1.00
C321   C     0.70196   0.68455   0.26883   0.00000  Uiso   1.00
H322   H     0.68645   0.97754   0.26364   0.00000  Uiso   1.00
H323   H     0.68080   0.70661   0.24166   0.00000  Uiso   1.00
H324   H     0.70278   0.70470   0.31811   0.00000  Uiso   1.00
C325   C     0.24626   0.06668   0.48460   0.00000  Uiso   1.00
C326   C     0.24927   0.26643   0.51549   0.00000  Uiso   1.00
C327   C     0.01545   0.13010   0.38930   0.00000  Uiso   1.00
C328   C     0.48466   0.20432   0.61069   0.00000  Uiso   1.00
C329   C     0.24045   0.01076   0.47574   0.00000  Uiso   1.00
C330   C     0.24489   0.32180   0.52463   0.00000  Uiso   1.00
C331   C     0.16436   0.16635   0.50053   0.00000  Uiso   1.00
C332   C     0.33566   0.16714   0.49950   0.00000  Uiso   1.00
C333   C     0.41118   0.18605   0.55456   0.00000  Uiso   1.00
C334   C     0.08889   0.14799   0.44548   0.00000  Uiso   1.00
C335   C     0.38408   0.16798   0.49897   0.00000  Uiso   1.00
C336   C     0.11599   0.16592   0.50108   0.00000  Uiso   1.00
C337   C     0.40330   0.15020   0.44361   0.00000  Uiso   1.00
C338   C     0.09682   0.18399   0.55642   0.00000  Uiso   1.00
C339   C     0.44959   0.14953   0.44367   0.00000  Uiso   1.00
C340   C     0.05053   0.18486   0.55634   0.00000  Uiso   1.00
C341   C     0.47678   0.16754   0.49974   0.00000  Uiso   1.00
C342   C     0.02333   0.16686   0.50027   0.00000  Uiso   1.00
C343   C     0.45746   0.18614   0.55531   0.00000  Uiso   1.00
C344   C     0.04264   0.14818   0.44470   0.00000  Uiso   1.00
C345   C     0.46913   0.13084   0.38877   0.00000  Uiso   1.00
C346   C     0.03099   0.20364   0.61122   0.00000  Uiso   1.00
Cu347  Cu    0.25501   0.17246   0.56146   0.00000  Uiso   1.00
Cu348  Cu    0.24500   0.16087   0.43854   0.00000  Uiso   1.00
H349   H     0.39631   0.20021   0.59734   0.00000  Uiso   1.00
H350   H     0.10374   0.13367   0.40271   0.00000  Uiso   1.00
H351   H     0.38227   0.13611   0.40075   0.00000  Uiso   1.00
H352   H     0.11787   0.19807   0.59927   0.00000  Uiso   1.00
H353   H     0.44862   0.11687   0.34548   0.00000  Uiso   1.00
H354   H     0.05151   0.21764   0.65450   0.00000  Uiso   1.00
H355   H     0.03002   0.11554   0.34640   0.00000  Uiso   1.00
H356   H     0.47010   0.21887   0.65359   0.00000  Uiso   1.00
H357   H     0.21318   0.12842   0.64976   0.00000  Uiso   1.00
H358   H     0.28617   0.20599   0.35037   0.00000  Uiso   1.00
N359   N     0.23745   0.15214   0.34617   0.00000  Uiso   1.00
N360   N     0.26256   0.18119   0.65383   0.00000  Uiso   1.00
O361   O     0.25326   0.09538   0.53992   0.00000  Uiso   1.00
O362   O     0.24675   0.23796   0.46008   0.00000  Uiso   1.00
O363   O     0.24480   0.08559   0.43612   0.00000  Uiso   1.00
O364   O     0.25520   0.24774   0.56388   0.00000  Uiso   1.00
O365   O     0.18936   0.17155   0.55191   0.00000  Uiso   1.00
O366   O     0.31065   0.16179   0.44809   0.00000  Uiso   1.00
O367   O     0.18090   0.16176   0.44810   0.00000  Uiso   1.00
O368   O     0.31910   0.17157   0.55190   0.00000  Uiso   1.00
O369   O     0.23182   0.31467   0.41564   0.00000  Uiso   1.00
C370   C     0.18504   0.30464   0.40290   0.00000  Uiso   1.00
H371   H     0.16826   0.00821   0.40283   0.00000  Uiso   1.00
H372   H     0.17041   0.28421   0.43621   0.00000  Uiso   1.00
H373   H     0.17799   0.27830   0.35643   0.00000  Uiso   1.00
O374   O     0.24613   0.01738   0.58493   0.00000  Uiso   1.00
C375   C     0.20196   0.01788   0.60217   0.00000  Uiso   1.00
H376   H     0.18645   0.31087   0.59698   0.00000  Uiso   1.00
H377   H     0.18080   0.03995   0.57499   0.00000  Uiso   1.00
H378   H     0.20278   0.03803   0.65144   0.00000  Uiso   1.00
C379   C     0.74626   0.06668   0.48460   0.00000  Uiso   1.00
C380   C     0.74927   0.26643   0.51549   0.00000  Uiso   1.00
C381   C     0.51545   0.13010   0.38930   0.00000  Uiso   1.00
C382   C     0.98466   0.20432   0.61069   0.00000  Uiso   1.00
C383   C     0.74045   0.01076   0.47574   0.00000  Uiso   1.00
C384   C     0.74489   0.32180   0.52463   0.00000  Uiso   1.00
C385   C     0.66436   0.16635   0.50053   0.00000  Uiso   1.00
C386   C     0.83566   0.16714   0.49950   0.00000  Uiso   1.00
C387   C     0.91118   0.18605   0.55456   0.00000  Uiso   1.00
C388   C     0.58889   0.14799   0.44548   0.00000  Uiso   1.00
C389   C     0.88408   0.16798   0.49897   0.00000  Uiso   1.00
C390   C     0.61599   0.16592   0.50108   0.00000  Uiso   1.00
C391   C     0.90330   0.15020   0.44361   0.00000  Uiso   1.00
C392   C     0.59682   0.18399   0.55642   0.00000  Uiso   1.00
C393   C     0.94959   0.14953   0.44367   0.00000  Uiso   1.00
C394   C     0.55053   0.18486   0.55634   0.00000  Uiso   1.00
C395   C     0.97678   0.16754   0.49974   0.00000  Uiso   1.00
C396   C     0.52333   0.16686   0.50027   0.00000  Uiso   1.00
C397   C     0.95746   0.18614   0.55531   0.00000  Uiso   1.00
C398   C     0.54264   0.14818   0.44470   0.00000  Uiso   1.00
C399   C     0.96913   0.13084   0.38877   0.00000  Uiso   1.00
C400   C     0.53099   0.20364   0.61122   0.00000  Uiso   1.00
Cu401  Cu    0.75501   0.17246   0.56146   0.00000  Uiso   1.00
Cu402  Cu    0.74500   0.16087   0.43854   0.00000  Uiso   1.00
H403   H     0.89631   0.20021   0.59734   0.00000  Uiso   1.00
H404   H     0.60374   0.13367   0.40271   0.00000  Uiso   1.00
H405   H     0.88227   0.13611   0.40075   0.00000  Uiso   1.00
H406   H     0.61787   0.19807   0.59927   0.00000  Uiso   1.00
H407   H     0.94862   0.11687   0.34548   0.00000  Uiso   1.00
H408   H     0.55151   0.21764   0.65450   0.00000  Uiso   1.00
H409   H     0.53002   0.11554   0.34640   0.00000  Uiso   1.00
H410   H     0.97010   0.21887   0.65359   0.00000  Uiso   1.00
H411   H     0.71318   0.12842   0.64976   0.00000  Uiso   1.00
H412   H     0.78617   0.20599   0.35037   0.00000  Uiso   1.00
N413   N     0.73745   0.15214   0.34617   0.00000  Uiso   1.00
N414   N     0.76256   0.18119   0.65383   0.00000  Uiso   1.00
O415   O     0.75326   0.09538   0.53992   0.00000  Uiso   1.00
O416   O     0.74675   0.23796   0.46008   0.00000  Uiso   1.00
O417   O     0.74480   0.08559   0.43612   0.00000  Uiso   1.00
O418   O     0.75520   0.24774   0.56388   0.00000  Uiso   1.00
O419   O     0.68936   0.17155   0.55191   0.00000  Uiso   1.00
O420   O     0.81065   0.16179   0.44809   0.00000  Uiso   1.00
O421   O     0.68090   0.16176   0.44810   0.00000  Uiso   1.00
O422   O     0.81910   0.17157   0.55190   0.00000  Uiso   1.00
O423   O     0.73182   0.31467   0.41564   0.00000  Uiso   1.00
C424   C     0.68504   0.30464   0.40290   0.00000  Uiso   1.00
H425   H     0.66826   0.00821   0.40283   0.00000  Uiso   1.00
H426   H     0.67041   0.28421   0.43621   0.00000  Uiso   1.00
H427   H     0.67799   0.27830   0.35643   0.00000  Uiso   1.00
O428   O     0.74613   0.01738   0.58493   0.00000  Uiso   1.00
C429   C     0.70196   0.01788   0.60217   0.00000  Uiso   1.00
H430   H     0.68645   0.31087   0.59698   0.00000  Uiso   1.00
H431   H     0.68080   0.03995   0.57499   0.00000  Uiso   1.00
H432   H     0.70278   0.03803   0.65144   0.00000  Uiso   1.00
C433   C     0.24626   0.40001   0.48460   0.00000  Uiso   1.00
C434   C     0.24927   0.59977   0.51549   0.00000  Uiso   1.00
C435   C     0.01545   0.46343   0.38930   0.00000  Uiso   1.00
C436   C     0.48466   0.53766   0.61069   0.00000  Uiso   1.00
C437   C     0.24045   0.34409   0.47574   0.00000  Uiso   1.00
C438   C     0.24489   0.65514   0.52463   0.00000  Uiso   1.00
C439   C     0.16436   0.49968   0.50053   0.00000  Uiso   1.00
C440   C     0.33566   0.50048   0.49950   0.00000  Uiso   1.00
C441   C     0.41118   0.51938   0.55456   0.00000  Uiso   1.00
C442   C     0.08889   0.48132   0.44548   0.00000  Uiso   1.00
C443   C     0.38408   0.50131   0.49897   0.00000  Uiso   1.00
C444   C     0.11599   0.49925   0.50108   0.00000  Uiso   1.00
C445   C     0.40330   0.48353   0.44361   0.00000  Uiso   1.00
C446   C     0.09682   0.51732   0.55642   0.00000  Uiso   1.00
C447   C     0.44959   0.48286   0.44367   0.00000  Uiso   1.00
C448   C     0.05053   0.51819   0.55634   0.00000  Uiso   1.00
C449   C     0.47678   0.50087   0.49974   0.00000  Uiso   1.00
C450   C     0.02333   0.50020   0.50027   0.00000  Uiso   1.00
C451   C     0.45746   0.51947   0.55531   0.00000  Uiso   1.00
C452   C     0.04264   0.48151   0.44470   0.00000  Uiso   1.00
C453   C     0.46913   0.46417   0.38877   0.00000  Uiso   1.00
C454   C     0.03099   0.53698   0.61122   0.00000  Uiso   1.00
Cu455  Cu    0.25501   0.50579   0.56146   0.00000  Uiso   1.00
Cu456  Cu    0.24500   0.49421   0.43854   0.00000  Uiso   1.00
H457   H     0.39631   0.53355   0.59734   0.00000  Uiso   1.00
H458   H     0.10374   0.46701   0.40271   0.00000  Uiso   1.00
H459   H     0.38227   0.46945   0.40075   0.00000  Uiso   1.00
H460   H     0.11787   0.53140   0.59927   0.00000  Uiso   1.00
H461   H     0.44862   0.45021   0.34548   0.00000  Uiso   1.00
H462   H     0.05151   0.55097   0.65450   0.00000  Uiso   1.00
H463   H     0.03002   0.44888   0.34640   0.00000  Uiso   1.00
H464   H     0.47010   0.55221   0.65359   0.00000  Uiso   1.00
H465   H     0.21318   0.46176   0.64976   0.00000  Uiso   1.00
H466   H     0.28617   0.53933   0.35037   0.00000  Uiso   1.00
N467   N     0.23745   0.48547   0.34617   0.00000  Uiso   1.00
N468   N     0.26256   0.51453   0.65383   0.00000  Uiso   1.00
O469   O     0.25326   0.42871   0.53992   0.00000  Uiso   1.00
O470   O     0.24675   0.57129   0.46008   0.00000  Uiso   1.00
O471   O     0.24480   0.41892   0.43612   0.00000  Uiso   1.00
O472   O     0.25520   0.58108   0.56388   0.00000  Uiso   1.00
O473   O     0.18936   0.50488   0.55191   0.00000  Uiso   1.00
O474   O     0.31065   0.49512   0.44809   0.00000  Uiso   1.00
O475   O     0.18090   0.49510   0.44810   0.00000  Uiso   1.00
O476   O     0.31910   0.50490   0.55190   0.00000  Uiso   1.00
O477   O     0.23182   0.64800   0.41564   0.00000  Uiso   1.00
C478   C     0.18504   0.63797   0.40290   0.00000  Uiso   1.00
H479   H     0.16826   0.34154   0.40283   0.00000  Uiso   1.00
H480   H     0.17041   0.61755   0.43621   0.00000  Uiso   1.00
H481   H     0.17799   0.61164   0.35643   0.00000  Uiso   1.00
O482   O     0.24613   0.35071   0.58493   0.00000  Uiso   1.00
C483   C     0.20196   0.35122   0.60217   0.00000  Uiso   1.00
H484   H     0.18645   0.64421   0.59698   0.00000  Uiso   1.00
H485   H     0.18080   0.37328   0.57499   0.00000  Uiso   1.00
H486   H     0.20278   0.37137   0.65144   0.00000  Uiso   1.00
C487   C     0.74626   0.40001   0.48460   0.00000  Uiso   1.00
C488   C     0.74927   0.59977   0.51549   0.00000  Uiso   1.00
C489   C     0.51545   0.46343   0.38930   0.00000  Uiso   1.00
C490   C     0.98466   0.53766   0.61069   0.00000  Uiso   1.00
C491   C     0.74045   0.34409   0.47574   0.00000  Uiso   1.00
C492   C     0.74489   0.65514   0.52463   0.00000  Uiso   1.00
C493   C     0.66436   0.49968   0.50053   0.00000  Uiso   1.00
C494   C     0.83566   0.50048   0.49950   0.00000  Uiso   1.00
C495   C     0.91118   0.51938   0.55456   0.00000  Uiso   1.00
C496   C     0.58889   0.48132   0.44548   0.00000  Uiso   1.00
C497   C     0.88408   0.50131   0.49897   0.00000  Uiso   1.00
C498   C     0.61599   0.49925   0.50108   0.00000  Uiso   1.00
C499   C     0.90330   0.48353   0.44361   0.00000  Uiso   1.00
C500   C     0.59682   0.51732   0.55642   0.00000  Uiso   1.00
C501   C     0.94959   0.48286   0.44367   0.00000  Uiso   1.00
C502   C     0.55053   0.51819   0.55634   0.00000  Uiso   1.00
C503   C     0.97678   0.50087   0.49974   0.00000  Uiso   1.00
C504   C     0.52333   0.50020   0.50027   0.00000  Uiso   1.00
C505   C     0.95746   0.51947   0.55531   0.00000  Uiso   1.00
C506   C     0.54264   0.48151   0.44470   0.00000  Uiso   1.00
C507   C     0.96913   0.46417   0.38877   0.00000  Uiso   1.00
C508   C     0.53099   0.53698   0.61122   0.00000  Uiso   1.00
Cu509  Cu    0.75501   0.50579   0.56146   0.00000  Uiso   1.00
Cu510  Cu    0.74500   0.49421   0.43854   0.00000  Uiso   1.00
H511   H     0.89631   0.53355   0.59734   0.00000  Uiso   1.00
H512   H     0.60374   0.46701   0.40271   0.00000  Uiso   1.00
H513   H     0.88227   0.46945   0.40075   0.00000  Uiso   1.00
H514   H     0.61787   0.53140   0.59927   0.00000  Uiso   1.00
H515   H     0.94862   0.45021   0.34548   0.00000  Uiso   1.00
H516   H     0.55151   0.55097   0.65450   0.00000  Uiso   1.00
H517   H     0.53002   0.44888   0.34640   0.00000  Uiso   1.00
H518   H     0.97010   0.55221   0.65359   0.00000  Uiso   1.00
H519   H     0.71318   0.46176   0.64976   0.00000  Uiso   1.00
H520   H     0.78617   0.53933   0.35037   0.00000  Uiso   1.00
N521   N     0.73745   0.48547   0.34617   0.00000  Uiso   1.00
N522   N     0.76256   0.51453   0.65383   0.00000  Uiso   1.00
O523   O     0.75326   0.42871   0.53992   0.00000  Uiso   1.00
O524   O     0.74675   0.57129   0.46008   0.00000  Uiso   1.00
O525   O     0.74480   0.41892   0.43612   0.00000  Uiso   1.00
O526   O     0.75520   0.58108   0.56388   0.00000  Uiso   1.00
O527   O     0.68936   0.50488   0.55191   0.00000  Uiso   1.00
O528   O     0.81065   0.49512   0.44809   0.00000  Uiso   1.00
O529   O     0.68090   0.49510   0.44810   0.00000  Uiso   1.00
O530   O     0.81910   0.50490   0.55190   0.00000  Uiso   1.00
O531   O     0.73182   0.64800   0.41564   0.00000  Uiso   1.00
C532   C     0.68504   0.63797   0.40290   0.00000  Uiso   1.00
H533   H     0.66826   0.34154   0.40283   0.00000  Uiso   1.00
H534   H     0.67041   0.61755   0.43621   0.00000  Uiso   1.00
H535   H     0.67799   0.61164   0.35643   0.00000  Uiso   1.00
O536   O     0.74613   0.35071   0.58493   0.00000  Uiso   1.00
C537   C     0.70196   0.35122   0.60217   0.00000  Uiso   1.00
H538   H     0.68645   0.64421   0.59698   0.00000  Uiso   1.00
H539   H     0.68080   0.37328   0.57499   0.00000  Uiso   1.00
H540   H     0.70278   0.37137   0.65144   0.00000  Uiso   1.00
C541   C     0.24626   0.73335   0.48460   0.00000  Uiso   1.00
C542   C     0.24927   0.93310   0.51549   0.00000  Uiso   1.00
C543   C     0.01545   0.79677   0.38930   0.00000  Uiso   1.00
C544   C     0.48466   0.87099   0.61069   0.00000  Uiso   1.00
C545   C     0.24045   0.67742   0.47574   0.00000  Uiso   1.00
C546   C     0.24489   0.98847   0.52463   0.00000  Uiso   1.00
C547   C     0.16436   0.83301   0.50053   0.00000  Uiso   1.00
C548   C     0.33566   0.83381   0.49950   0.00000  Uiso   1.00
C549   C     0.41118   0.85272   0.55456   0.00000  Uiso   1.00
C550   C     0.08889   0.81466   0.44548   0.00000  Uiso   1.00
C551   C     0.38408   0.83465   0.49897   0.00000  Uiso   1.00
C552   C     0.11599   0.83258   0.50108   0.00000  Uiso   1.00
C553   C     0.40330   0.81687   0.44361   0.00000  Uiso   1.00
C554   C     0.09682   0.85066   0.55642   0.00000  Uiso   1.00
C555   C     0.44959   0.81620   0.44367   0.00000  Uiso   1.00
C556   C     0.05053   0.85152   0.55634   0.00000  Uiso   1.00
C557   C     0.47678   0.83420   0.49974   0.00000  Uiso   1.00
C558   C     0.02333   0.83353   0.50027   0.00000  Uiso   1.00
C559   C     0.45746   0.85281   0.55531   0.00000  Uiso   1.00
C560   C     0.04264   0.81485   0.44470   0.00000  Uiso   1.00
C561   C     0.46913   0.79750   0.38877   0.00000  Uiso   1.00
C562   C     0.03099   0.87031   0.61122   0.00000  Uiso   1.00
Cu563  Cu    0.25501   0.83913   0.56146   0.00000  Uiso   1.00
Cu564  Cu    0.24500   0.82754   0.43854   0.00000  Uiso   1.00
H565   H     0.39631   0.86688   0.59734   0.00000  Uiso   1.00
H566   H     0.10374   0.80034   0.40271   0.00000  Uiso   1.00
H567   H     0.38227   0.80278   0.40075   0.00000  Uiso   1.00
H568   H     0.11787   0.86474   0.59927   0.00000  Uiso   1.00
H569   H     0.44862   0.78354   0.34548   0.00000  Uiso   1.00
H570   H     0.05151   0.88430   0.65450   0.00000  Uiso   1.00
H571   H     0.03002   0.78221   0.34640   0.00000  Uiso   1.00
H572   H     0.47010   0.88554   0.65359   0.00000  Uiso   1.00
H573   H     0.21318   0.79509   0.64976   0.00000  Uiso   1.00
H574   H     0.28617   0.87266   0.35037   0.00000  Uiso   1.00
N575   N     0.23745   0.81881   0.34617   0.00000  Uiso   1.00
N576   N     0.26256   0.84786   0.65383   0.00000  Uiso   1.00
O577   O     0.25326   0.76204   0.53992   0.00000  Uiso   1.00
O578   O     0.24675   0.90462   0.46008   0.00000  Uiso   1.00
O579   O     0.24480   0.75226   0.43612   0.00000  Uiso   1.00
O580   O     0.25520   0.91441   0.56388   0.00000  Uiso   1.00
O581   O     0.18936   0.83821   0.55191   0.00000  Uiso   1.00
O582   O     0.31065   0.82845   0.44809   0.00000  Uiso   1.00
O583   O     0.18090   0.82843   0.44810   0.00000  Uiso   1.00
O584   O     0.31910   0.83824   0.55190   0.00000  Uiso   1.00
O585   O     0.23182   0.98134   0.41564   0.00000  Uiso   1.00
C586   C     0.18504   0.97131   0.40290   0.00000  Uiso   1.00
H587   H     0.16826   0.67488   0.40283   0.00000  Uiso   1.00
H588   H     0.17041   0.95088   0.43621   0.00000  Uiso   1.00
H589   H     0.17799   0.94497   0.35643   0.00000  Uiso   1.00
O590   O     0.24613   0.68404   0.58493   0.00000  Uiso   1.00
C591   C     0.20196   0.68455   0.60217   0.00000  Uiso   1.00
H592   H     0.18645   0.97754   0.59698   0.00000  Uiso   1.00
H593   H     0.18080   0.70661   0.57499   0.00000  Uiso   1.00
H594   H     0.20278   0.70470   0.65144   0.00000  Uiso   1.00
C595   C     0.74626   0.73335   0.48460   0.00000  Uiso   1.00
C596   C     0.74927   0.93310   0.51549   0.00000  Uiso   1.00
C597   C     0.51545   0.79677   0.38930   0.00000  Uiso   1.00
C598   C     0.98466   0.87099   0.61069   0.00000  Uiso   1.00
C599   C     0.74045   0.67742   0.47574   0.00000  Uiso   1.00
C600   C     0.74489   0.98847   0.52463   0.00000  Uiso   1.00
C601   C     0.66436   0.83301   0.50053   0.00000  Uiso   1.00
C602   C     0.83566   0.83381   0.49950   0.00000  Uiso   1.00
C603   C     0.91118   0.85272   0.55456   0.00000  Uiso   1.00
C604   C     0.58889   0.81466   0.44548   0.00000  Uiso   1.00
C605   C     0.88408   0.83465   0.49897   0.00000  Uiso   1.00
C606   C     0.61599   0.83258   0.50108   0.00000  Uiso   1.00
C607   C     0.90330   0.81687   0.44361   0.00000  Uiso   1.00
C608   C     0.59682   0.85066   0.55642   0.00000  Uiso   1.00
C609   C     0.94959   0.81620   0.44367   0.00000  Uiso   1.00
C610   C     0.55053   0.85152   0.55634   0.00000  Uiso   1.00
C611   C     0.97678   0.83420   0.49974   0.00000  Uiso   1.00
C612   C     0.52333   0.83353   0.50027   0.00000  Uiso   1.00
C613   C     0.95746   0.85281   0.55531   0.00000  Uiso   1.00
C614   C     0.54264   0.81485   0.44470   0.00000  Uiso   1.00
C615   C     0.96913   0.79750   0.38877   0.00000  Uiso   1.00
C616   C     0.53099   0.87031   0.61122   0.00000  Uiso   1.00
Cu617  Cu    0.75501   0.83913   0.56146   0.00000  Uiso   1.00
Cu618  Cu    0.74500   0.82754   0.43854   0.00000  Uiso   1.00
H619   H     0.89631   0.86688   0.59734   0.00000  Uiso   1.00
H620   H     0.60374   0.80034   0.40271   0.00000  Uiso   1.00
H621   H     0.88227   0.80278   0.40075   0.00000  Uiso   1.00
H622   H     0.61787   0.86474   0.59927   0.00000  Uiso   1.00
H623   H     0.94862   0.78354   0.34548   0.00000  Uiso   1.00
H624   H     0.55151   0.88430   0.65450   0.00000  Uiso   1.00
H625   H     0.53002   0.78221   0.34640   0.00000  Uiso   1.00
H626   H     0.97010   0.88554   0.65359   0.00000  Uiso   1.00
H627   H     0.71318   0.79509   0.64976   0.00000  Uiso   1.00
H628   H     0.78617   0.87266   0.35037   0.00000  Uiso   1.00
N629   N     0.73745   0.81881   0.34617   0.00000  Uiso   1.00
N630   N     0.76256   0.84786   0.65383   0.00000  Uiso   1.00
O631   O     0.75326   0.76204   0.53992   0.00000  Uiso   1.00
O632   O     0.74675   0.90462   0.46008   0.00000  Uiso   1.00
O633   O     0.74480   0.75226   0.43612   0.00000  Uiso   1.00
O634   O     0.75520   0.91441   0.56388   0.00000  Uiso   1.00
O635   O     0.68936   0.83821   0.55191   0.00000  Uiso   1.00
O636   O     0.81065   0.82845   0.44809   0.00000  Uiso   1.00
O637   O     0.68090   0.82843   0.44810   0.00000  Uiso   1.00
O638   O     0.81910   0.83824   0.55190   0.00000  Uiso   1.00
O639   O     0.73182   0.98134   0.41564   0.00000  Uiso   1.00
C640   C     0.68504   0.97131   0.40290   0.00000  Uiso   1.00
H641   H     0.66826   0.67488   0.40283   0.00000  Uiso   1.00
H642   H     0.67041   0.95088   0.43621   0.00000  Uiso   1.00
H643   H     0.67799   0.94497   0.35643   0.00000  Uiso   1.00
O644   O     0.74613   0.68404   0.58493   0.00000  Uiso   1.00
C645   C     0.70196   0.68455   0.60217   0.00000  Uiso   1.00
H646   H     0.68645   0.97754   0.59698   0.00000  Uiso   1.00
H647   H     0.68080   0.70661   0.57499   0.00000  Uiso   1.00
H648   H     0.70278   0.70470   0.65144   0.00000  Uiso   1.00
C649   C     0.24626   0.06668   0.81793   0.00000  Uiso   1.00
C650   C     0.24927   0.26643   0.84883   0.00000  Uiso   1.00
C651   C     0.01545   0.13010   0.72263   0.00000  Uiso   1.00
C652   C     0.48466   0.20432   0.94403   0.00000  Uiso   1.00
C653   C     0.24045   0.01076   0.80907   0.00000  Uiso   1.00
C654   C     0.24489   0.32180   0.85796   0.00000  Uiso   1.00
C655   C     0.16436   0.16635   0.83386   0.00000  Uiso   1.00
C656   C     0.33566   0.16714   0.83283   0.00000  Uiso   1.00
C657   C     0.41118   0.18605   0.88789   0.00000  Uiso   1.00
C658   C     0.08889   0.14799   0.77882   0.00000  Uiso   1.00
C659   C     0.38408   0.16798   0.83230   0.00000  Uiso   1.00
C660   C     0.11599   0.16592   0.83442   0.00000  Uiso   1.00
C661   C     0.40330   0.15020   0.77695   0.00000  Uiso   1.00
C662   C     0.09682   0.18399   0.88975   0.00000  Uiso   1.00
C663   C     0.44959   0.14953   0.77701   0.00000  Uiso   1.00
C664   C     0.05053   0.18486   0.88967   0.00000  Uiso   1.00
C665   C     0.47678   0.16754   0.83308   0.00000  Uiso   1.00
C666   C     0.02333   0.16686   0.83360   0.00000  Uiso   1.00
C667   C     0.45746   0.18614   0.88865   0.00000  Uiso   1.00
C668   C     0.04264   0.14818   0.77803   0.00000  Uiso   1.00
C669   C     0.46913   0.13084   0.72210   0.00000  Uiso   1.00
C670   C     0.03099   0.20364   0.94455   0.00000  Uiso   1.00
Cu671  Cu    0.25501   0.17246   0.89479   0.00000  Uiso   1.00
Cu672  Cu    0.24500   0.16087   0.77187   0.00000  Uiso   1.00
H673   H     0.39631   0.20021   0.93068   0.00000  Uiso   1.00
H674   H     0.10374   0.13367   0.73604   0.00000  Uiso   1.00
H675   H     0.38227   0.13611   0.73409   0.00000  Uiso   1.00
H676   H     0.11787   0.19807   0.93260   0.00000  Uiso   1.00
H677   H     0.44862   0.11687   0.67882   0.00000  Uiso   1.00
H678   H     0.05151   0.21764   0.98783   0.00000  Uiso   1.00
H679   H     0.03002   0.11554   0.67974   0.00000  Uiso   1.00
H680   H     0.47010   0.21887   0.98692   0.00000  Uiso   1.00
H681   H     0.21318   0.12842   0.98309   0.00000  Uiso   1.00
H682   H     0.28617   0.20599   0.68370   0.00000  Uiso   1.00
N683   N     0.23745   0.15214   0.67951   0.00000  Uiso   1.00
N684   N     0.26256   0.18119   0.98716   0.00000  Uiso   1.00
O685   O     0.25326   0.09538   0.87326   0.00000  Uiso   1.00
O686   O     0.24675   0.23796   0.79341   0.00000  Uiso   1.00
O687   O     0.24480   0.08559   0.76945   0.00000  Uiso   1.00
O688   O     0.25520   0.24774   0.89721   0.00000  Uiso   1.00
O689   O     0.18936   0.17155   0.88524   0.00000  Uiso   1.00
O690   O     0.31065   0.16179   0.78143   0.00000  Uiso   1.00
O691   O     0.18090   0.16176   0.78143   0.00000  Uiso   1.00
O692   O     0.31910   0.17157   0.88523   0.00000  Uiso   1.00
O693   O     0.23182   0.31467   0.74897   0.00000  Uiso   1.00
C694   C     0.18504   0.30464   0.73623   0.00000  Uiso   1.00
H695   H     0.16826   0.00821   0.73617   0.00000  Uiso   1.00
H696   H     0.17041   0.28421   0.76955   0.00000  Uiso   1.00
H697   H     0.17799   0.27830   0.68976   0.00000  Uiso   1.00
O698   O     0.24613   0.01738   0.91826   0.00000  Uiso   1.00
C699   C     0.20196   0.01788   0.93550   0.00000  Uiso   1.00
H700   H     0.18645   0.31087   0.93031   0.00000  Uiso   1.00
H701   H     0.18080   0.03995   0.90833   0.00000  Uiso   1.00
H702   H     0.20278   0.03803   0.98477   0.00000  Uiso   1.00
C703   C     0.74626   0.06668   0.81793   0.00000  Uiso   1.00
C704   C     0.74927   0.26643   0.84883   0.00000  Uiso   1.00
C705   C     0.51545   0.13010   0.72263   0.00000  Uiso   1.00
C706   C     0.98466   0.20432   0.94403   0.00000  Uiso   1.00
C707   C     0.74045   0.01076   0.80907   0.00000  Uiso   1.00
C708   C     0.74489   0.32180   0.85796   0.00000  Uiso   1.00
C709   C     0.66436   0.16635   0.83386   0.00000  Uiso   1.00
C710   C     0.83566   0.16714   0.83283   0.00000  Uiso   1.00
C711   C     0.91118   0.18605   0.88789   0.00000  Uiso   1.00
C712   C     0.58889   0.14799   0.77882   0.00000  Uiso   1.00
C713   C     0.88408   0.16798   0.83230   0.00000  Uiso   1.00
C714   C     0.61599   0.16592   0.83442   0.00000  Uiso   1.00
C715   C     0.90330   0.15020   0.77695   0.00000  Uiso   1.00
C716   C     0.59682   0.18399   0.88975   0.00000  Uiso   1.00
C717   C     0.94959   0.14953   0.77701   0.00000  Uiso   1.00
C718   C     0.55053   0.18486   0.88967   0.00000  Uiso   1.00
C719   C     0.97678   0.16754   0.83308   0.00000  Uiso   1.00
C720   C     0.52333   0.16686   0.83360   0.00000  Uiso   1.00
C721   C     0.95746   0.18614   0.88865   0.00000  Uiso   1.00
C722   C     0.54264   0.14818   0.77803   0.00000  Uiso   1.00
C723   C     0.96913   0.13084   0.72210   0.00000  Uiso   1.00
C724   C     0.53099   0.20364   0.94455   0.00000  Uiso   1.00
Cu725  Cu    0.75501   0.17246   0.89479   0.00000  Uiso   1.00
Cu726  Cu    0.74500   0.16087   0.77187   0.00000  Uiso   1.00
H727   H     0.89631   0.20021   0.93068   0.00000  Uiso   1.00
H728   H     0.60374   0.13367   0.73604   0.00000  Uiso   1.00
H729   H     0.88227   0.13611   0.73409   0.00000  Uiso   1.00
H730   H     0.61787   0.19807   0.93260   0.00000  Uiso   1.00
H731   H     0.94862   0.11687   0.67882   0.00000  Uiso   1.00
H732   H     0.55151   0.21764   0.98783   0.00000  Uiso   1.00
H733   H     0.53002   0.11554   0.67974   0.00000  Uiso   1.00
H734   H     0.97010   0.21887   0.98692   0.00000  Uiso   1.00
H735   H     0.71318   0.12842   0.98309   0.00000  Uiso   1.00
H736   H     0.78617   0.20599   0.68370   0.00000  Uiso   1.00
N737   N     0.73745   0.15214   0.67951   0.00000  Uiso   1.00
N738   N     0.76256   0.18119   0.98716   0.00000  Uiso   1.00
O739   O     0.75326   0.09538   0.87326   0.00000  Uiso   1.00
O740   O     0.74675   0.23796   0.79341   0.00000  Uiso   1.00
O741   O     0.74480   0.08559   0.76945   0.00000  Uiso   1.00
O742   O     0.75520   0.24774   0.89721   0.00000  Uiso   1.00
O743   O     0.68936   0.17155   0.88524   0.00000  Uiso   1.00
O744   O     0.81065   0.16179   0.78143   0.00000  Uiso   1.00
O745   O     0.68090   0.16176   0.78143   0.00000  Uiso   1.00
O746   O     0.81910   0.17157   0.88523   0.00000  Uiso   1.00
O747   O     0.73182   0.31467   0.74897   0.00000  Uiso   1.00
C748   C     0.68504   0.30464   0.73623   0.00000  Uiso   1.00
H749   H     0.66826   0.00821   0.73617   0.00000  Uiso   1.00
H750   H     0.67041   0.28421   0.76955   0.00000  Uiso   1.00
H751   H     0.67799   0.27830   0.68976   0.00000  Uiso   1.00
O752   O     0.74613   0.01738   0.91826   0.00000  Uiso   1.00
C753   C     0.70196   0.01788   0.93550   0.00000  Uiso   1.00
H754   H     0.68645   0.31087   0.93031   0.00000  Uiso   1.00
H755   H     0.68080   0.03995   0.90833   0.00000  Uiso   1.00
H756   H     0.70278   0.03803   0.98477   0.00000  Uiso   1.00
C757   C     0.24626   0.40001   0.81793   0.00000  Uiso   1.00
C758   C     0.24927   0.59977   0.84883   0.00000  Uiso   1.00
C759   C     0.01545   0.46343   0.72263   0.00000  Uiso   1.00
C760   C     0.48466   0.53766   0.94403   0.00000  Uiso   1.00
C761   C     0.24045   0.34409   0.80907   0.00000  Uiso   1.00
C762   C     0.24489   0.65514   0.85796   0.00000  Uiso   1.00
C763   C     0.16436   0.49968   0.83386   0.00000  Uiso   1.00
C764   C     0.33566   0.50048   0.83283   0.00000  Uiso   1.00
C765   C     0.41118   0.51938   0.88789   0.00000  Uiso   1.00
C766   C     0.08889   0.48132   0.77882   0.00000  Uiso   1.00
C767   C     0.38408   0.50131   0.83230   0.00000  Uiso   1.00
C768   C     0.11599   0.49925   0.83442   0.00000  Uiso   1.00
C769   C     0.40330   0.48353   0.77695   0.00000  Uiso   1.00
C770   C     0.09682   0.51732   0.88975   0.00000  Uiso   1.00
C771   C     0.44959   0.48286   0.77701   0.00000  Uiso   1.00
C772   C     0.05053   0.51819   0.88967   0.00000  Uiso   1.00
C773   C     0.47678   0.50087   0.83308   0.00000  Uiso   1.00
C774   C     0.02333   0.50020   0.83360   0.00000  Uiso   1.00
C775   C     0.45746   0.51947   0.88865   0.00000  Uiso   1.00
C776   C     0.04264   0.48151   0.77803   0.00000  Uiso   1.00
C777   C     0.46913   0.46417   0.72210   0.00000  Uiso   1.00
C778   C     0.03099   0.53698   0.94455   0.00000  Uiso   1.00
Cu779  Cu    0.25501   0.50579   0.89479   0.00000  Uiso   1.00
Cu780  Cu    0.24500   0.49421   0.77187   0.00000  Uiso   1.00
H781   H     0.39631   0.53355   0.93068   0.00000  Uiso   1.00
H782   H     0.10374   0.46701   0.73604   0.00000  Uiso   1.00
H783   H     0.38227   0.46945   0.73409   0.00000  Uiso   1.00
H784   H     0.11787   0.53140   0.93260   0.00000  Uiso   1.00
H785   H     0.44862   0.45021   0.67882   0.00000  Uiso   1.00
H786   H     0.05151   0.55097   0.98783   0.00000  Uiso   1.00
H787   H     0.03002   0.44888   0.67974   0.00000  Uiso   1.00
H788   H     0.47010   0.55221   0.98692   0.00000  Uiso   1.00
H789   H     0.21318   0.46176   0.98309   0.00000  Uiso   1.00
H790   H     0.28617   0.53933   0.68370   0.00000  Uiso   1.00
N791   N     0.23745   0.48547   0.67951   0.00000  Uiso   1.00
N792   N     0.26256   0.51453   0.98716   0.00000  Uiso   1.00
O793   O     0.25326   0.42871   0.87326   0.00000  Uiso   1.00
O794   O     0.24675   0.57129   0.79341   0.00000  Uiso   1.00
O795   O     0.24480   0.41892   0.76945   0.00000  Uiso   1.00
O796   O     0.25520   0.58108   0.89721   0.00000  Uiso   1.00
O797   O     0.18936   0.50488   0.88524   0.00000  Uiso   1.00
O798   O     0.31065   0.49512   0.78143   0.00000  Uiso   1.00
O799   O     0.18090   0.49510   0.78143   0.00000  Uiso   1.00
O800   O     0.31910   0.50490   0.88523   0.00000  Uiso   1.00
O801   O     0.23182   0.64800   0.74897   0.00000  Uiso   1.00
C802   C     0.18504   0.63797   0.73623   0.00000  Uiso   1.00
H803   H     0.16826   0.34154   0.73617   0.00000  Uiso   1.00
H804   H     0.17041   0.61755   0.76955   0.00000  Uiso   1.00
H805   H     0.17799   0.61164   0.68976   0.00000  Uiso   1.00
O806   O     0.24613   0.35071   0.91826   0.00000  Uiso   1.00
C807   C     0.20196   0.35122   0.93550   0.00000  Uiso   1.00
H808   H     0.18645   0.64421   0.93031   0.00000  Uiso   1.00
H809   H     0.18080   0.37328   0.90833   0.00000  Uiso   1.00
H810   H     0.20278   0.37137   0.98477   0.00000  Uiso   1.00
C811   C     0.74626   0.40001   0.81793   0.00000  Uiso   1.00
C812   C     0.74927   0.59977   0.84883   0.00000  Uiso   1.00
C813   C     0.51545   0.46343   0.72263   0.00000  Uiso   1.00
C814   C     0.98466   0.53766   0.94403   0.00000  Uiso   1.00
C815   C     0.74045   0.34409   0.80907   0.00000  Uiso   1.00
C816   C     0.74489   0.65514   0.85796   0.00000  Uiso   1.00
C817   C     0.66436   0.49968   0.83386   0.00000  Uiso   1.00
C818   C     0.83566   0.50048   0.83283   0.00000  Uiso   1.00
C819   C     0.91118   0.51938   0.88789   0.00000  Uiso   1.00
C820   C     0.58889   0.48132   0.77882   0.00000  Uiso   1.00
C821   C     0.88408   0.50131   0.83230   0.00000  Uiso   1.00
C822   C     0.61599   0.49925   0.83442   0.00000  Uiso   1.00
C823   C     0.90330   0.48353   0.77695   0.00000  Uiso   1.00
C824   C     0.59682   0.51732   0.88975   0.00000  Uiso   1.00
C825   C     0.94959   0.48286   0.77701   0.00000  Uiso   1.00
C826   C     0.55053   0.51819   0.88967   0.00000  Uiso   1.00
C827   C     0.97678   0.50087   0.83308   0.00000  Uiso   1.00
C828   C     0.52333   0.50020   0.83360   0.00000  Uiso   1.00
C829   C     0.95746   0.51947   0.88865   0.00000  Uiso   1.00
C830   C     0.54264   0.48151   0.77803   0.00000  Uiso   1.00
C831   C     0.96913   0.46417   0.72210   0.00000  Uiso   1.00
C832   C     0.53099   0.53698   0.94455   0.00000  Uiso   1.00
Cu833  Cu    0.75501   0.50579   0.89479   0.00000  Uiso   1.00
Cu834  Cu    0.74500   0.49421   0.77187   0.00000  Uiso   1.00
H835   H     0.89631   0.53355   0.93068   0.00000  Uiso   1.00
H836   H     0.60374   0.46701   0.73604   0.00000  Uiso   1.00
H837   H     0.88227   0.46945   0.73409   0.00000  Uiso   1.00
H838   H     0.61787   0.53140   0.93260   0.00000  Uiso   1.00
H839   H     0.94862   0.45021   0.67882   0.00000  Uiso   1.00
H840   H     0.55151   0.55097   0.98783   0.00000  Uiso   1.00
H841   H     0.53002   0.44888   0.67974   0.00000  Uiso   1.00
H842   H     0.97010   0.55221   0.98692   0.00000  Uiso   1.00
H843   H     0.71318   0.46176   0.98309   0.00000  Uiso   1.00
H844   H     0.78617   0.53933   0.68370   0.00000  Uiso   1.00
N845   N     0.73745   0.48547   0.67951   0.00000  Uiso   1.00
N846   N     0.76256   0.51453   0.98716   0.00000  Uiso   1.00
O847   O     0.75326   0.42871   0.87326   0.00000  Uiso   1.00
O848   O     0.74675   0.57129   0.79341   0.00000  Uiso   1.00
O849   O     0.74480   0.41892   0.76945   0.00000  Uiso   1.00
O850   O     0.75520   0.58108   0.89721   0.00000  Uiso   1.00
O851   O     0.68936   0.50488   0.88524   0.00000  Uiso   1.00
O852   O     0.81065   0.49512   0.78143   0.00000  Uiso   1.00
O853   O     0.68090   0.49510   0.78143   0.00000  Uiso   1.00
O854   O     0.81910   0.50490   0.88523   0.00000  Uiso   1.00
O855   O     0.73182   0.64800   0.74897   0.00000  Uiso   1.00
C856   C     0.68504   0.63797   0.73623   0.00000  Uiso   1.00
H857   H     0.66826   0.34154   0.73617   0.00000  Uiso   1.00
H858   H     0.67041   0.61755   0.76955   0.00000  Uiso   1.00
H859   H     0.67799   0.61164   0.68976   0.00000  Uiso   1.00
O860   O     0.74613   0.35071   0.91826   0.00000  Uiso   1.00
C861   C     0.70196   0.35122   0.93550   0.00000  Uiso   1.00
H862   H     0.68645   0.64421   0.93031   0.00000  Uiso   1.00
H863   H     0.68080   0.37328   0.90833   0.00000  Uiso   1.00
H864   H     0.70278   0.37137   0.98477   0.00000  Uiso   1.00
C865   C     0.24626   0.73335   0.81793   0.00000  Uiso   1.00
C866   C     0.24927   0.93310   0.84883   0.00000  Uiso   1.00
C867   C     0.01545   0.79677   0.72263   0.00000  Uiso   1.00
C868   C     0.48466   0.87099   0.94403   0.00000  Uiso   1.00
C869   C     0.24045   0.67742   0.80907   0.00000  Uiso   1.00
C870   C     0.24489   0.98847   0.85796   0.00000  Uiso   1.00
C871   C     0.16436   0.83301   0.83386   0.00000  Uiso   1.00
C872   C     0.33566   0.83381   0.83283   0.00000  Uiso   1.00
C873   C     0.41118   0.85272   0.88789   0.00000  Uiso   1.00
C874   C     0.08889   0.81466   0.77882   0.00000  Uiso   1.00
C875   C     0.38408   0.83465   0.83230   0.00000  Uiso   1.00
C876   C     0.11599   0.83258   0.83442   0.00000  Uiso   1.00
C877   C     0.40330   0.81687   0.77695   0.00000  Uiso   1.00
C878   C     0.09682   0.85066   0.88975   0.00000  Uiso   1.00
C879   C     0.44959   0.81620   0.77701   0.00000  Uiso   1.00
C880   C     0.05053   0.85152   0.88967   0.00000  Uiso   1.00
C881   C     0.47678   0.83420   0.83308   0.00000  Uiso   1.00
C882   C     0.02333   0.83353   0.83360   0.00000  Uiso   1.00
C883   C     0.45746   0.85281   0.88865   0.00000  Uiso   1.00
C884   C     0.04264   0.81485   0.77803   0.00000  Uiso   1.00
C885   C     0.46913   0.79750   0.72210   0.00000  Uiso   1.00
C886   C     0.03099   0.87031   0.94455   0.00000  Uiso   1.00
Cu887  Cu    0.25501   0.83913   0.89479   0.00000  Uiso   1.00
Cu888  Cu    0.24500   0.82754   0.77187   0.00000  Uiso   1.00
H889   H     0.39631   0.86688   0.93068   0.00000  Uiso   1.00
H890   H     0.10374   0.80034   0.73604   0.00000  Uiso   1.00
H891   H     0.38227   0.80278   0.73409   0.00000  Uiso   1.00
H892   H     0.11787   0.86474   0.93260   0.00000  Uiso   1.00
H893   H     0.44862   0.78354   0.67882   0.00000  Uiso   1.00
H894   H     0.05151   0.88430   0.98783   0.00000  Uiso   1.00
H895   H     0.03002   0.78221   0.67974   0.00000  Uiso   1.00
H896   H     0.47010   0.88554   0.98692   0.00000  Uiso   1.00
H897   H     0.21318   0.79509   0.98309   0.00000  Uiso   1.00
H898   H     0.28617   0.87266   0.68370   0.00000  Uiso   1.00
N899   N     0.23745   0.81881   0.67951   0.00000  Uiso   1.00
N900   N     0.26256   0.84786   0.98716   0.00000  Uiso   1.00
O901   O     0.25326   0.76204   0.87326   0.00000  Uiso   1.00
O902   O     0.24675   0.90462   0.79341   0.00000  Uiso   1.00
O903   O     0.24480   0.75226   0.76945   0.00000  Uiso   1.00
O904   O     0.25520   0.91441   0.89721   0.00000  Uiso   1.00
O905   O     0.18936   0.83821   0.88524   0.00000  Uiso   1.00
O906   O     0.31065   0.82845   0.78143   0.00000  Uiso   1.00
O907   O     0.18090   0.82843   0.78143   0.00000  Uiso   1.00
O908   O     0.31910   0.83824   0.88523   0.00000  Uiso   1.00
O909   O     0.23182   0.98134   0.74897   0.00000  Uiso   1.00
C910   C     0.18504   0.97131   0.73623   0.00000  Uiso   1.00
H911   H     0.16826   0.67488   0.73617   0.00000  Uiso   1.00
H912   H     0.17041   0.95088   0.76955   0.00000  Uiso   1.00
H913   H     0.17799   0.94497   0.68976   0.00000  Uiso   1.00
O914   O     0.24613   0.68404   0.91826   0.00000  Uiso   1.00
C915   C     0.20196   0.68455   0.93550   0.00000  Uiso   1.00
H916   H     0.18645   0.97754   0.93031   0.00000  Uiso   1.00
H917   H     0.18080   0.70661   0.90833   0.00000  Uiso   1.00
H918   H     0.20278   0.70470   0.98477   0.00000  Uiso   1.00
C919   C     0.74626   0.73335   0.81793   0.00000  Uiso   1.00
C920   C     0.74927   0.93310   0.84883   0.00000  Uiso   1.00
C921   C     0.51545   0.79677   0.72263   0.00000  Uiso   1.00
C922   C     0.98466   0.87099   0.94403   0.00000  Uiso   1.00
C923   C     0.74045   0.67742   0.80907   0.00000  Uiso   1.00
C924   C     0.74489   0.98847   0.85796   0.00000  Uiso   1.00
C925   C     0.66436   0.83301   0.83386   0.00000  Uiso   1.00
C926   C     0.83566   0.83381   0.83283   0.00000  Uiso   1.00
C927   C     0.91118   0.85272   0.88789   0.00000  Uiso   1.00
C928   C     0.58889   0.81466   0.77882   0.00000  Uiso   1.00
C929   C     0.88408   0.83465   0.83230   0.00000  Uiso   1.00
C930   C     0.61599   0.83258   0.83442   0.00000  Uiso   1.00
C931   C     0.90330   0.81687   0.77695   0.00000  Uiso   1.00
C932   C     0.59682   0.85066   0.88975   0.00000  Uiso   1.00
C933   C     0.94959   0.81620   0.77701   0.00000  Uiso   1.00
C934   C     0.55053   0.85152   0.88967   0.00000  Uiso   1.00
C935   C     0.97678   0.83420   0.83308   0.00000  Uiso   1.00
C936   C     0.52333   0.83353   0.83360   0.00000  Uiso   1.00
C937   C     0.95746   0.85281   0.88865   0.00000  Uiso   1.00
C938   C     0.54264   0.81485   0.77803   0.00000  Uiso   1.00
C939   C     0.96913   0.79750   0.72210   0.00000  Uiso   1.00
C940   C     0.53099   0.87031   0.94455   0.00000  Uiso   1.00
Cu941  Cu    0.75501   0.83913   0.89479   0.00000  Uiso   1.00
Cu942  Cu    0.74500   0.82754   0.77187   0.00000  Uiso   1.00
H943   H     0.89631   0.86688   0.93068   0.00000  Uiso   1.00
H944   H     0.60374   0.80034   0.73604   0.00000  Uiso   1.00
H945   H     0.88227   0.80278   0.73409   0.00000  Uiso   1.00
H946   H     0.61787   0.86474   0.93260   0.00000  Uiso   1.00
H947   H     0.94862   0.78354   0.67882   0.00000  Uiso   1.00
H948   H     0.55151   0.88430   0.98783   0.00000  Uiso   1.00
H949   H     0.53002   0.78221   0.67974   0.00000  Uiso   1.00
H950   H     0.97010   0.88554   0.98692   0.00000  Uiso   1.00
H951   H     0.71318   0.79509   0.98309   0.00000  Uiso   1.00
H952   H     0.78617   0.87266   0.68370   0.00000  Uiso   1.00
N953   N     0.73745   0.81881   0.67951   0.00000  Uiso   1.00
N954   N     0.76256   0.84786   0.98716   0.00000  Uiso   1.00
O955   O     0.75326   0.76204   0.87326   0.00000  Uiso   1.00
O956   O     0.74675   0.90462   0.79341   0.00000  Uiso   1.00
O957   O     0.74480   0.75226   0.76945   0.00000  Uiso   1.00
O958   O     0.75520   0.91441   0.89721   0.00000  Uiso   1.00
O959   O     0.68936   0.83821   0.88524   0.00000  Uiso   1.00
O960   O     0.81065   0.82845   0.78143   0.00000  Uiso   1.00
O961   O     0.68090   0.82843   0.78143   0.00000  Uiso   1.00
O962   O     0.81910   0.83824   0.88523   0.00000  Uiso   1.00
O963   O     0.73182   0.98134   0.74897   0.00000  Uiso   1.00
C964   C     0.68504   0.97131   0.73623   0.00000  Uiso   1.00
H965   H     0.66826   0.67488   0.73617   0.00000  Uiso   1.00
H966   H     0.67041   0.95088   0.76955   0.00000  Uiso   1.00
H967   H     0.67799   0.94497   0.68976   0.00000  Uiso   1.00
O968   O     0.74613   0.68404   0.91826   0.00000  Uiso   1.00
C969   C     0.70196   0.68455   0.93550   0.00000  Uiso   1.00
H970   H     0.68645   0.97754   0.93031   0.00000  Uiso   1.00
H971   H     0.68080   0.70661   0.90833   0.00000  Uiso   1.00
H972   H     0.70278   0.70470   0.98477   0.00000  Uiso   1.00
loop_
_geom_bond_atom_site_label_1
_geom_bond_atom_site_label_2
_geom_bond_distance
_geom_bond_site_symmetry_2
_ccdc_geom_bond_type
C1     O37     1.291   .     A
C1     C5      1.436   .     S
C1     O39     1.286   .     A
C2     O38     1.289   .     A
C2     C6      1.435   .     S
C2     O40     1.286   .     A
C3     C20     1.402   .     A
C3     H31     1.084   .     S
C3     C75     1.393   1_455 S
C4     H32     1.084   .     S
C4     C19     1.402   .     A
C4     C76     1.394   .     S
C5     C222    1.349   1_545 S
C5     O261    1.388   1_545 S
C6     C113    1.349   .     S
C6     O158    1.387   .     S
C7     O43     1.291   .     A
C7     O41     1.298   .     A
C7     C12     1.455   .     S
C8     O44     1.292   .     A
C8     C11     1.456   .     S
C8     O42     1.298   .     A
C9     C11     1.404   .     A
C9     H25     1.085   .     S
C9     C19     1.390   .     A
C10    H26     1.085   .     S
C10    C12     1.403   .     A
C10    C20     1.390   .     A
C11    C13     1.401   .     A
C12    C14     1.401   .     A
C13    C15     1.393   .     A
C13    H27     1.085   .     S
C14    H28     1.085   .     S
C14    C16     1.393   .     A
C15    C21     1.401   .     A
C15    C17     1.413   .     A
C16    C18     1.413   .     A
C16    C22     1.401   .     A
C17    C19     1.410   .     A
C17    C72     1.400   .     S
C18    C20     1.410   .     A
C18    C71     1.400   1_455 S
C21    H29     1.084   .     S
C21    C57     1.393   .     S
C22    H30     1.084   .     S
C22    C58     1.394   1_455 S
Cu23   Cu24    2.684   .     S
Cu23   O41     1.968   .     S
Cu23   N36     2.017   .     S
Cu23   O37     1.968   .     S
Cu23   O44     1.957   .     S
Cu23   O40     1.963   .     S
Cu24   O38     1.968   .     S
Cu24   N35     2.017   .     S
Cu24   O39     1.963   .     S
Cu24   O42     1.968   .     S
Cu24   O43     1.957   .     S
H33    N359    1.028   .     S
H34    N684    1.029   1_554 S
N35    H681    1.028   1_554 S
N35    N684    1.299   1_554 S
N36    N359    1.299   .     S
N36    H358    1.029   .     S
O45    C46     1.413   .     S
O45    C113    1.388   .     S
C46    H49     1.109   .     S
C46    H48     1.114   .     S
C46    H155    1.113   .     S
H47    C262    1.113   1_545 S
O50    C51     1.412   .     S
O50    C222    1.387   1_545 S
C51    H54     1.107   .     S
C51    H53     1.113   .     S
C51    H268    1.113   1_545 S
H52    C159    1.113   .     S
C55    O91     1.291   .     A
C55    C59     1.436   .     S
C55    O93     1.286   .     A
C56    O92     1.289   .     A
C56    C60     1.435   .     S
C56    O94     1.286   .     A
C57    C74     1.402   .     A
C57    H85     1.084   .     S
C58    H86     1.084   .     S
C58    C73     1.402   .     A
C58    C22     1.394   1_655 S
C59    C276    1.349   1_545 S
C59    O315    1.388   1_545 S
C60    C167    1.349   .     S
C60    O212    1.387   .     S
C61    O97     1.291   .     A
C61    O95     1.298   .     A
C61    C66     1.455   .     S
C62    O98     1.292   .     A
C62    C65     1.456   .     S
C62    O96     1.298   .     A
C63    C65     1.404   .     A
C63    H79     1.085   .     S
C63    C73     1.390   .     A
C64    H80     1.085   .     S
C64    C66     1.403   .     A
C64    C74     1.390   .     A
C65    C67     1.401   .     A
C66    C68     1.401   .     A
C67    C69     1.393   .     A
C67    H81     1.085   .     S
C68    H82     1.085   .     S
C68    C70     1.393   .     A
C69    C75     1.401   .     A
C69    C71     1.413   .     A
C70    C72     1.413   .     A
C70    C76     1.401   .     A
C71    C73     1.410   .     A
C71    C18     1.400   1_655 S
C72    C74     1.410   .     A
C75    H83     1.084   .     S
C75    C3      1.393   1_655 S
C76    H84     1.084   .     S
Cu77   Cu78    2.684   .     S
Cu77   O95     1.968   .     S
Cu77   N90     2.017   .     S
Cu77   O91     1.968   .     S
Cu77   O98     1.957   .     S
Cu77   O94     1.963   .     S
Cu78   O92     1.968   .     S
Cu78   N89     2.017   .     S
Cu78   O93     1.963   .     S
Cu78   O96     1.968   .     S
Cu78   O97     1.957   .     S
H87    N413    1.028   .     S
H88    N738    1.029   1_554 S
N89    H735    1.028   1_554 S
N89    N738    1.299   1_554 S
N90    N413    1.299   .     S
N90    H412    1.029   .     S
O99    C100    1.413   .     S
O99    C167    1.388   .     S
C100   H103    1.109   .     S
C100   H102    1.114   .     S
C100   H209    1.113   .     S
H101   C316    1.113   1_545 S
O104   C105    1.412   .     S
O104   C276    1.387   1_545 S
C105   H108    1.107   .     S
C105   H107    1.113   .     S
C105   H322    1.113   1_545 S
H106   C213    1.113   .     S
C109   O145    1.291   .     A
C109   C113    1.436   .     S
C109   O147    1.286   .     A
C110   O146    1.289   .     A
C110   C114    1.435   .     S
C110   O148    1.286   .     A
C111   C128    1.402   .     A
C111   H139    1.084   .     S
C111   C183    1.393   1_455 S
C112   H140    1.084   .     S
C112   C127    1.402   .     A
C112   C184    1.394   .     S
C114   C221    1.349   .     S
C114   O266    1.387   .     S
C115   O151    1.291   .     A
C115   O149    1.298   .     A
C115   C120    1.455   .     S
C116   O152    1.292   .     A
C116   C119    1.456   .     S
C116   O150    1.298   .     A
C117   C119    1.404   .     A
C117   H133    1.085   .     S
C117   C127    1.390   .     A
C118   H134    1.085   .     S
C118   C120    1.403   .     A
C118   C128    1.390   .     A
C119   C121    1.401   .     A
C120   C122    1.401   .     A
C121   C123    1.393   .     A
C121   H135    1.085   .     S
C122   H136    1.085   .     S
C122   C124    1.393   .     A
C123   C129    1.401   .     A
C123   C125    1.413   .     A
C124   C126    1.413   .     A
C124   C130    1.401   .     A
C125   C127    1.410   .     A
C125   C180    1.400   .     S
C126   C128    1.410   .     A
C126   C179    1.400   1_455 S
C129   H137    1.084   .     S
C129   C165    1.393   .     S
C130   H138    1.084   .     S
C130   C166    1.394   1_455 S
Cu131  Cu132   2.684   .     S
Cu131  O149    1.968   .     S
Cu131  N144    2.017   .     S
Cu131  O145    1.968   .     S
Cu131  O152    1.957   .     S
Cu131  O148    1.963   .     S
Cu132  O146    1.968   .     S
Cu132  N143    2.017   .     S
Cu132  O147    1.963   .     S
Cu132  O150    1.968   .     S
Cu132  O151    1.957   .     S
H141   N467    1.028   .     S
H142   N792    1.029   1_554 S
N143   H789    1.028   1_554 S
N143   N792    1.299   1_554 S
N144   N467    1.299   .     S
N144   H466    1.029   .     S
O153   C154    1.413   .     S
O153   C221    1.388   .     S
C154   H157    1.109   .     S
C154   H156    1.114   .     S
C154   H263    1.113   .     S
O158   C159    1.412   .     S
C159   H162    1.107   .     S
C159   H161    1.113   .     S
H160   C267    1.113   .     S
C163   O199    1.291   .     A
C163   C167    1.436   .     S
C163   O201    1.286   .     A
C164   O200    1.289   .     A
C164   C168    1.435   .     S
C164   O202    1.286   .     A
C165   C182    1.402   .     A
C165   H193    1.084   .     S
C166   H194    1.084   .     S
C166   C181    1.402   .     A
C166   C130    1.394   1_655 S
C168   C275    1.349   .     S
C168   O320    1.387   .     S
C169   O205    1.291   .     A
C169   O203    1.298   .     A
C169   C174    1.455   .     S
C170   O206    1.292   .     A
C170   C173    1.456   .     S
C170   O204    1.298   .     A
C171   C173    1.404   .     A
C171   H187    1.085   .     S
C171   C181    1.390   .     A
C172   H188    1.085   .     S
C172   C174    1.403   .     A
C172   C182    1.390   .     A
C173   C175    1.401   .     A
C174   C176    1.401   .     A
C175   C177    1.393   .     A
C175   H189    1.085   .     S
C176   H190    1.085   .     S
C176   C178    1.393   .     A
C177   C183    1.401   .     A
C177   C179    1.413   .     A
C178   C180    1.413   .     A
C178   C184    1.401   .     A
C179   C181    1.410   .     A
C179   C126    1.400   1_655 S
C180   C182    1.410   .     A
C183   H191    1.084   .     S
C183   C111    1.393   1_655 S
C184   H192    1.084   .     S
Cu185  Cu186   2.684   .     S
Cu185  O203    1.968   .     S
Cu185  N198    2.017   .     S
Cu185  O199    1.968   .     S
Cu185  O206    1.957   .     S
Cu185  O202    1.963   .     S
Cu186  O200    1.968   .     S
Cu186  N197    2.017   .     S
Cu186  O201    1.963   .     S
Cu186  O204    1.968   .     S
Cu186  O205    1.957   .     S
H195   N521    1.028   .     S
H196   N846    1.029   1_554 S
N197   H843    1.028   1_554 S
N197   N846    1.299   1_554 S
N198   N521    1.299   .     S
N198   H520    1.029   .     S
O207   C208    1.413   .     S
O207   C275    1.388   .     S
C208   H211    1.109   .     S
C208   H210    1.114   .     S
C208   H317    1.113   .     S
O212   C213    1.412   .     S
C213   H216    1.107   .     S
C213   H215    1.113   .     S
H214   C321    1.113   .     S
C217   O253    1.291   .     A
C217   C221    1.436   .     S
C217   O255    1.286   .     A
C218   O254    1.289   .     A
C218   C222    1.435   .     S
C218   O256    1.286   .     A
C219   C236    1.402   .     A
C219   H247    1.084   .     S
C219   C291    1.393   1_455 S
C220   H248    1.084   .     S
C220   C235    1.402   .     A
C220   C292    1.394   .     S
C222   C5      1.349   1_565 S
C222   O50     1.387   1_565 S
C223   O259    1.291   .     A
C223   O257    1.298   .     A
C223   C228    1.455   .     S
C224   O260    1.292   .     A
C224   C227    1.456   .     S
C224   O258    1.298   .     A
C225   C227    1.404   .     A
C225   H241    1.085   .     S
C225   C235    1.390   .     A
C226   H242    1.085   .     S
C226   C228    1.403   .     A
C226   C236    1.390   .     A
C227   C229    1.401   .     A
C228   C230    1.401   .     A
C229   C231    1.393   .     A
C229   H243    1.085   .     S
C230   H244    1.085   .     S
C230   C232    1.393   .     A
C231   C237    1.401   .     A
C231   C233    1.413   .     A
C232   C234    1.413   .     A
C232   C238    1.401   .     A
C233   C235    1.410   .     A
C233   C288    1.400   .     S
C234   C236    1.410   .     A
C234   C287    1.400   1_455 S
C237   H245    1.084   .     S
C237   C273    1.393   .     S
C238   H246    1.084   .     S
C238   C274    1.394   1_455 S
Cu239  Cu240   2.684   .     S
Cu239  O257    1.968   .     S
Cu239  N252    2.017   .     S
Cu239  O253    1.968   .     S
Cu239  O260    1.957   .     S
Cu239  O256    1.963   .     S
Cu240  O254    1.968   .     S
Cu240  N251    2.017   .     S
Cu240  O255    1.963   .     S
Cu240  O258    1.968   .     S
Cu240  O259    1.957   .     S
H249   N575    1.028   .     S
H250   N900    1.029   1_554 S
N251   H897    1.028   1_554 S
N251   N900    1.299   1_554 S
N252   N575    1.299   .     S
N252   H574    1.029   .     S
O261   C262    1.413   .     S
O261   C5      1.388   1_565 S
C262   H265    1.109   .     S
C262   H264    1.114   .     S
C262   H47     1.113   1_565 S
O266   C267    1.412   .     S
C267   H270    1.107   .     S
C267   H269    1.113   .     S
H268   C51     1.113   1_565 S
C271   O307    1.291   .     A
C271   C275    1.436   .     S
C271   O309    1.286   .     A
C272   O308    1.289   .     A
C272   C276    1.435   .     S
C272   O310    1.286   .     A
C273   C290    1.402   .     A
C273   H301    1.084   .     S
C274   H302    1.084   .     S
C274   C289    1.402   .     A
C274   C238    1.394   1_655 S
C276   C59     1.349   1_565 S
C276   O104    1.387   1_565 S
C277   O313    1.291   .     A
C277   O311    1.298   .     A
C277   C282    1.455   .     S
C278   O314    1.292   .     A
C278   C281    1.456   .     S
C278   O312    1.298   .     A
C279   C281    1.404   .     A
C279   H295    1.085   .     S
C279   C289    1.390   .     A
C280   H296    1.085   .     S
C280   C282    1.403   .     A
C280   C290    1.390   .     A
C281   C283    1.401   .     A
C282   C284    1.401   .     A
C283   C285    1.393   .     A
C283   H297    1.085   .     S
C284   H298    1.085   .     S
C284   C286    1.393   .     A
C285   C291    1.401   .     A
C285   C287    1.413   .     A
C286   C288    1.413   .     A
C286   C292    1.401   .     A
C287   C289    1.410   .     A
C287   C234    1.400   1_655 S
C288   C290    1.410   .     A
C291   H299    1.084   .     S
C291   C219    1.393   1_655 S
C292   H300    1.084   .     S
Cu293  Cu294   2.684   .     S
Cu293  O311    1.968   .     S
Cu293  N306    2.017   .     S
Cu293  O307    1.968   .     S
Cu293  O314    1.957   .     S
Cu293  O310    1.963   .     S
Cu294  O308    1.968   .     S
Cu294  N305    2.017   .     S
Cu294  O309    1.963   .     S
Cu294  O312    1.968   .     S
Cu294  O313    1.957   .     S
H303   N629    1.028   .     S
H304   N954    1.029   1_554 S
N305   H951    1.028   1_554 S
N305   N954    1.299   1_554 S
N306   N629    1.299   .     S
N306   H628    1.029   .     S
O315   C316    1.413   .     S
O315   C59     1.388   1_565 S
C316   H319    1.109   .     S
C316   H318    1.114   .     S
C316   H101    1.113   1_565 S
O320   C321    1.412   .     S
C321   H324    1.107   .     S
C321   H323    1.113   .     S
H322   C105    1.113   1_565 S
C325   O361    1.291   .     A
C325   C329    1.436   .     S
C325   O363    1.286   .     A
C326   O362    1.289   .     A
C326   C330    1.435   .     S
C326   O364    1.286   .     A
C327   C344    1.402   .     A
C327   H355    1.084   .     S
C327   C399    1.393   1_455 S
C328   H356    1.084   .     S
C328   C343    1.402   .     A
C328   C400    1.394   .     S
C329   C546    1.349   1_545 S
C329   O585    1.388   1_545 S
C330   C437    1.349   .     S
C330   O482    1.387   .     S
C331   O367    1.291   .     A
C331   O365    1.298   .     A
C331   C336    1.455   .     S
C332   O368    1.292   .     A
C332   C335    1.456   .     S
C332   O366    1.298   .     A
C333   C335    1.404   .     A
C333   H349    1.085   .     S
C333   C343    1.390   .     A
C334   H350    1.085   .     S
C334   C336    1.403   .     A
C334   C344    1.390   .     A
C335   C337    1.401   .     A
C336   C338    1.401   .     A
C337   C339    1.393   .     A
C337   H351    1.085   .     S
C338   H352    1.085   .     S
C338   C340    1.393   .     A
C339   C345    1.401   .     A
C339   C341    1.413   .     A
C340   C342    1.413   .     A
C340   C346    1.401   .     A
C341   C343    1.410   .     A
C341   C396    1.400   .     S
C342   C344    1.410   .     A
C342   C395    1.400   1_455 S
C345   H353    1.084   .     S
C345   C381    1.393   .     S
C346   H354    1.084   .     S
C346   C382    1.394   1_455 S
Cu347  Cu348   2.684   .     S
Cu347  O365    1.968   .     S
Cu347  N360    2.017   .     S
Cu347  O361    1.968   .     S
Cu347  O368    1.957   .     S
Cu347  O364    1.963   .     S
Cu348  O362    1.968   .     S
Cu348  N359    2.017   .     S
Cu348  O363    1.963   .     S
Cu348  O366    1.968   .     S
Cu348  O367    1.957   .     S
H357   N683    1.028   .     S
N360   N683    1.299   .     S
N360   H682    1.029   .     S
O369   C370    1.413   .     S
O369   C437    1.388   .     S
C370   H373    1.109   .     S
C370   H372    1.114   .     S
C370   H479    1.113   .     S
H371   C586    1.113   1_545 S
O374   C375    1.412   .     S
O374   C546    1.387   1_545 S
C375   H378    1.107   .     S
C375   H377    1.113   .     S
C375   H592    1.113   1_545 S
H376   C483    1.113   .     S
C379   O415    1.291   .     A
C379   C383    1.436   .     S
C379   O417    1.286   .     A
C380   O416    1.289   .     A
C380   C384    1.435   .     S
C380   O418    1.286   .     A
C381   C398    1.402   .     A
C381   H409    1.084   .     S
C382   H410    1.084   .     S
C382   C397    1.402   .     A
C382   C346    1.394   1_655 S
C383   C600    1.349   1_545 S
C383   O639    1.388   1_545 S
C384   C491    1.349   .     S
C384   O536    1.387   .     S
C385   O421    1.291   .     A
C385   O419    1.298   .     A
C385   C390    1.455   .     S
C386   O422    1.292   .     A
C386   C389    1.456   .     S
C386   O420    1.298   .     A
C387   C389    1.404   .     A
C387   H403    1.085   .     S
C387   C397    1.390   .     A
C388   H404    1.085   .     S
C388   C390    1.403   .     A
C388   C398    1.390   .     A
C389   C391    1.401   .     A
C390   C392    1.401   .     A
C391   C393    1.393   .     A
C391   H405    1.085   .     S
C392   H406    1.085   .     S
C392   C394    1.393   .     A
C393   C399    1.401   .     A
C393   C395    1.413   .     A
C394   C396    1.413   .     A
C394   C400    1.401   .     A
C395   C397    1.410   .     A
C395   C342    1.400   1_655 S
C396   C398    1.410   .     A
C399   H407    1.084   .     S
C399   C327    1.393   1_655 S
C400   H408    1.084   .     S
Cu401  Cu402   2.684   .     S
Cu401  O419    1.968   .     S
Cu401  N414    2.017   .     S
Cu401  O415    1.968   .     S
Cu401  O422    1.957   .     S
Cu401  O418    1.963   .     S
Cu402  O416    1.968   .     S
Cu402  N413    2.017   .     S
Cu402  O417    1.963   .     S
Cu402  O420    1.968   .     S
Cu402  O421    1.957   .     S
H411   N737    1.028   .     S
N414   N737    1.299   .     S
N414   H736    1.029   .     S
O423   C424    1.413   .     S
O423   C491    1.388   .     S
C424   H427    1.109   .     S
C424   H426    1.114   .     S
C424   H533    1.113   .     S
H425   C640    1.113   1_545 S
O428   C429    1.412   .     S
O428   C600    1.387   1_545 S
C429   H432    1.107   .     S
C429   H431    1.113   .     S
C429   H646    1.113   1_545 S
H430   C537    1.113   .     S
C433   O469    1.291   .     A
C433   C437    1.436   .     S
C433   O471    1.286   .     A
C434   O470    1.289   .     A
C434   C438    1.435   .     S
C434   O472    1.286   .     A
C435   C452    1.402   .     A
C435   H463    1.084   .     S
C435   C507    1.393   1_455 S
C436   H464    1.084   .     S
C436   C451    1.402   .     A
C436   C508    1.394   .     S
C438   C545    1.349   .     S
C438   O590    1.387   .     S
C439   O475    1.291   .     A
C439   O473    1.298   .     A
C439   C444    1.455   .     S
C440   O476    1.292   .     A
C440   C443    1.456   .     S
C440   O474    1.298   .     A
C441   C443    1.404   .     A
C441   H457    1.085   .     S
C441   C451    1.390   .     A
C442   H458    1.085   .     S
C442   C444    1.403   .     A
C442   C452    1.390   .     A
C443   C445    1.401   .     A
C444   C446    1.401   .     A
C445   C447    1.393   .     A
C445   H459    1.085   .     S
C446   H460    1.085   .     S
C446   C448    1.393   .     A
C447   C453    1.401   .     A
C447   C449    1.413   .     A
C448   C450    1.413   .     A
C448   C454    1.401   .     A
C449   C451    1.410   .     A
C449   C504    1.400   .     S
C450   C452    1.410   .     A
C450   C503    1.400   1_455 S
C453   H461    1.084   .     S
C453   C489    1.393   .     S
C454   H462    1.084   .     S
C454   C490    1.394   1_455 S
Cu455  Cu456   2.684   .     S
Cu455  O473    1.968   .     S
Cu455  N468    2.017   .     S
Cu455  O469    1.968   .     S
Cu455  O476    1.957   .     S
Cu455  O472    1.963   .     S
Cu456  O470    1.968   .     S
Cu456  N467    2.017   .     S
Cu456  O471    1.963   .     S
Cu456  O474    1.968   .     S
Cu456  O475    1.957   .     S
H465   N791    1.028   .     S
N468   N791    1.299   .     S
N468   H790    1.029   .     S
O477   C478    1.413   .     S
O477   C545    1.388   .     S
C478   H481    1.109   .     S
C478   H480    1.114   .     S
C478   H587    1.113   .     S
O482   C483    1.412   .     S
C483   H486    1.107   .     S
C483   H485    1.113   .     S
H484   C591    1.113   .     S
C487   O523    1.291   .     A
C487   C491    1.436   .     S
C487   O525    1.286   .     A
C488   O524    1.289   .     A
C488   C492    1.435   .     S
C488   O526    1.286   .     A
C489   C506    1.402   .     A
C489   H517    1.084   .     S
C490   H518    1.084   .     S
C490   C505    1.402   .     A
C490   C454    1.394   1_655 S
C492   C599    1.349   .     S
C492   O644    1.387   .     S
C493   O529    1.291   .     A
C493   O527    1.298   .     A
C493   C498    1.455   .     S
C494   O530    1.292   .     A
C494   C497    1.456   .     S
C494   O528    1.298   .     A
C495   C497    1.404   .     A
C495   H511    1.085   .     S
C495   C505    1.390   .     A
C496   H512    1.085   .     S
C496   C498    1.403   .     A
C496   C506    1.390   .     A
C497   C499    1.401   .     A
C498   C500    1.401   .     A
C499   C501    1.393   .     A
C499   H513    1.085   .     S
C500   H514    1.085   .     S
C500   C502    1.393   .     A
C501   C507    1.401   .     A
C501   C503    1.413   .     A
C502   C504    1.413   .     A
C502   C508    1.401   .     A
C503   C505    1.410   .     A
C503   C450    1.400   1_655 S
C504   C506    1.410   .     A
C507   H515    1.084   .     S
C507   C435    1.393   1_655 S
C508   H516    1.084   .     S
Cu509  Cu510   2.684   .     S
Cu509  O527    1.968   .     S
Cu509  N522    2.017   .     S
Cu509  O523    1.968   .     S
Cu509  O530    1.957   .     S
Cu509  O526    1.963   .     S
Cu510  O524    1.968   .     S
Cu510  N521    2.017   .     S
Cu510  O525    1.963   .     S
Cu510  O528    1.968   .     S
Cu510  O529    1.957   .     S
H519   N845    1.028   .     S
N522   N845    1.299   .     S
N522   H844    1.029   .     S
O531   C532    1.413   .     S
O531   C599    1.388   .     S
C532   H535    1.109   .     S
C532   H534    1.114   .     S
C532   H641    1.113   .     S
O536   C537    1.412   .     S
C537   H540    1.107   .     S
C537   H539    1.113   .     S
H538   C645    1.113   .     S
C541   O577    1.291   .     A
C541   C545    1.436   .     S
C541   O579    1.286   .     A
C542   O578    1.289   .     A
C542   C546    1.435   .     S
C542   O580    1.286   .     A
C543   C560    1.402   .     A
C543   H571    1.084   .     S
C543   C615    1.393   1_455 S
C544   H572    1.084   .     S
C544   C559    1.402   .     A
C544   C616    1.394   .     S
C546   C329    1.349   1_565 S
C546   O374    1.387   1_565 S
C547   O583    1.291   .     A
C547   O581    1.298   .     A
C547   C552    1.455   .     S
C548   O584    1.292   .     A
C548   C551    1.456   .     S
C548   O582    1.298   .     A
C549   C551    1.404   .     A
C549   H565    1.085   .     S
C549   C559    1.390   .     A
C550   H566    1.085   .     S
C550   C552    1.403   .     A
C550   C560    1.390   .     A
C551   C553    1.401   .     A
C552   C554    1.401   .     A
C553   C555    1.393   .     A
C553   H567    1.085   .     S
C554   H568    1.085   .     S
C554   C556    1.393   .     A
C555   C561    1.401   .     A
C555   C557    1.413   .     A
C556   C558    1.413   .     A
C556   C562    1.401   .     A
C557   C559    1.410   .     A
C557   C612    1.400   .     S
C558   C560    1.410   .     A
C558   C611    1.400   1_455 S
C561   H569    1.084   .     S
C561   C597    1.393   .     S
C562   H570    1.084   .     S
C562   C598    1.394   1_455 S
Cu563  Cu564   2.684   .     S
Cu563  O581    1.968   .     S
Cu563  N576    2.017   .     S
Cu563  O577    1.968   .     S
Cu563  O584    1.957   .     S
Cu563  O580    1.963   .     S
Cu564  O578    1.968   .     S
Cu564  N575    2.017   .     S
Cu564  O579    1.963   .     S
Cu564  O582    1.968   .     S
Cu564  O583    1.957   .     S
H573   N899    1.028   .     S
N576   N899    1.299   .     S
N576   H898    1.029   .     S
O585   C586    1.413   .     S
O585   C329    1.388   1_565 S
C586   H589    1.109   .     S
C586   H588    1.114   .     S
C586   H371    1.113   1_565 S
O590   C591    1.412   .     S
C591   H594    1.107   .     S
C591   H593    1.113   .     S
H592   C375    1.113   1_565 S
C595   O631    1.291   .     A
C595   C599    1.436   .     S
C595   O633    1.286   .     A
C596   O632    1.289   .     A
C596   C600    1.435   .     S
C596   O634    1.286   .     A
C597   C614    1.402   .     A
C597   H625    1.084   .     S
C598   H626    1.084   .     S
C598   C613    1.402   .     A
C598   C562    1.394   1_655 S
C600   C383    1.349   1_565 S
C600   O428    1.387   1_565 S
C601   O637    1.291   .     A
C601   O635    1.298   .     A
C601   C606    1.455   .     S
C602   O638    1.292   .     A
C602   C605    1.456   .     S
C602   O636    1.298   .     A
C603   C605    1.404   .     A
C603   H619    1.085   .     S
C603   C613    1.390   .     A
C604   H620    1.085   .     S
C604   C606    1.403   .     A
C604   C614    1.390   .     A
C605   C607    1.401   .     A
C606   C608    1.401   .     A
C607   C609    1.393   .     A
C607   H621    1.085   .     S
C608   H622    1.085   .     S
C608   C610    1.393   .     A
C609   C615    1.401   .     A
C609   C611    1.413   .     A
C610   C612    1.413   .     A
C610   C616    1.401   .     A
C611   C613    1.410   .     A
C611   C558    1.400   1_655 S
C612   C614    1.410   .     A
C615   H623    1.084   .     S
C615   C543    1.393   1_655 S
C616   H624    1.084   .     S
Cu617  Cu618   2.684   .     S
Cu617  O635    1.968   .     S
Cu617  N630    2.017   .     S
Cu617  O631    1.968   .     S
Cu617  O638    1.957   .     S
Cu617  O634    1.963   .     S
Cu618  O632    1.968   .     S
Cu618  N629    2.017   .     S
Cu618  O633    1.963   .     S
Cu618  O636    1.968   .     S
Cu618  O637    1.957   .     S
H627   N953    1.028   .     S
N630   N953    1.299   .     S
N630   H952    1.029   .     S
O639   C640    1.413   .     S
O639   C383    1.388   1_565 S
C640   H643    1.109   .     S
C640   H642    1.114   .     S
C640   H425    1.113   1_565 S
O644   C645    1.412   .     S
C645   H648    1.107   .     S
C645   H647    1.113   .     S
H646   C429    1.113   1_565 S
C649   O685    1.291   .     A
C649   C653    1.436   .     S
C649   O687    1.286   .     A
C650   O686    1.289   .     A
C650   C654    1.435   .     S
C650   O688    1.286   .     A
C651   C668    1.402   .     A
C651   H679    1.084   .     S
C651   C723    1.393   1_455 S
C652   H680    1.084   .     S
C652   C667    1.402   .     A
C652   C724    1.394   .     S
C653   C870    1.349   1_545 S
C653   O909    1.388   1_545 S
C654   C761    1.349   .     S
C654   O806    1.387   .     S
C655   O691    1.291   .     A
C655   O689    1.298   .     A
C655   C660    1.455   .     S
C656   O692    1.292   .     A
C656   C659    1.456   .     S
C656   O690    1.298   .     A
C657   C659    1.404   .     A
C657   H673    1.085   .     S
C657   C667    1.390   .     A
C658   H674    1.085   .     S
C658   C660    1.403   .     A
C658   C668    1.390   .     A
C659   C661    1.401   .     A
C660   C662    1.401   .     A
C661   C663    1.393   .     A
C661   H675    1.085   .     S
C662   H676    1.085   .     S
C662   C664    1.393   .     A
C663   C669    1.401   .     A
C663   C665    1.413   .     A
C664   C666    1.413   .     A
C664   C670    1.401   .     A
C665   C667    1.410   .     A
C665   C720    1.400   .     S
C666   C668    1.410   .     A
C666   C719    1.400   1_455 S
C669   H677    1.084   .     S
C669   C705    1.393   .     S
C670   H678    1.084   .     S
C670   C706    1.394   1_455 S
Cu671  Cu672   2.684   .     S
Cu671  O689    1.968   .     S
Cu671  N684    2.017   .     S
Cu671  O685    1.968   .     S
Cu671  O692    1.957   .     S
Cu671  O688    1.963   .     S
Cu672  O686    1.968   .     S
Cu672  N683    2.017   .     S
Cu672  O687    1.963   .     S
Cu672  O690    1.968   .     S
Cu672  O691    1.957   .     S
H681   N35     1.028   1_556 S
N684   N35     1.299   1_556 S
N684   H34     1.029   1_556 S
O693   C694    1.413   .     S
O693   C761    1.388   .     S
C694   H697    1.109   .     S
C694   H696    1.114   .     S
C694   H803    1.113   .     S
H695   C910    1.113   1_545 S
O698   C699    1.412   .     S
O698   C870    1.387   1_545 S
C699   H702    1.107   .     S
C699   H701    1.113   .     S
C699   H916    1.113   1_545 S
H700   C807    1.113   .     S
C703   O739    1.291   .     A
C703   C707    1.436   .     S
C703   O741    1.286   .     A
C704   O740    1.289   .     A
C704   C708    1.435   .     S
C704   O742    1.286   .     A
C705   C722    1.402   .     A
C705   H733    1.084   .     S
C706   H734    1.084   .     S
C706   C721    1.402   .     A
C706   C670    1.394   1_655 S
C707   C924    1.349   1_545 S
C707   O963    1.388   1_545 S
C708   C815    1.349   .     S
C708   O860    1.387   .     S
C709   O745    1.291   .     A
C709   O743    1.298   .     A
C709   C714    1.455   .     S
C710   O746    1.292   .     A
C710   C713    1.456   .     S
C710   O744    1.298   .     A
C711   C713    1.404   .     A
C711   H727    1.085   .     S
C711   C721    1.390   .     A
C712   H728    1.085   .     S
C712   C714    1.403   .     A
C712   C722    1.390   .     A
C713   C715    1.401   .     A
C714   C716    1.401   .     A
C715   C717    1.393   .     A
C715   H729    1.085   .     S
C716   H730    1.085   .     S
C716   C718    1.393   .     A
C717   C723    1.401   .     A
C717   C719    1.413   .     A
C718   C720    1.413   .     A
C718   C724    1.401   .     A
C719   C721    1.410   .     A
C719   C666    1.400   1_655 S
C720   C722    1.410   .     A
C723   H731    1.084   .     S
C723   C651    1.393   1_655 S
C724   H732    1.084   .     S
Cu725  Cu726   2.684   .     S
Cu725  O743    1.968   .     S
Cu725  N738    2.017   .     S
Cu725  O739    1.968   .     S
Cu725  O746    1.957   .     S
Cu725  O742    1.963   .     S
Cu726  O740    1.968   .     S
Cu726  N737    2.017   .     S
Cu726  O741    1.963   .     S
Cu726  O744    1.968   .     S
Cu726  O745    1.957   .     S
H735   N89     1.028   1_556 S
N738   N89     1.299   1_556 S
N738   H88     1.029   1_556 S
O747   C748    1.413   .     S
O747   C815    1.388   .     S
C748   H751    1.109   .     S
C748   H750    1.114   .     S
C748   H857    1.113   .     S
H749   C964    1.113   1_545 S
O752   C753    1.412   .     S
O752   C924    1.387   1_545 S
C753   H756    1.107   .     S
C753   H755    1.113   .     S
C753   H970    1.113   1_545 S
H754   C861    1.113   .     S
C757   O793    1.291   .     A
C757   C761    1.436   .     S
C757   O795    1.286   .     A
C758   O794    1.289   .     A
C758   C762    1.435   .     S
C758   O796    1.286   .     A
C759   C776    1.402   .     A
C759   H787    1.084   .     S
C759   C831    1.393   1_455 S
C760   H788    1.084   .     S
C760   C775    1.402   .     A
C760   C832    1.394   .     S
C762   C869    1.349   .     S
C762   O914    1.387   .     S
C763   O799    1.291   .     A
C763   O797    1.298   .     A
C763   C768    1.455   .     S
C764   O800    1.292   .     A
C764   C767    1.456   .     S
C764   O798    1.298   .     A
C765   C767    1.404   .     A
C765   H781    1.085   .     S
C765   C775    1.390   .     A
C766   H782    1.085   .     S
C766   C768    1.403   .     A
C766   C776    1.390   .     A
C767   C769    1.401   .     A
C768   C770    1.401   .     A
C769   C771    1.393   .     A
C769   H783    1.085   .     S
C770   H784    1.085   .     S
C770   C772    1.393   .     A
C771   C777    1.401   .     A
C771   C773    1.413   .     A
C772   C774    1.413   .     A
C772   C778    1.401   .     A
C773   C775    1.410   .     A
C773   C828    1.400   .     S
C774   C776    1.410   .     A
C774   C827    1.400   1_455 S
C777   H785    1.084   .     S
C777   C813    1.393   .     S
C778   H786    1.084   .     S
C778   C814    1.394   1_455 S
Cu779  Cu780   2.684   .     S
Cu779  O797    1.968   .     S
Cu779  N792    2.017   .     S
Cu779  O793    1.968   .     S
Cu779  O800    1.957   .     S
Cu779  O796    1.963   .     S
Cu780  O794    1.968   .     S
Cu780  N791    2.017   .     S
Cu780  O795    1.963   .     S
Cu780  O798    1.968   .     S
Cu780  O799    1.957   .     S
H789   N143    1.028   1_556 S
N792   N143    1.299   1_556 S
N792   H142    1.029   1_556 S
O801   C802    1.413   .     S
O801   C869    1.388   .     S
C802   H805    1.109   .     S
C802   H804    1.114   .     S
C802   H911    1.113   .     S
O806   C807    1.412   .     S
C807   H810    1.107   .     S
C807   H809    1.113   .     S
H808   C915    1.113   .     S
C811   O847    1.291   .     A
C811   C815    1.436   .     S
C811   O849    1.286   .     A
C812   O848    1.289   .     A
C812   C816    1.435   .     S
C812   O850    1.286   .     A
C813   C830    1.402   .     A
C813   H841    1.084   .     S
C814   H842    1.084   .     S
C814   C829    1.402   .     A
C814   C778    1.394   1_655 S
C816   C923    1.349   .     S
C816   O968    1.387   .     S
C817   O853    1.291   .     A
C817   O851    1.298   .     A
C817   C822    1.455   .     S
C818   O854    1.292   .     A
C818   C821    1.456   .     S
C818   O852    1.298   .     A
C819   C821    1.404   .     A
C819   H835    1.085   .     S
C819   C829    1.390   .     A
C820   H836    1.085   .     S
C820   C822    1.403   .     A
C820   C830    1.390   .     A
C821   C823    1.401   .     A
C822   C824    1.401   .     A
C823   C825    1.393   .     A
C823   H837    1.085   .     S
C824   H838    1.085   .     S
C824   C826    1.393   .     A
C825   C831    1.401   .     A
C825   C827    1.413   .     A
C826   C828    1.413   .     A
C826   C832    1.401   .     A
C827   C829    1.410   .     A
C827   C774    1.400   1_655 S
C828   C830    1.410   .     A
C831   H839    1.084   .     S
C831   C759    1.393   1_655 S
C832   H840    1.084   .     S
Cu833  Cu834   2.684   .     S
Cu833  O851    1.968   .     S
Cu833  N846    2.017   .     S
Cu833  O847    1.968   .     S
Cu833  O854    1.957   .     S
Cu833  O850    1.963   .     S
Cu834  O848    1.968   .     S
Cu834  N845    2.017   .     S
Cu834  O849    1.963   .     S
Cu834  O852    1.968   .     S
Cu834  O853    1.957   .     S
H843   N197    1.028   1_556 S
N846   N197    1.299   1_556 S
N846   H196    1.029   1_556 S
O855   C856    1.413   .     S
O855   C923    1.388   .     S
C856   H859    1.109   .     S
C856   H858    1.114   .     S
C856   H965    1.113   .     S
O860   C861    1.412   .     S
C861   H864    1.107   .     S
C861   H863    1.113   .     S
H862   C969    1.113   .     S
C865   O901    1.291   .     A
C865   C869    1.436   .     S
C865   O903    1.286   .     A
C866   O902    1.289   .     A
C866   C870    1.435   .     S
C866   O904    1.286   .     A
C867   C884    1.402   .     A
C867   H895    1.084   .     S
C867   C939    1.393   1_455 S
C868   H896    1.084   .     S
C868   C883    1.402   .     A
C868   C940    1.394   .     S
C870   C653    1.349   1_565 S
C870   O698    1.387   1_565 S
C871   O907    1.291   .     A
C871   O905    1.298   .     A
C871   C876    1.455   .     S
C872   O908    1.292   .     A
C872   C875    1.456   .     S
C872   O906    1.298   .     A
C873   C875    1.404   .     A
C873   H889    1.085   .     S
C873   C883    1.390   .     A
C874   H890    1.085   .     S
C874   C876    1.403   .     A
C874   C884    1.390   .     A
C875   C877    1.401   .     A
C876   C878    1.401   .     A
C877   C879    1.393   .     A
C877   H891    1.085   .     S
C878   H892    1.085   .     S
C878   C880    1.393   .     A
C879   C885    1.401   .     A
C879   C881    1.413   .     A
C880   C882    1.413   .     A
C880   C886    1.401   .     A
C881   C883    1.410   .     A
C881   C936    1.400   .     S
C882   C884    1.410   .     A
C882   C935    1.400   1_455 S
C885   H893    1.084   .     S
C885   C921    1.393   .     S
C886   H894    1.084   .     S
C886   C922    1.394   1_455 S
Cu887  Cu888   2.684   .     S
Cu887  O905    1.968   .     S
Cu887  N900    2.017   .     S
Cu887  O901    1.968   .     S
Cu887  O908    1.957   .     S
Cu887  O904    1.963   .     S
Cu888  O902    1.968   .     S
Cu888  N899    2.017   .     S
Cu888  O903    1.963   .     S
Cu888  O906    1.968   .     S
Cu888  O907    1.957   .     S
H897   N251    1.028   1_556 S
N900   N251    1.299   1_556 S
N900   H250    1.029   1_556 S
O909   C910    1.413   .     S
O909   C653    1.388   1_565 S
C910   H913    1.109   .     S
C910   H912    1.114   .     S
C910   H695    1.113   1_565 S
O914   C915    1.412   .     S
C915   H918    1.107   .     S
C915   H917    1.113   .     S
H916   C699    1.113   1_565 S
C919   O955    1.291   .     A
C919   C923    1.436   .     S
C919   O957    1.286   .     A
C920   O956    1.289   .     A
C920   C924    1.435   .     S
C920   O958    1.286   .     A
C921   C938    1.402   .     A
C921   H949    1.084   .     S
C922   H950    1.084   .     S
C922   C937    1.402   .     A
C922   C886    1.394   1_655 S
C924   C707    1.349   1_565 S
C924   O752    1.387   1_565 S
C925   O961    1.291   .     A
C925   O959    1.298   .     A
C925   C930    1.455   .     S
C926   O962    1.292   .     A
C926   C929    1.456   .     S
C926   O960    1.298   .     A
C927   C929    1.404   .     A
C927   H943    1.085   .     S
C927   C937    1.390   .     A
C928   H944    1.085   .     S
C928   C930    1.403   .     A
C928   C938    1.390   .     A
C929   C931    1.401   .     A
C930   C932    1.401   .     A
C931   C933    1.393   .     A
C931   H945    1.085   .     S
C932   H946    1.085   .     S
C932   C934    1.393   .     A
C933   C939    1.401   .     A
C933   C935    1.413   .     A
C934   C936    1.413   .     A
C934   C940    1.401   .     A
C935   C937    1.410   .     A
C935   C882    1.400   1_655 S
C936   C938    1.410   .     A
C939   H947    1.084   .     S
C939   C867    1.393   1_655 S
C940   H948    1.084   .     S
Cu941  Cu942   2.684   .     S
Cu941  O959    1.968   .     S
Cu941  N954    2.017   .     S
Cu941  O955    1.968   .     S
Cu941  O962    1.957   .     S
Cu941  O958    1.963   .     S
Cu942  O956    1.968   .     S
Cu942  N953    2.017   .     S
Cu942  O957    1.963   .     S
Cu942  O960    1.968   .     S
Cu942  O961    1.957   .     S
H951   N305    1.028   1_556 S
N954   N305    1.299   1_556 S
N954   H304    1.029   1_556 S
O963   C964    1.413   .     S
O963   C707    1.388   1_565 S
C964   H967    1.109   .     S
C964   H966    1.114   .     S
C964   H749    1.113   1_565 S
O968   C969    1.412   .     S
C969   H972    1.107   .     S
C969   H971    1.113   .     S
H970   C753    1.113   1_565 S
