data_str_m3_o1_o10_pcu_sym.128
_audit_creation_date              2020-01-03
_audit_creation_method            'Materials Studio'
_symmetry_space_group_name_H-M    'P1'
_symmetry_Int_Tables_number       1
_symmetry_cell_setting            triclinic
loop_
_symmetry_equiv_pos_as_xyz
  x,y,z
_cell_length_a                    25.8069
_cell_length_b                    31.8857
_cell_length_c                    29.5783
_cell_angle_alpha                 89.9735
_cell_angle_beta                  97.9783
_cell_angle_gamma                 90.3461
loop_
_atom_site_label
_atom_site_type_symbol
_atom_site_fract_x
_atom_site_fract_y
_atom_site_fract_z
_atom_site_U_iso_or_equiv
_atom_site_adp_type
_atom_site_occupancy
C1     C     0.16732   0.08677   0.16674   0.00000  Uiso   1.00
C2     C     0.16601   0.24657   0.16660   0.00000  Uiso   1.00
C3     C     0.06720   0.16641   0.15509   0.00000  Uiso   1.00
C4     C     0.26613   0.16693   0.17824   0.00000  Uiso   1.00
C5     C     0.01321   0.15917   0.15039   0.00000  Uiso   1.00
C6     C     0.32012   0.17416   0.18294   0.00000  Uiso   1.00
C7     C     0.20726   0.02130   0.19445   0.00000  Uiso   1.00
C8     C     0.12608   0.31203   0.13888   0.00000  Uiso   1.00
C9     C     0.20603   0.31149   0.19434   0.00000  Uiso   1.00
C10    C     0.12730   0.02185   0.13899   0.00000  Uiso   1.00
C11    C     0.16577   0.29067   0.16659   0.00000  Uiso   1.00
C12    C     0.16756   0.04267   0.16675   0.00000  Uiso   1.00
C13    C     0.19983   0.19236   0.02796   0.00000  Uiso   1.00
C14    C     0.13351   0.14097   0.30537   0.00000  Uiso   1.00
C15    C     0.19980   0.19236   0.31336   0.00000  Uiso   1.00
C16    C     0.13353   0.14098   0.01997   0.00000  Uiso   1.00
N17    N     0.16665   0.16666   0.28573   0.00000  Uiso   1.00
N18    N     0.16668   0.16668   0.04760   0.00000  Uiso   1.00
O19    O     0.16666   0.10558   0.20487   0.00000  Uiso   1.00
O20    O     0.16667   0.22775   0.12846   0.00000  Uiso   1.00
O21    O     0.16666   0.10559   0.12843   0.00000  Uiso   1.00
O22    O     0.16667   0.22774   0.20490   0.00000  Uiso   1.00
O23    O     0.09058   0.16666   0.19595   0.00000  Uiso   1.00
O24    O     0.24275   0.16667   0.13739   0.00000  Uiso   1.00
O25    O     0.09058   0.16667   0.11950   0.00000  Uiso   1.00
O26    O     0.24275   0.16666   0.21383   0.00000  Uiso   1.00
Zn27   Zn    0.16667   0.16666   0.21771   0.00000  Uiso   1.00
Zn28   Zn    0.16667   0.16667   0.11563   0.00000  Uiso   1.00
Br29   Br    0.32028   0.11853   0.10371   0.00000  Uiso   1.00
Br30   Br    0.01306   0.21480   0.22962   0.00000  Uiso   1.00
Br31   Br    0.26474   0.04972   0.23063   0.00000  Uiso   1.00
Br32   Br    0.06859   0.28362   0.10270   0.00000  Uiso   1.00
F33    F     0.24452   0.28975   0.22020   0.00000  Uiso   1.00
F34    F     0.08881   0.04358   0.11314   0.00000  Uiso   1.00
F35    F     0.23308   0.21813   0.05460   0.00000  Uiso   1.00
F36    F     0.10026   0.11520   0.27873   0.00000  Uiso   1.00
F37    F     0.23301   0.21814   0.29472   0.00000  Uiso   1.00
F38    F     0.10032   0.11519   0.03861   0.00000  Uiso   1.00
C39    C     0.50065   0.08677   0.16674   0.00000  Uiso   1.00
C40    C     0.49935   0.24657   0.16660   0.00000  Uiso   1.00
C41    C     0.40054   0.16641   0.15509   0.00000  Uiso   1.00
C42    C     0.59946   0.16693   0.17824   0.00000  Uiso   1.00
C43    C     0.34655   0.15917   0.15039   0.00000  Uiso   1.00
C44    C     0.65345   0.17416   0.18294   0.00000  Uiso   1.00
C45    C     0.54059   0.02130   0.19445   0.00000  Uiso   1.00
C46    C     0.45941   0.31203   0.13888   0.00000  Uiso   1.00
C47    C     0.53936   0.31149   0.19434   0.00000  Uiso   1.00
C48    C     0.46064   0.02185   0.13899   0.00000  Uiso   1.00
C49    C     0.49910   0.29067   0.16659   0.00000  Uiso   1.00
C50    C     0.50090   0.04267   0.16675   0.00000  Uiso   1.00
C51    C     0.53316   0.19236   0.02796   0.00000  Uiso   1.00
C52    C     0.46684   0.14097   0.30537   0.00000  Uiso   1.00
C53    C     0.53314   0.19236   0.31336   0.00000  Uiso   1.00
C54    C     0.46686   0.14098   0.01997   0.00000  Uiso   1.00
N55    N     0.49999   0.16666   0.28573   0.00000  Uiso   1.00
N56    N     0.50001   0.16668   0.04760   0.00000  Uiso   1.00
O57    O     0.50000   0.10558   0.20487   0.00000  Uiso   1.00
O58    O     0.50000   0.22775   0.12846   0.00000  Uiso   1.00
O59    O     0.50000   0.10559   0.12843   0.00000  Uiso   1.00
O60    O     0.50000   0.22774   0.20490   0.00000  Uiso   1.00
O61    O     0.42392   0.16666   0.19595   0.00000  Uiso   1.00
O62    O     0.57608   0.16667   0.13739   0.00000  Uiso   1.00
O63    O     0.42392   0.16667   0.11950   0.00000  Uiso   1.00
O64    O     0.57608   0.16666   0.21383   0.00000  Uiso   1.00
Zn65   Zn    0.50000   0.16666   0.21771   0.00000  Uiso   1.00
Zn66   Zn    0.50000   0.16667   0.11563   0.00000  Uiso   1.00
Br67   Br    0.65361   0.11853   0.10371   0.00000  Uiso   1.00
Br68   Br    0.34639   0.21480   0.22962   0.00000  Uiso   1.00
Br69   Br    0.59808   0.04972   0.23063   0.00000  Uiso   1.00
Br70   Br    0.40192   0.28362   0.10270   0.00000  Uiso   1.00
F71    F     0.57785   0.28975   0.22020   0.00000  Uiso   1.00
F72    F     0.42214   0.04358   0.11314   0.00000  Uiso   1.00
F73    F     0.56641   0.21813   0.05460   0.00000  Uiso   1.00
F74    F     0.43359   0.11520   0.27873   0.00000  Uiso   1.00
F75    F     0.56634   0.21814   0.29472   0.00000  Uiso   1.00
F76    F     0.43366   0.11519   0.03861   0.00000  Uiso   1.00
C77    C     0.83398   0.08677   0.16674   0.00000  Uiso   1.00
C78    C     0.83268   0.24657   0.16660   0.00000  Uiso   1.00
C79    C     0.73387   0.16641   0.15509   0.00000  Uiso   1.00
C80    C     0.93280   0.16693   0.17824   0.00000  Uiso   1.00
C81    C     0.67988   0.15917   0.15039   0.00000  Uiso   1.00
C82    C     0.98679   0.17416   0.18294   0.00000  Uiso   1.00
C83    C     0.87392   0.02130   0.19445   0.00000  Uiso   1.00
C84    C     0.79274   0.31203   0.13888   0.00000  Uiso   1.00
C85    C     0.87270   0.31149   0.19434   0.00000  Uiso   1.00
C86    C     0.79397   0.02185   0.13899   0.00000  Uiso   1.00
C87    C     0.83244   0.29067   0.16659   0.00000  Uiso   1.00
C88    C     0.83423   0.04267   0.16675   0.00000  Uiso   1.00
C89    C     0.86649   0.19236   0.02796   0.00000  Uiso   1.00
C90    C     0.80017   0.14097   0.30537   0.00000  Uiso   1.00
C91    C     0.86647   0.19236   0.31336   0.00000  Uiso   1.00
C92    C     0.80019   0.14098   0.01997   0.00000  Uiso   1.00
N93    N     0.83332   0.16666   0.28573   0.00000  Uiso   1.00
N94    N     0.83335   0.16668   0.04760   0.00000  Uiso   1.00
O95    O     0.83333   0.10558   0.20487   0.00000  Uiso   1.00
O96    O     0.83334   0.22775   0.12846   0.00000  Uiso   1.00
O97    O     0.83333   0.10559   0.12843   0.00000  Uiso   1.00
O98    O     0.83334   0.22774   0.20490   0.00000  Uiso   1.00
O99    O     0.75725   0.16666   0.19595   0.00000  Uiso   1.00
O100   O     0.90942   0.16667   0.13739   0.00000  Uiso   1.00
O101   O     0.75725   0.16667   0.11950   0.00000  Uiso   1.00
O102   O     0.90942   0.16666   0.21383   0.00000  Uiso   1.00
Zn103  Zn    0.83333   0.16666   0.21771   0.00000  Uiso   1.00
Zn104  Zn    0.83333   0.16667   0.11563   0.00000  Uiso   1.00
Br105  Br    0.98694   0.11853   0.10371   0.00000  Uiso   1.00
Br106  Br    0.67972   0.21480   0.22962   0.00000  Uiso   1.00
Br107  Br    0.93141   0.04972   0.23063   0.00000  Uiso   1.00
Br108  Br    0.73526   0.28362   0.10270   0.00000  Uiso   1.00
F109   F     0.91119   0.28975   0.22020   0.00000  Uiso   1.00
F110   F     0.75548   0.04358   0.11314   0.00000  Uiso   1.00
F111   F     0.89974   0.21813   0.05460   0.00000  Uiso   1.00
F112   F     0.76692   0.11520   0.27873   0.00000  Uiso   1.00
F113   F     0.89968   0.21814   0.29472   0.00000  Uiso   1.00
F114   F     0.76699   0.11519   0.03861   0.00000  Uiso   1.00
C115   C     0.16732   0.42010   0.16674   0.00000  Uiso   1.00
C116   C     0.16601   0.57990   0.16660   0.00000  Uiso   1.00
C117   C     0.06720   0.49974   0.15509   0.00000  Uiso   1.00
C118   C     0.26613   0.50026   0.17824   0.00000  Uiso   1.00
C119   C     0.01321   0.49250   0.15039   0.00000  Uiso   1.00
C120   C     0.32012   0.50750   0.18294   0.00000  Uiso   1.00
C121   C     0.20726   0.35463   0.19445   0.00000  Uiso   1.00
C122   C     0.12608   0.64537   0.13888   0.00000  Uiso   1.00
C123   C     0.20603   0.64482   0.19434   0.00000  Uiso   1.00
C124   C     0.12730   0.35518   0.13899   0.00000  Uiso   1.00
C125   C     0.16577   0.62400   0.16659   0.00000  Uiso   1.00
C126   C     0.16756   0.37600   0.16675   0.00000  Uiso   1.00
C127   C     0.19983   0.52569   0.02796   0.00000  Uiso   1.00
C128   C     0.13351   0.47431   0.30537   0.00000  Uiso   1.00
C129   C     0.19980   0.52569   0.31336   0.00000  Uiso   1.00
C130   C     0.13353   0.47431   0.01997   0.00000  Uiso   1.00
N131   N     0.16665   0.49999   0.28573   0.00000  Uiso   1.00
N132   N     0.16668   0.50001   0.04760   0.00000  Uiso   1.00
O133   O     0.16666   0.43892   0.20487   0.00000  Uiso   1.00
O134   O     0.16667   0.56108   0.12846   0.00000  Uiso   1.00
O135   O     0.16666   0.43893   0.12843   0.00000  Uiso   1.00
O136   O     0.16667   0.56107   0.20490   0.00000  Uiso   1.00
O137   O     0.09058   0.50000   0.19595   0.00000  Uiso   1.00
O138   O     0.24275   0.50000   0.13739   0.00000  Uiso   1.00
O139   O     0.09058   0.50000   0.11950   0.00000  Uiso   1.00
O140   O     0.24275   0.50000   0.21383   0.00000  Uiso   1.00
Zn141  Zn    0.16667   0.49999   0.21771   0.00000  Uiso   1.00
Zn142  Zn    0.16667   0.50001   0.11563   0.00000  Uiso   1.00
Br143  Br    0.32028   0.45187   0.10371   0.00000  Uiso   1.00
Br144  Br    0.01306   0.54813   0.22962   0.00000  Uiso   1.00
Br145  Br    0.26474   0.38305   0.23063   0.00000  Uiso   1.00
Br146  Br    0.06859   0.61695   0.10270   0.00000  Uiso   1.00
F147   F     0.24452   0.62309   0.22020   0.00000  Uiso   1.00
F148   F     0.08881   0.37691   0.11314   0.00000  Uiso   1.00
F149   F     0.23308   0.55146   0.05460   0.00000  Uiso   1.00
F150   F     0.10026   0.44854   0.27873   0.00000  Uiso   1.00
F151   F     0.23301   0.55148   0.29472   0.00000  Uiso   1.00
F152   F     0.10032   0.44852   0.03861   0.00000  Uiso   1.00
C153   C     0.50065   0.42010   0.16674   0.00000  Uiso   1.00
C154   C     0.49935   0.57990   0.16660   0.00000  Uiso   1.00
C155   C     0.40054   0.49974   0.15509   0.00000  Uiso   1.00
C156   C     0.59946   0.50026   0.17824   0.00000  Uiso   1.00
C157   C     0.34655   0.49250   0.15039   0.00000  Uiso   1.00
C158   C     0.65345   0.50750   0.18294   0.00000  Uiso   1.00
C159   C     0.54059   0.35463   0.19445   0.00000  Uiso   1.00
C160   C     0.45941   0.64537   0.13888   0.00000  Uiso   1.00
C161   C     0.53936   0.64482   0.19434   0.00000  Uiso   1.00
C162   C     0.46064   0.35518   0.13899   0.00000  Uiso   1.00
C163   C     0.49910   0.62400   0.16659   0.00000  Uiso   1.00
C164   C     0.50090   0.37600   0.16675   0.00000  Uiso   1.00
C165   C     0.53316   0.52569   0.02796   0.00000  Uiso   1.00
C166   C     0.46684   0.47431   0.30537   0.00000  Uiso   1.00
C167   C     0.53314   0.52569   0.31336   0.00000  Uiso   1.00
C168   C     0.46686   0.47431   0.01997   0.00000  Uiso   1.00
N169   N     0.49999   0.49999   0.28573   0.00000  Uiso   1.00
N170   N     0.50001   0.50001   0.04760   0.00000  Uiso   1.00
O171   O     0.50000   0.43892   0.20487   0.00000  Uiso   1.00
O172   O     0.50000   0.56108   0.12846   0.00000  Uiso   1.00
O173   O     0.50000   0.43893   0.12843   0.00000  Uiso   1.00
O174   O     0.50000   0.56107   0.20490   0.00000  Uiso   1.00
O175   O     0.42392   0.50000   0.19595   0.00000  Uiso   1.00
O176   O     0.57608   0.50000   0.13739   0.00000  Uiso   1.00
O177   O     0.42392   0.50000   0.11950   0.00000  Uiso   1.00
O178   O     0.57608   0.50000   0.21383   0.00000  Uiso   1.00
Zn179  Zn    0.50000   0.49999   0.21771   0.00000  Uiso   1.00
Zn180  Zn    0.50000   0.50001   0.11563   0.00000  Uiso   1.00
Br181  Br    0.65361   0.45187   0.10371   0.00000  Uiso   1.00
Br182  Br    0.34639   0.54813   0.22962   0.00000  Uiso   1.00
Br183  Br    0.59808   0.38305   0.23063   0.00000  Uiso   1.00
Br184  Br    0.40192   0.61695   0.10270   0.00000  Uiso   1.00
F185   F     0.57785   0.62309   0.22020   0.00000  Uiso   1.00
F186   F     0.42214   0.37691   0.11314   0.00000  Uiso   1.00
F187   F     0.56641   0.55146   0.05460   0.00000  Uiso   1.00
F188   F     0.43359   0.44854   0.27873   0.00000  Uiso   1.00
F189   F     0.56634   0.55148   0.29472   0.00000  Uiso   1.00
F190   F     0.43366   0.44852   0.03861   0.00000  Uiso   1.00
C191   C     0.83398   0.42010   0.16674   0.00000  Uiso   1.00
C192   C     0.83268   0.57990   0.16660   0.00000  Uiso   1.00
C193   C     0.73387   0.49974   0.15509   0.00000  Uiso   1.00
C194   C     0.93280   0.50026   0.17824   0.00000  Uiso   1.00
C195   C     0.67988   0.49250   0.15039   0.00000  Uiso   1.00
C196   C     0.98679   0.50750   0.18294   0.00000  Uiso   1.00
C197   C     0.87392   0.35463   0.19445   0.00000  Uiso   1.00
C198   C     0.79274   0.64537   0.13888   0.00000  Uiso   1.00
C199   C     0.87270   0.64482   0.19434   0.00000  Uiso   1.00
C200   C     0.79397   0.35518   0.13899   0.00000  Uiso   1.00
C201   C     0.83244   0.62400   0.16659   0.00000  Uiso   1.00
C202   C     0.83423   0.37600   0.16675   0.00000  Uiso   1.00
C203   C     0.86649   0.52569   0.02796   0.00000  Uiso   1.00
C204   C     0.80017   0.47431   0.30537   0.00000  Uiso   1.00
C205   C     0.86647   0.52569   0.31336   0.00000  Uiso   1.00
C206   C     0.80019   0.47431   0.01997   0.00000  Uiso   1.00
N207   N     0.83332   0.49999   0.28573   0.00000  Uiso   1.00
N208   N     0.83335   0.50001   0.04760   0.00000  Uiso   1.00
O209   O     0.83333   0.43892   0.20487   0.00000  Uiso   1.00
O210   O     0.83334   0.56108   0.12846   0.00000  Uiso   1.00
O211   O     0.83333   0.43893   0.12843   0.00000  Uiso   1.00
O212   O     0.83334   0.56107   0.20490   0.00000  Uiso   1.00
O213   O     0.75725   0.50000   0.19595   0.00000  Uiso   1.00
O214   O     0.90942   0.50000   0.13739   0.00000  Uiso   1.00
O215   O     0.75725   0.50000   0.11950   0.00000  Uiso   1.00
O216   O     0.90942   0.50000   0.21383   0.00000  Uiso   1.00
Zn217  Zn    0.83333   0.49999   0.21771   0.00000  Uiso   1.00
Zn218  Zn    0.83333   0.50001   0.11563   0.00000  Uiso   1.00
Br219  Br    0.98694   0.45187   0.10371   0.00000  Uiso   1.00
Br220  Br    0.67972   0.54813   0.22962   0.00000  Uiso   1.00
Br221  Br    0.93141   0.38305   0.23063   0.00000  Uiso   1.00
Br222  Br    0.73526   0.61695   0.10270   0.00000  Uiso   1.00
F223   F     0.91119   0.62309   0.22020   0.00000  Uiso   1.00
F224   F     0.75548   0.37691   0.11314   0.00000  Uiso   1.00
F225   F     0.89974   0.55146   0.05460   0.00000  Uiso   1.00
F226   F     0.76692   0.44854   0.27873   0.00000  Uiso   1.00
F227   F     0.89968   0.55148   0.29472   0.00000  Uiso   1.00
F228   F     0.76699   0.44852   0.03861   0.00000  Uiso   1.00
C229   C     0.16732   0.75343   0.16674   0.00000  Uiso   1.00
C230   C     0.16601   0.91323   0.16660   0.00000  Uiso   1.00
C231   C     0.06720   0.83307   0.15509   0.00000  Uiso   1.00
C232   C     0.26613   0.83359   0.17824   0.00000  Uiso   1.00
C233   C     0.01321   0.82584   0.15039   0.00000  Uiso   1.00
C234   C     0.32012   0.84083   0.18294   0.00000  Uiso   1.00
C235   C     0.20726   0.68797   0.19445   0.00000  Uiso   1.00
C236   C     0.12608   0.97870   0.13888   0.00000  Uiso   1.00
C237   C     0.20603   0.97815   0.19434   0.00000  Uiso   1.00
C238   C     0.12730   0.68851   0.13899   0.00000  Uiso   1.00
C239   C     0.16577   0.95733   0.16659   0.00000  Uiso   1.00
C240   C     0.16756   0.70933   0.16675   0.00000  Uiso   1.00
C241   C     0.19983   0.85903   0.02796   0.00000  Uiso   1.00
C242   C     0.13351   0.80764   0.30537   0.00000  Uiso   1.00
C243   C     0.19980   0.85902   0.31336   0.00000  Uiso   1.00
C244   C     0.13353   0.80764   0.01997   0.00000  Uiso   1.00
N245   N     0.16665   0.83332   0.28573   0.00000  Uiso   1.00
N246   N     0.16668   0.83334   0.04760   0.00000  Uiso   1.00
O247   O     0.16666   0.77225   0.20487   0.00000  Uiso   1.00
O248   O     0.16667   0.89442   0.12846   0.00000  Uiso   1.00
O249   O     0.16666   0.77226   0.12843   0.00000  Uiso   1.00
O250   O     0.16667   0.89441   0.20490   0.00000  Uiso   1.00
O251   O     0.09058   0.83333   0.19595   0.00000  Uiso   1.00
O252   O     0.24275   0.83334   0.13739   0.00000  Uiso   1.00
O253   O     0.09058   0.83334   0.11950   0.00000  Uiso   1.00
O254   O     0.24275   0.83333   0.21383   0.00000  Uiso   1.00
Zn255  Zn    0.16667   0.83333   0.21771   0.00000  Uiso   1.00
Zn256  Zn    0.16667   0.83334   0.11563   0.00000  Uiso   1.00
Br257  Br    0.32028   0.78520   0.10371   0.00000  Uiso   1.00
Br258  Br    0.01306   0.88147   0.22962   0.00000  Uiso   1.00
Br259  Br    0.26474   0.71638   0.23063   0.00000  Uiso   1.00
Br260  Br    0.06859   0.95028   0.10270   0.00000  Uiso   1.00
F261   F     0.24452   0.95642   0.22020   0.00000  Uiso   1.00
F262   F     0.08881   0.71025   0.11314   0.00000  Uiso   1.00
F263   F     0.23308   0.88480   0.05460   0.00000  Uiso   1.00
F264   F     0.10026   0.78187   0.27873   0.00000  Uiso   1.00
F265   F     0.23301   0.88481   0.29472   0.00000  Uiso   1.00
F266   F     0.10032   0.78186   0.03861   0.00000  Uiso   1.00
C267   C     0.50065   0.75343   0.16674   0.00000  Uiso   1.00
C268   C     0.49935   0.91323   0.16660   0.00000  Uiso   1.00
C269   C     0.40054   0.83307   0.15509   0.00000  Uiso   1.00
C270   C     0.59946   0.83359   0.17824   0.00000  Uiso   1.00
C271   C     0.34655   0.82584   0.15039   0.00000  Uiso   1.00
C272   C     0.65345   0.84083   0.18294   0.00000  Uiso   1.00
C273   C     0.54059   0.68797   0.19445   0.00000  Uiso   1.00
C274   C     0.45941   0.97870   0.13888   0.00000  Uiso   1.00
C275   C     0.53936   0.97815   0.19434   0.00000  Uiso   1.00
C276   C     0.46064   0.68851   0.13899   0.00000  Uiso   1.00
C277   C     0.49910   0.95733   0.16659   0.00000  Uiso   1.00
C278   C     0.50090   0.70933   0.16675   0.00000  Uiso   1.00
C279   C     0.53316   0.85903   0.02796   0.00000  Uiso   1.00
C280   C     0.46684   0.80764   0.30537   0.00000  Uiso   1.00
C281   C     0.53314   0.85902   0.31336   0.00000  Uiso   1.00
C282   C     0.46686   0.80764   0.01997   0.00000  Uiso   1.00
N283   N     0.49999   0.83332   0.28573   0.00000  Uiso   1.00
N284   N     0.50001   0.83334   0.04760   0.00000  Uiso   1.00
O285   O     0.50000   0.77225   0.20487   0.00000  Uiso   1.00
O286   O     0.50000   0.89442   0.12846   0.00000  Uiso   1.00
O287   O     0.50000   0.77226   0.12843   0.00000  Uiso   1.00
O288   O     0.50000   0.89441   0.20490   0.00000  Uiso   1.00
O289   O     0.42392   0.83333   0.19595   0.00000  Uiso   1.00
O290   O     0.57608   0.83334   0.13739   0.00000  Uiso   1.00
O291   O     0.42392   0.83334   0.11950   0.00000  Uiso   1.00
O292   O     0.57608   0.83333   0.21383   0.00000  Uiso   1.00
Zn293  Zn    0.50000   0.83333   0.21771   0.00000  Uiso   1.00
Zn294  Zn    0.50000   0.83334   0.11563   0.00000  Uiso   1.00
Br295  Br    0.65361   0.78520   0.10371   0.00000  Uiso   1.00
Br296  Br    0.34639   0.88147   0.22962   0.00000  Uiso   1.00
Br297  Br    0.59808   0.71638   0.23063   0.00000  Uiso   1.00
Br298  Br    0.40192   0.95028   0.10270   0.00000  Uiso   1.00
F299   F     0.57785   0.95642   0.22020   0.00000  Uiso   1.00
F300   F     0.42214   0.71025   0.11314   0.00000  Uiso   1.00
F301   F     0.56641   0.88480   0.05460   0.00000  Uiso   1.00
F302   F     0.43359   0.78187   0.27873   0.00000  Uiso   1.00
F303   F     0.56634   0.88481   0.29472   0.00000  Uiso   1.00
F304   F     0.43366   0.78186   0.03861   0.00000  Uiso   1.00
C305   C     0.83398   0.75343   0.16674   0.00000  Uiso   1.00
C306   C     0.83268   0.91323   0.16660   0.00000  Uiso   1.00
C307   C     0.73387   0.83307   0.15509   0.00000  Uiso   1.00
C308   C     0.93280   0.83359   0.17824   0.00000  Uiso   1.00
C309   C     0.67988   0.82584   0.15039   0.00000  Uiso   1.00
C310   C     0.98679   0.84083   0.18294   0.00000  Uiso   1.00
C311   C     0.87392   0.68797   0.19445   0.00000  Uiso   1.00
C312   C     0.79274   0.97870   0.13888   0.00000  Uiso   1.00
C313   C     0.87270   0.97815   0.19434   0.00000  Uiso   1.00
C314   C     0.79397   0.68851   0.13899   0.00000  Uiso   1.00
C315   C     0.83244   0.95733   0.16659   0.00000  Uiso   1.00
C316   C     0.83423   0.70933   0.16675   0.00000  Uiso   1.00
C317   C     0.86649   0.85903   0.02796   0.00000  Uiso   1.00
C318   C     0.80017   0.80764   0.30537   0.00000  Uiso   1.00
C319   C     0.86647   0.85902   0.31336   0.00000  Uiso   1.00
C320   C     0.80019   0.80764   0.01997   0.00000  Uiso   1.00
N321   N     0.83332   0.83332   0.28573   0.00000  Uiso   1.00
N322   N     0.83335   0.83334   0.04760   0.00000  Uiso   1.00
O323   O     0.83333   0.77225   0.20487   0.00000  Uiso   1.00
O324   O     0.83334   0.89442   0.12846   0.00000  Uiso   1.00
O325   O     0.83333   0.77226   0.12843   0.00000  Uiso   1.00
O326   O     0.83334   0.89441   0.20490   0.00000  Uiso   1.00
O327   O     0.75725   0.83333   0.19595   0.00000  Uiso   1.00
O328   O     0.90942   0.83334   0.13739   0.00000  Uiso   1.00
O329   O     0.75725   0.83334   0.11950   0.00000  Uiso   1.00
O330   O     0.90942   0.83333   0.21383   0.00000  Uiso   1.00
Zn331  Zn    0.83333   0.83333   0.21771   0.00000  Uiso   1.00
Zn332  Zn    0.83333   0.83334   0.11563   0.00000  Uiso   1.00
Br333  Br    0.98694   0.78520   0.10371   0.00000  Uiso   1.00
Br334  Br    0.67972   0.88147   0.22962   0.00000  Uiso   1.00
Br335  Br    0.93141   0.71638   0.23063   0.00000  Uiso   1.00
Br336  Br    0.73526   0.95028   0.10270   0.00000  Uiso   1.00
F337   F     0.91119   0.95642   0.22020   0.00000  Uiso   1.00
F338   F     0.75548   0.71025   0.11314   0.00000  Uiso   1.00
F339   F     0.89974   0.88480   0.05460   0.00000  Uiso   1.00
F340   F     0.76692   0.78187   0.27873   0.00000  Uiso   1.00
F341   F     0.89968   0.88481   0.29472   0.00000  Uiso   1.00
F342   F     0.76699   0.78186   0.03861   0.00000  Uiso   1.00
C343   C     0.16732   0.08677   0.50007   0.00000  Uiso   1.00
C344   C     0.16601   0.24657   0.49993   0.00000  Uiso   1.00
C345   C     0.06720   0.16641   0.48843   0.00000  Uiso   1.00
C346   C     0.26613   0.16693   0.51157   0.00000  Uiso   1.00
C347   C     0.01321   0.15917   0.48373   0.00000  Uiso   1.00
C348   C     0.32012   0.17416   0.51627   0.00000  Uiso   1.00
C349   C     0.20726   0.02130   0.52778   0.00000  Uiso   1.00
C350   C     0.12608   0.31203   0.47222   0.00000  Uiso   1.00
C351   C     0.20603   0.31149   0.52767   0.00000  Uiso   1.00
C352   C     0.12730   0.02185   0.47233   0.00000  Uiso   1.00
C353   C     0.16577   0.29067   0.49992   0.00000  Uiso   1.00
C354   C     0.16756   0.04267   0.50008   0.00000  Uiso   1.00
C355   C     0.19983   0.19236   0.36129   0.00000  Uiso   1.00
C356   C     0.13351   0.14097   0.63871   0.00000  Uiso   1.00
C357   C     0.19980   0.19236   0.64669   0.00000  Uiso   1.00
C358   C     0.13353   0.14098   0.35331   0.00000  Uiso   1.00
N359   N     0.16665   0.16666   0.61907   0.00000  Uiso   1.00
N360   N     0.16668   0.16668   0.38093   0.00000  Uiso   1.00
O361   O     0.16666   0.10558   0.53821   0.00000  Uiso   1.00
O362   O     0.16667   0.22775   0.46179   0.00000  Uiso   1.00
O363   O     0.16666   0.10559   0.46176   0.00000  Uiso   1.00
O364   O     0.16667   0.22774   0.53824   0.00000  Uiso   1.00
O365   O     0.09058   0.16666   0.52928   0.00000  Uiso   1.00
O366   O     0.24275   0.16667   0.47072   0.00000  Uiso   1.00
O367   O     0.09058   0.16667   0.45284   0.00000  Uiso   1.00
O368   O     0.24275   0.16666   0.54716   0.00000  Uiso   1.00
Zn369  Zn    0.16667   0.16666   0.55104   0.00000  Uiso   1.00
Zn370  Zn    0.16667   0.16667   0.44896   0.00000  Uiso   1.00
Br371  Br    0.32028   0.11853   0.43705   0.00000  Uiso   1.00
Br372  Br    0.01306   0.21480   0.56295   0.00000  Uiso   1.00
Br373  Br    0.26474   0.04972   0.56396   0.00000  Uiso   1.00
Br374  Br    0.06859   0.28362   0.43604   0.00000  Uiso   1.00
F375   F     0.24452   0.28975   0.55353   0.00000  Uiso   1.00
F376   F     0.08881   0.04358   0.44647   0.00000  Uiso   1.00
F377   F     0.23308   0.21813   0.38794   0.00000  Uiso   1.00
F378   F     0.10026   0.11520   0.61206   0.00000  Uiso   1.00
F379   F     0.23301   0.21814   0.62805   0.00000  Uiso   1.00
F380   F     0.10032   0.11519   0.37195   0.00000  Uiso   1.00
C381   C     0.50065   0.08677   0.50007   0.00000  Uiso   1.00
C382   C     0.49935   0.24657   0.49993   0.00000  Uiso   1.00
C383   C     0.40054   0.16641   0.48843   0.00000  Uiso   1.00
C384   C     0.59946   0.16693   0.51157   0.00000  Uiso   1.00
C385   C     0.34655   0.15917   0.48373   0.00000  Uiso   1.00
C386   C     0.65345   0.17416   0.51627   0.00000  Uiso   1.00
C387   C     0.54059   0.02130   0.52778   0.00000  Uiso   1.00
C388   C     0.45941   0.31203   0.47222   0.00000  Uiso   1.00
C389   C     0.53936   0.31149   0.52767   0.00000  Uiso   1.00
C390   C     0.46064   0.02185   0.47233   0.00000  Uiso   1.00
C391   C     0.49910   0.29067   0.49992   0.00000  Uiso   1.00
C392   C     0.50090   0.04267   0.50008   0.00000  Uiso   1.00
C393   C     0.53316   0.19236   0.36129   0.00000  Uiso   1.00
C394   C     0.46684   0.14097   0.63871   0.00000  Uiso   1.00
C395   C     0.53314   0.19236   0.64669   0.00000  Uiso   1.00
C396   C     0.46686   0.14098   0.35331   0.00000  Uiso   1.00
N397   N     0.49999   0.16666   0.61907   0.00000  Uiso   1.00
N398   N     0.50001   0.16668   0.38093   0.00000  Uiso   1.00
O399   O     0.50000   0.10558   0.53821   0.00000  Uiso   1.00
O400   O     0.50000   0.22775   0.46179   0.00000  Uiso   1.00
O401   O     0.50000   0.10559   0.46176   0.00000  Uiso   1.00
O402   O     0.50000   0.22774   0.53824   0.00000  Uiso   1.00
O403   O     0.42392   0.16666   0.52928   0.00000  Uiso   1.00
O404   O     0.57608   0.16667   0.47072   0.00000  Uiso   1.00
O405   O     0.42392   0.16667   0.45284   0.00000  Uiso   1.00
O406   O     0.57608   0.16666   0.54716   0.00000  Uiso   1.00
Zn407  Zn    0.50000   0.16666   0.55104   0.00000  Uiso   1.00
Zn408  Zn    0.50000   0.16667   0.44896   0.00000  Uiso   1.00
Br409  Br    0.65361   0.11853   0.43705   0.00000  Uiso   1.00
Br410  Br    0.34639   0.21480   0.56295   0.00000  Uiso   1.00
Br411  Br    0.59808   0.04972   0.56396   0.00000  Uiso   1.00
Br412  Br    0.40192   0.28362   0.43604   0.00000  Uiso   1.00
F413   F     0.57785   0.28975   0.55353   0.00000  Uiso   1.00
F414   F     0.42214   0.04358   0.44647   0.00000  Uiso   1.00
F415   F     0.56641   0.21813   0.38794   0.00000  Uiso   1.00
F416   F     0.43359   0.11520   0.61206   0.00000  Uiso   1.00
F417   F     0.56634   0.21814   0.62805   0.00000  Uiso   1.00
F418   F     0.43366   0.11519   0.37195   0.00000  Uiso   1.00
C419   C     0.83398   0.08677   0.50007   0.00000  Uiso   1.00
C420   C     0.83268   0.24657   0.49993   0.00000  Uiso   1.00
C421   C     0.73387   0.16641   0.48843   0.00000  Uiso   1.00
C422   C     0.93280   0.16693   0.51157   0.00000  Uiso   1.00
C423   C     0.67988   0.15917   0.48373   0.00000  Uiso   1.00
C424   C     0.98679   0.17416   0.51627   0.00000  Uiso   1.00
C425   C     0.87392   0.02130   0.52778   0.00000  Uiso   1.00
C426   C     0.79274   0.31203   0.47222   0.00000  Uiso   1.00
C427   C     0.87270   0.31149   0.52767   0.00000  Uiso   1.00
C428   C     0.79397   0.02185   0.47233   0.00000  Uiso   1.00
C429   C     0.83244   0.29067   0.49992   0.00000  Uiso   1.00
C430   C     0.83423   0.04267   0.50008   0.00000  Uiso   1.00
C431   C     0.86649   0.19236   0.36129   0.00000  Uiso   1.00
C432   C     0.80017   0.14097   0.63871   0.00000  Uiso   1.00
C433   C     0.86647   0.19236   0.64669   0.00000  Uiso   1.00
C434   C     0.80019   0.14098   0.35331   0.00000  Uiso   1.00
N435   N     0.83332   0.16666   0.61907   0.00000  Uiso   1.00
N436   N     0.83335   0.16668   0.38093   0.00000  Uiso   1.00
O437   O     0.83333   0.10558   0.53821   0.00000  Uiso   1.00
O438   O     0.83334   0.22775   0.46179   0.00000  Uiso   1.00
O439   O     0.83333   0.10559   0.46176   0.00000  Uiso   1.00
O440   O     0.83334   0.22774   0.53824   0.00000  Uiso   1.00
O441   O     0.75725   0.16666   0.52928   0.00000  Uiso   1.00
O442   O     0.90942   0.16667   0.47072   0.00000  Uiso   1.00
O443   O     0.75725   0.16667   0.45284   0.00000  Uiso   1.00
O444   O     0.90942   0.16666   0.54716   0.00000  Uiso   1.00
Zn445  Zn    0.83333   0.16666   0.55104   0.00000  Uiso   1.00
Zn446  Zn    0.83333   0.16667   0.44896   0.00000  Uiso   1.00
Br447  Br    0.98694   0.11853   0.43705   0.00000  Uiso   1.00
Br448  Br    0.67972   0.21480   0.56295   0.00000  Uiso   1.00
Br449  Br    0.93141   0.04972   0.56396   0.00000  Uiso   1.00
Br450  Br    0.73526   0.28362   0.43604   0.00000  Uiso   1.00
F451   F     0.91119   0.28975   0.55353   0.00000  Uiso   1.00
F452   F     0.75548   0.04358   0.44647   0.00000  Uiso   1.00
F453   F     0.89974   0.21813   0.38794   0.00000  Uiso   1.00
F454   F     0.76692   0.11520   0.61206   0.00000  Uiso   1.00
F455   F     0.89968   0.21814   0.62805   0.00000  Uiso   1.00
F456   F     0.76699   0.11519   0.37195   0.00000  Uiso   1.00
C457   C     0.16732   0.42010   0.50007   0.00000  Uiso   1.00
C458   C     0.16601   0.57990   0.49993   0.00000  Uiso   1.00
C459   C     0.06720   0.49974   0.48843   0.00000  Uiso   1.00
C460   C     0.26613   0.50026   0.51157   0.00000  Uiso   1.00
C461   C     0.01321   0.49250   0.48373   0.00000  Uiso   1.00
C462   C     0.32012   0.50750   0.51627   0.00000  Uiso   1.00
C463   C     0.20726   0.35463   0.52778   0.00000  Uiso   1.00
C464   C     0.12608   0.64537   0.47222   0.00000  Uiso   1.00
C465   C     0.20603   0.64482   0.52767   0.00000  Uiso   1.00
C466   C     0.12730   0.35518   0.47233   0.00000  Uiso   1.00
C467   C     0.16577   0.62400   0.49992   0.00000  Uiso   1.00
C468   C     0.16756   0.37600   0.50008   0.00000  Uiso   1.00
C469   C     0.19983   0.52569   0.36129   0.00000  Uiso   1.00
C470   C     0.13351   0.47431   0.63871   0.00000  Uiso   1.00
C471   C     0.19980   0.52569   0.64669   0.00000  Uiso   1.00
C472   C     0.13353   0.47431   0.35331   0.00000  Uiso   1.00
N473   N     0.16665   0.49999   0.61907   0.00000  Uiso   1.00
N474   N     0.16668   0.50001   0.38093   0.00000  Uiso   1.00
O475   O     0.16666   0.43892   0.53821   0.00000  Uiso   1.00
O476   O     0.16667   0.56108   0.46179   0.00000  Uiso   1.00
O477   O     0.16666   0.43893   0.46176   0.00000  Uiso   1.00
O478   O     0.16667   0.56107   0.53824   0.00000  Uiso   1.00
O479   O     0.09058   0.50000   0.52928   0.00000  Uiso   1.00
O480   O     0.24275   0.50000   0.47072   0.00000  Uiso   1.00
O481   O     0.09058   0.50000   0.45284   0.00000  Uiso   1.00
O482   O     0.24275   0.50000   0.54716   0.00000  Uiso   1.00
Zn483  Zn    0.16667   0.49999   0.55104   0.00000  Uiso   1.00
Zn484  Zn    0.16667   0.50001   0.44896   0.00000  Uiso   1.00
Br485  Br    0.32028   0.45187   0.43705   0.00000  Uiso   1.00
Br486  Br    0.01306   0.54813   0.56295   0.00000  Uiso   1.00
Br487  Br    0.26474   0.38305   0.56396   0.00000  Uiso   1.00
Br488  Br    0.06859   0.61695   0.43604   0.00000  Uiso   1.00
F489   F     0.24452   0.62309   0.55353   0.00000  Uiso   1.00
F490   F     0.08881   0.37691   0.44647   0.00000  Uiso   1.00
F491   F     0.23308   0.55146   0.38794   0.00000  Uiso   1.00
F492   F     0.10026   0.44854   0.61206   0.00000  Uiso   1.00
F493   F     0.23301   0.55148   0.62805   0.00000  Uiso   1.00
F494   F     0.10032   0.44852   0.37195   0.00000  Uiso   1.00
C495   C     0.50065   0.42010   0.50007   0.00000  Uiso   1.00
C496   C     0.49935   0.57990   0.49993   0.00000  Uiso   1.00
C497   C     0.40054   0.49974   0.48843   0.00000  Uiso   1.00
C498   C     0.59946   0.50026   0.51157   0.00000  Uiso   1.00
C499   C     0.34655   0.49250   0.48373   0.00000  Uiso   1.00
C500   C     0.65345   0.50750   0.51627   0.00000  Uiso   1.00
C501   C     0.54059   0.35463   0.52778   0.00000  Uiso   1.00
C502   C     0.45941   0.64537   0.47222   0.00000  Uiso   1.00
C503   C     0.53936   0.64482   0.52767   0.00000  Uiso   1.00
C504   C     0.46064   0.35518   0.47233   0.00000  Uiso   1.00
C505   C     0.49910   0.62400   0.49992   0.00000  Uiso   1.00
C506   C     0.50090   0.37600   0.50008   0.00000  Uiso   1.00
C507   C     0.53316   0.52569   0.36129   0.00000  Uiso   1.00
C508   C     0.46684   0.47431   0.63871   0.00000  Uiso   1.00
C509   C     0.53314   0.52569   0.64669   0.00000  Uiso   1.00
C510   C     0.46686   0.47431   0.35331   0.00000  Uiso   1.00
N511   N     0.49999   0.49999   0.61907   0.00000  Uiso   1.00
N512   N     0.50001   0.50001   0.38093   0.00000  Uiso   1.00
O513   O     0.50000   0.43892   0.53821   0.00000  Uiso   1.00
O514   O     0.50000   0.56108   0.46179   0.00000  Uiso   1.00
O515   O     0.50000   0.43893   0.46176   0.00000  Uiso   1.00
O516   O     0.50000   0.56107   0.53824   0.00000  Uiso   1.00
O517   O     0.42392   0.50000   0.52928   0.00000  Uiso   1.00
O518   O     0.57608   0.50000   0.47072   0.00000  Uiso   1.00
O519   O     0.42392   0.50000   0.45284   0.00000  Uiso   1.00
O520   O     0.57608   0.50000   0.54716   0.00000  Uiso   1.00
Zn521  Zn    0.50000   0.49999   0.55104   0.00000  Uiso   1.00
Zn522  Zn    0.50000   0.50001   0.44896   0.00000  Uiso   1.00
Br523  Br    0.65361   0.45187   0.43705   0.00000  Uiso   1.00
Br524  Br    0.34639   0.54813   0.56295   0.00000  Uiso   1.00
Br525  Br    0.59808   0.38305   0.56396   0.00000  Uiso   1.00
Br526  Br    0.40192   0.61695   0.43604   0.00000  Uiso   1.00
F527   F     0.57785   0.62309   0.55353   0.00000  Uiso   1.00
F528   F     0.42214   0.37691   0.44647   0.00000  Uiso   1.00
F529   F     0.56641   0.55146   0.38794   0.00000  Uiso   1.00
F530   F     0.43359   0.44854   0.61206   0.00000  Uiso   1.00
F531   F     0.56634   0.55148   0.62805   0.00000  Uiso   1.00
F532   F     0.43366   0.44852   0.37195   0.00000  Uiso   1.00
C533   C     0.83398   0.42010   0.50007   0.00000  Uiso   1.00
C534   C     0.83268   0.57990   0.49993   0.00000  Uiso   1.00
C535   C     0.73387   0.49974   0.48843   0.00000  Uiso   1.00
C536   C     0.93280   0.50026   0.51157   0.00000  Uiso   1.00
C537   C     0.67988   0.49250   0.48373   0.00000  Uiso   1.00
C538   C     0.98679   0.50750   0.51627   0.00000  Uiso   1.00
C539   C     0.87392   0.35463   0.52778   0.00000  Uiso   1.00
C540   C     0.79274   0.64537   0.47222   0.00000  Uiso   1.00
C541   C     0.87270   0.64482   0.52767   0.00000  Uiso   1.00
C542   C     0.79397   0.35518   0.47233   0.00000  Uiso   1.00
C543   C     0.83244   0.62400   0.49992   0.00000  Uiso   1.00
C544   C     0.83423   0.37600   0.50008   0.00000  Uiso   1.00
C545   C     0.86649   0.52569   0.36129   0.00000  Uiso   1.00
C546   C     0.80017   0.47431   0.63871   0.00000  Uiso   1.00
C547   C     0.86647   0.52569   0.64669   0.00000  Uiso   1.00
C548   C     0.80019   0.47431   0.35331   0.00000  Uiso   1.00
N549   N     0.83332   0.49999   0.61907   0.00000  Uiso   1.00
N550   N     0.83335   0.50001   0.38093   0.00000  Uiso   1.00
O551   O     0.83333   0.43892   0.53821   0.00000  Uiso   1.00
O552   O     0.83334   0.56108   0.46179   0.00000  Uiso   1.00
O553   O     0.83333   0.43893   0.46176   0.00000  Uiso   1.00
O554   O     0.83334   0.56107   0.53824   0.00000  Uiso   1.00
O555   O     0.75725   0.50000   0.52928   0.00000  Uiso   1.00
O556   O     0.90942   0.50000   0.47072   0.00000  Uiso   1.00
O557   O     0.75725   0.50000   0.45284   0.00000  Uiso   1.00
O558   O     0.90942   0.50000   0.54716   0.00000  Uiso   1.00
Zn559  Zn    0.83333   0.49999   0.55104   0.00000  Uiso   1.00
Zn560  Zn    0.83333   0.50001   0.44896   0.00000  Uiso   1.00
Br561  Br    0.98694   0.45187   0.43705   0.00000  Uiso   1.00
Br562  Br    0.67972   0.54813   0.56295   0.00000  Uiso   1.00
Br563  Br    0.93141   0.38305   0.56396   0.00000  Uiso   1.00
Br564  Br    0.73526   0.61695   0.43604   0.00000  Uiso   1.00
F565   F     0.91119   0.62309   0.55353   0.00000  Uiso   1.00
F566   F     0.75548   0.37691   0.44647   0.00000  Uiso   1.00
F567   F     0.89974   0.55146   0.38794   0.00000  Uiso   1.00
F568   F     0.76692   0.44854   0.61206   0.00000  Uiso   1.00
F569   F     0.89968   0.55148   0.62805   0.00000  Uiso   1.00
F570   F     0.76699   0.44852   0.37195   0.00000  Uiso   1.00
C571   C     0.16732   0.75343   0.50007   0.00000  Uiso   1.00
C572   C     0.16601   0.91323   0.49993   0.00000  Uiso   1.00
C573   C     0.06720   0.83307   0.48843   0.00000  Uiso   1.00
C574   C     0.26613   0.83359   0.51157   0.00000  Uiso   1.00
C575   C     0.01321   0.82584   0.48373   0.00000  Uiso   1.00
C576   C     0.32012   0.84083   0.51627   0.00000  Uiso   1.00
C577   C     0.20726   0.68797   0.52778   0.00000  Uiso   1.00
C578   C     0.12608   0.97870   0.47222   0.00000  Uiso   1.00
C579   C     0.20603   0.97815   0.52767   0.00000  Uiso   1.00
C580   C     0.12730   0.68851   0.47233   0.00000  Uiso   1.00
C581   C     0.16577   0.95733   0.49992   0.00000  Uiso   1.00
C582   C     0.16756   0.70933   0.50008   0.00000  Uiso   1.00
C583   C     0.19983   0.85903   0.36129   0.00000  Uiso   1.00
C584   C     0.13351   0.80764   0.63871   0.00000  Uiso   1.00
C585   C     0.19980   0.85902   0.64669   0.00000  Uiso   1.00
C586   C     0.13353   0.80764   0.35331   0.00000  Uiso   1.00
N587   N     0.16665   0.83332   0.61907   0.00000  Uiso   1.00
N588   N     0.16668   0.83334   0.38093   0.00000  Uiso   1.00
O589   O     0.16666   0.77225   0.53821   0.00000  Uiso   1.00
O590   O     0.16667   0.89442   0.46179   0.00000  Uiso   1.00
O591   O     0.16666   0.77226   0.46176   0.00000  Uiso   1.00
O592   O     0.16667   0.89441   0.53824   0.00000  Uiso   1.00
O593   O     0.09058   0.83333   0.52928   0.00000  Uiso   1.00
O594   O     0.24275   0.83334   0.47072   0.00000  Uiso   1.00
O595   O     0.09058   0.83334   0.45284   0.00000  Uiso   1.00
O596   O     0.24275   0.83333   0.54716   0.00000  Uiso   1.00
Zn597  Zn    0.16667   0.83333   0.55104   0.00000  Uiso   1.00
Zn598  Zn    0.16667   0.83334   0.44896   0.00000  Uiso   1.00
Br599  Br    0.32028   0.78520   0.43705   0.00000  Uiso   1.00
Br600  Br    0.01306   0.88147   0.56295   0.00000  Uiso   1.00
Br601  Br    0.26474   0.71638   0.56396   0.00000  Uiso   1.00
Br602  Br    0.06859   0.95028   0.43604   0.00000  Uiso   1.00
F603   F     0.24452   0.95642   0.55353   0.00000  Uiso   1.00
F604   F     0.08881   0.71025   0.44647   0.00000  Uiso   1.00
F605   F     0.23308   0.88480   0.38794   0.00000  Uiso   1.00
F606   F     0.10026   0.78187   0.61206   0.00000  Uiso   1.00
F607   F     0.23301   0.88481   0.62805   0.00000  Uiso   1.00
F608   F     0.10032   0.78186   0.37195   0.00000  Uiso   1.00
C609   C     0.50065   0.75343   0.50007   0.00000  Uiso   1.00
C610   C     0.49935   0.91323   0.49993   0.00000  Uiso   1.00
C611   C     0.40054   0.83307   0.48843   0.00000  Uiso   1.00
C612   C     0.59946   0.83359   0.51157   0.00000  Uiso   1.00
C613   C     0.34655   0.82584   0.48373   0.00000  Uiso   1.00
C614   C     0.65345   0.84083   0.51627   0.00000  Uiso   1.00
C615   C     0.54059   0.68797   0.52778   0.00000  Uiso   1.00
C616   C     0.45941   0.97870   0.47222   0.00000  Uiso   1.00
C617   C     0.53936   0.97815   0.52767   0.00000  Uiso   1.00
C618   C     0.46064   0.68851   0.47233   0.00000  Uiso   1.00
C619   C     0.49910   0.95733   0.49992   0.00000  Uiso   1.00
C620   C     0.50090   0.70933   0.50008   0.00000  Uiso   1.00
C621   C     0.53316   0.85903   0.36129   0.00000  Uiso   1.00
C622   C     0.46684   0.80764   0.63871   0.00000  Uiso   1.00
C623   C     0.53314   0.85902   0.64669   0.00000  Uiso   1.00
C624   C     0.46686   0.80764   0.35331   0.00000  Uiso   1.00
N625   N     0.49999   0.83332   0.61907   0.00000  Uiso   1.00
N626   N     0.50001   0.83334   0.38093   0.00000  Uiso   1.00
O627   O     0.50000   0.77225   0.53821   0.00000  Uiso   1.00
O628   O     0.50000   0.89442   0.46179   0.00000  Uiso   1.00
O629   O     0.50000   0.77226   0.46176   0.00000  Uiso   1.00
O630   O     0.50000   0.89441   0.53824   0.00000  Uiso   1.00
O631   O     0.42392   0.83333   0.52928   0.00000  Uiso   1.00
O632   O     0.57608   0.83334   0.47072   0.00000  Uiso   1.00
O633   O     0.42392   0.83334   0.45284   0.00000  Uiso   1.00
O634   O     0.57608   0.83333   0.54716   0.00000  Uiso   1.00
Zn635  Zn    0.50000   0.83333   0.55104   0.00000  Uiso   1.00
Zn636  Zn    0.50000   0.83334   0.44896   0.00000  Uiso   1.00
Br637  Br    0.65361   0.78520   0.43705   0.00000  Uiso   1.00
Br638  Br    0.34639   0.88147   0.56295   0.00000  Uiso   1.00
Br639  Br    0.59808   0.71638   0.56396   0.00000  Uiso   1.00
Br640  Br    0.40192   0.95028   0.43604   0.00000  Uiso   1.00
F641   F     0.57785   0.95642   0.55353   0.00000  Uiso   1.00
F642   F     0.42214   0.71025   0.44647   0.00000  Uiso   1.00
F643   F     0.56641   0.88480   0.38794   0.00000  Uiso   1.00
F644   F     0.43359   0.78187   0.61206   0.00000  Uiso   1.00
F645   F     0.56634   0.88481   0.62805   0.00000  Uiso   1.00
F646   F     0.43366   0.78186   0.37195   0.00000  Uiso   1.00
C647   C     0.83398   0.75343   0.50007   0.00000  Uiso   1.00
C648   C     0.83268   0.91323   0.49993   0.00000  Uiso   1.00
C649   C     0.73387   0.83307   0.48843   0.00000  Uiso   1.00
C650   C     0.93280   0.83359   0.51157   0.00000  Uiso   1.00
C651   C     0.67988   0.82584   0.48373   0.00000  Uiso   1.00
C652   C     0.98679   0.84083   0.51627   0.00000  Uiso   1.00
C653   C     0.87392   0.68797   0.52778   0.00000  Uiso   1.00
C654   C     0.79274   0.97870   0.47222   0.00000  Uiso   1.00
C655   C     0.87270   0.97815   0.52767   0.00000  Uiso   1.00
C656   C     0.79397   0.68851   0.47233   0.00000  Uiso   1.00
C657   C     0.83244   0.95733   0.49992   0.00000  Uiso   1.00
C658   C     0.83423   0.70933   0.50008   0.00000  Uiso   1.00
C659   C     0.86649   0.85903   0.36129   0.00000  Uiso   1.00
C660   C     0.80017   0.80764   0.63871   0.00000  Uiso   1.00
C661   C     0.86647   0.85902   0.64669   0.00000  Uiso   1.00
C662   C     0.80019   0.80764   0.35331   0.00000  Uiso   1.00
N663   N     0.83332   0.83332   0.61907   0.00000  Uiso   1.00
N664   N     0.83335   0.83334   0.38093   0.00000  Uiso   1.00
O665   O     0.83333   0.77225   0.53821   0.00000  Uiso   1.00
O666   O     0.83334   0.89442   0.46179   0.00000  Uiso   1.00
O667   O     0.83333   0.77226   0.46176   0.00000  Uiso   1.00
O668   O     0.83334   0.89441   0.53824   0.00000  Uiso   1.00
O669   O     0.75725   0.83333   0.52928   0.00000  Uiso   1.00
O670   O     0.90942   0.83334   0.47072   0.00000  Uiso   1.00
O671   O     0.75725   0.83334   0.45284   0.00000  Uiso   1.00
O672   O     0.90942   0.83333   0.54716   0.00000  Uiso   1.00
Zn673  Zn    0.83333   0.83333   0.55104   0.00000  Uiso   1.00
Zn674  Zn    0.83333   0.83334   0.44896   0.00000  Uiso   1.00
Br675  Br    0.98694   0.78520   0.43705   0.00000  Uiso   1.00
Br676  Br    0.67972   0.88147   0.56295   0.00000  Uiso   1.00
Br677  Br    0.93141   0.71638   0.56396   0.00000  Uiso   1.00
Br678  Br    0.73526   0.95028   0.43604   0.00000  Uiso   1.00
F679   F     0.91119   0.95642   0.55353   0.00000  Uiso   1.00
F680   F     0.75548   0.71025   0.44647   0.00000  Uiso   1.00
F681   F     0.89974   0.88480   0.38794   0.00000  Uiso   1.00
F682   F     0.76692   0.78187   0.61206   0.00000  Uiso   1.00
F683   F     0.89968   0.88481   0.62805   0.00000  Uiso   1.00
F684   F     0.76699   0.78186   0.37195   0.00000  Uiso   1.00
C685   C     0.16732   0.08677   0.83340   0.00000  Uiso   1.00
C686   C     0.16601   0.24657   0.83326   0.00000  Uiso   1.00
C687   C     0.06720   0.16641   0.82176   0.00000  Uiso   1.00
C688   C     0.26613   0.16693   0.84490   0.00000  Uiso   1.00
C689   C     0.01321   0.15917   0.81706   0.00000  Uiso   1.00
C690   C     0.32012   0.17416   0.84961   0.00000  Uiso   1.00
C691   C     0.20726   0.02130   0.86112   0.00000  Uiso   1.00
C692   C     0.12608   0.31203   0.80555   0.00000  Uiso   1.00
C693   C     0.20603   0.31149   0.86101   0.00000  Uiso   1.00
C694   C     0.12730   0.02185   0.80566   0.00000  Uiso   1.00
C695   C     0.16577   0.29067   0.83325   0.00000  Uiso   1.00
C696   C     0.16756   0.04267   0.83341   0.00000  Uiso   1.00
C697   C     0.19983   0.19236   0.69463   0.00000  Uiso   1.00
C698   C     0.13351   0.14097   0.97204   0.00000  Uiso   1.00
C699   C     0.19980   0.19236   0.98003   0.00000  Uiso   1.00
C700   C     0.13353   0.14098   0.68664   0.00000  Uiso   1.00
N701   N     0.16665   0.16666   0.95240   0.00000  Uiso   1.00
N702   N     0.16668   0.16668   0.71427   0.00000  Uiso   1.00
O703   O     0.16666   0.10558   0.87154   0.00000  Uiso   1.00
O704   O     0.16667   0.22775   0.79513   0.00000  Uiso   1.00
O705   O     0.16666   0.10559   0.79510   0.00000  Uiso   1.00
O706   O     0.16667   0.22774   0.87157   0.00000  Uiso   1.00
O707   O     0.09058   0.16666   0.86261   0.00000  Uiso   1.00
O708   O     0.24275   0.16667   0.80405   0.00000  Uiso   1.00
O709   O     0.09058   0.16667   0.78617   0.00000  Uiso   1.00
O710   O     0.24275   0.16666   0.88050   0.00000  Uiso   1.00
Zn711  Zn    0.16667   0.16666   0.88437   0.00000  Uiso   1.00
Zn712  Zn    0.16667   0.16667   0.78229   0.00000  Uiso   1.00
Br713  Br    0.32028   0.11853   0.77038   0.00000  Uiso   1.00
Br714  Br    0.01306   0.21480   0.89629   0.00000  Uiso   1.00
Br715  Br    0.26474   0.04972   0.89730   0.00000  Uiso   1.00
Br716  Br    0.06859   0.28362   0.76937   0.00000  Uiso   1.00
F717   F     0.24452   0.28975   0.88686   0.00000  Uiso   1.00
F718   F     0.08881   0.04358   0.77980   0.00000  Uiso   1.00
F719   F     0.23308   0.21813   0.72127   0.00000  Uiso   1.00
F720   F     0.10026   0.11520   0.94540   0.00000  Uiso   1.00
F721   F     0.23301   0.21814   0.96139   0.00000  Uiso   1.00
F722   F     0.10032   0.11519   0.70528   0.00000  Uiso   1.00
C723   C     0.50065   0.08677   0.83340   0.00000  Uiso   1.00
C724   C     0.49935   0.24657   0.83326   0.00000  Uiso   1.00
C725   C     0.40054   0.16641   0.82176   0.00000  Uiso   1.00
C726   C     0.59946   0.16693   0.84490   0.00000  Uiso   1.00
C727   C     0.34655   0.15917   0.81706   0.00000  Uiso   1.00
C728   C     0.65345   0.17416   0.84961   0.00000  Uiso   1.00
C729   C     0.54059   0.02130   0.86112   0.00000  Uiso   1.00
C730   C     0.45941   0.31203   0.80555   0.00000  Uiso   1.00
C731   C     0.53936   0.31149   0.86101   0.00000  Uiso   1.00
C732   C     0.46064   0.02185   0.80566   0.00000  Uiso   1.00
C733   C     0.49910   0.29067   0.83325   0.00000  Uiso   1.00
C734   C     0.50090   0.04267   0.83341   0.00000  Uiso   1.00
C735   C     0.53316   0.19236   0.69463   0.00000  Uiso   1.00
C736   C     0.46684   0.14097   0.97204   0.00000  Uiso   1.00
C737   C     0.53314   0.19236   0.98003   0.00000  Uiso   1.00
C738   C     0.46686   0.14098   0.68664   0.00000  Uiso   1.00
N739   N     0.49999   0.16666   0.95240   0.00000  Uiso   1.00
N740   N     0.50001   0.16668   0.71427   0.00000  Uiso   1.00
O741   O     0.50000   0.10558   0.87154   0.00000  Uiso   1.00
O742   O     0.50000   0.22775   0.79513   0.00000  Uiso   1.00
O743   O     0.50000   0.10559   0.79510   0.00000  Uiso   1.00
O744   O     0.50000   0.22774   0.87157   0.00000  Uiso   1.00
O745   O     0.42392   0.16666   0.86261   0.00000  Uiso   1.00
O746   O     0.57608   0.16667   0.80405   0.00000  Uiso   1.00
O747   O     0.42392   0.16667   0.78617   0.00000  Uiso   1.00
O748   O     0.57608   0.16666   0.88050   0.00000  Uiso   1.00
Zn749  Zn    0.50000   0.16666   0.88437   0.00000  Uiso   1.00
Zn750  Zn    0.50000   0.16667   0.78229   0.00000  Uiso   1.00
Br751  Br    0.65361   0.11853   0.77038   0.00000  Uiso   1.00
Br752  Br    0.34639   0.21480   0.89629   0.00000  Uiso   1.00
Br753  Br    0.59808   0.04972   0.89730   0.00000  Uiso   1.00
Br754  Br    0.40192   0.28362   0.76937   0.00000  Uiso   1.00
F755   F     0.57785   0.28975   0.88686   0.00000  Uiso   1.00
F756   F     0.42214   0.04358   0.77980   0.00000  Uiso   1.00
F757   F     0.56641   0.21813   0.72127   0.00000  Uiso   1.00
F758   F     0.43359   0.11520   0.94540   0.00000  Uiso   1.00
F759   F     0.56634   0.21814   0.96139   0.00000  Uiso   1.00
F760   F     0.43366   0.11519   0.70528   0.00000  Uiso   1.00
C761   C     0.83398   0.08677   0.83340   0.00000  Uiso   1.00
C762   C     0.83268   0.24657   0.83326   0.00000  Uiso   1.00
C763   C     0.73387   0.16641   0.82176   0.00000  Uiso   1.00
C764   C     0.93280   0.16693   0.84490   0.00000  Uiso   1.00
C765   C     0.67988   0.15917   0.81706   0.00000  Uiso   1.00
C766   C     0.98679   0.17416   0.84961   0.00000  Uiso   1.00
C767   C     0.87392   0.02130   0.86112   0.00000  Uiso   1.00
C768   C     0.79274   0.31203   0.80555   0.00000  Uiso   1.00
C769   C     0.87270   0.31149   0.86101   0.00000  Uiso   1.00
C770   C     0.79397   0.02185   0.80566   0.00000  Uiso   1.00
C771   C     0.83244   0.29067   0.83325   0.00000  Uiso   1.00
C772   C     0.83423   0.04267   0.83341   0.00000  Uiso   1.00
C773   C     0.86649   0.19236   0.69463   0.00000  Uiso   1.00
C774   C     0.80017   0.14097   0.97204   0.00000  Uiso   1.00
C775   C     0.86647   0.19236   0.98003   0.00000  Uiso   1.00
C776   C     0.80019   0.14098   0.68664   0.00000  Uiso   1.00
N777   N     0.83332   0.16666   0.95240   0.00000  Uiso   1.00
N778   N     0.83335   0.16668   0.71427   0.00000  Uiso   1.00
O779   O     0.83333   0.10558   0.87154   0.00000  Uiso   1.00
O780   O     0.83334   0.22775   0.79513   0.00000  Uiso   1.00
O781   O     0.83333   0.10559   0.79510   0.00000  Uiso   1.00
O782   O     0.83334   0.22774   0.87157   0.00000  Uiso   1.00
O783   O     0.75725   0.16666   0.86261   0.00000  Uiso   1.00
O784   O     0.90942   0.16667   0.80405   0.00000  Uiso   1.00
O785   O     0.75725   0.16667   0.78617   0.00000  Uiso   1.00
O786   O     0.90942   0.16666   0.88050   0.00000  Uiso   1.00
Zn787  Zn    0.83333   0.16666   0.88437   0.00000  Uiso   1.00
Zn788  Zn    0.83333   0.16667   0.78229   0.00000  Uiso   1.00
Br789  Br    0.98694   0.11853   0.77038   0.00000  Uiso   1.00
Br790  Br    0.67972   0.21480   0.89629   0.00000  Uiso   1.00
Br791  Br    0.93141   0.04972   0.89730   0.00000  Uiso   1.00
Br792  Br    0.73526   0.28362   0.76937   0.00000  Uiso   1.00
F793   F     0.91119   0.28975   0.88686   0.00000  Uiso   1.00
F794   F     0.75548   0.04358   0.77980   0.00000  Uiso   1.00
F795   F     0.89974   0.21813   0.72127   0.00000  Uiso   1.00
F796   F     0.76692   0.11520   0.94540   0.00000  Uiso   1.00
F797   F     0.89968   0.21814   0.96139   0.00000  Uiso   1.00
F798   F     0.76699   0.11519   0.70528   0.00000  Uiso   1.00
C799   C     0.16732   0.42010   0.83340   0.00000  Uiso   1.00
C800   C     0.16601   0.57990   0.83326   0.00000  Uiso   1.00
C801   C     0.06720   0.49974   0.82176   0.00000  Uiso   1.00
C802   C     0.26613   0.50026   0.84490   0.00000  Uiso   1.00
C803   C     0.01321   0.49250   0.81706   0.00000  Uiso   1.00
C804   C     0.32012   0.50750   0.84961   0.00000  Uiso   1.00
C805   C     0.20726   0.35463   0.86112   0.00000  Uiso   1.00
C806   C     0.12608   0.64537   0.80555   0.00000  Uiso   1.00
C807   C     0.20603   0.64482   0.86101   0.00000  Uiso   1.00
C808   C     0.12730   0.35518   0.80566   0.00000  Uiso   1.00
C809   C     0.16577   0.62400   0.83325   0.00000  Uiso   1.00
C810   C     0.16756   0.37600   0.83341   0.00000  Uiso   1.00
C811   C     0.19983   0.52569   0.69463   0.00000  Uiso   1.00
C812   C     0.13351   0.47431   0.97204   0.00000  Uiso   1.00
C813   C     0.19980   0.52569   0.98003   0.00000  Uiso   1.00
C814   C     0.13353   0.47431   0.68664   0.00000  Uiso   1.00
N815   N     0.16665   0.49999   0.95240   0.00000  Uiso   1.00
N816   N     0.16668   0.50001   0.71427   0.00000  Uiso   1.00
O817   O     0.16666   0.43892   0.87154   0.00000  Uiso   1.00
O818   O     0.16667   0.56108   0.79513   0.00000  Uiso   1.00
O819   O     0.16666   0.43893   0.79510   0.00000  Uiso   1.00
O820   O     0.16667   0.56107   0.87157   0.00000  Uiso   1.00
O821   O     0.09058   0.50000   0.86261   0.00000  Uiso   1.00
O822   O     0.24275   0.50000   0.80405   0.00000  Uiso   1.00
O823   O     0.09058   0.50000   0.78617   0.00000  Uiso   1.00
O824   O     0.24275   0.50000   0.88050   0.00000  Uiso   1.00
Zn825  Zn    0.16667   0.49999   0.88437   0.00000  Uiso   1.00
Zn826  Zn    0.16667   0.50001   0.78229   0.00000  Uiso   1.00
Br827  Br    0.32028   0.45187   0.77038   0.00000  Uiso   1.00
Br828  Br    0.01306   0.54813   0.89629   0.00000  Uiso   1.00
Br829  Br    0.26474   0.38305   0.89730   0.00000  Uiso   1.00
Br830  Br    0.06859   0.61695   0.76937   0.00000  Uiso   1.00
F831   F     0.24452   0.62309   0.88686   0.00000  Uiso   1.00
F832   F     0.08881   0.37691   0.77980   0.00000  Uiso   1.00
F833   F     0.23308   0.55146   0.72127   0.00000  Uiso   1.00
F834   F     0.10026   0.44854   0.94540   0.00000  Uiso   1.00
F835   F     0.23301   0.55148   0.96139   0.00000  Uiso   1.00
F836   F     0.10032   0.44852   0.70528   0.00000  Uiso   1.00
C837   C     0.50065   0.42010   0.83340   0.00000  Uiso   1.00
C838   C     0.49935   0.57990   0.83326   0.00000  Uiso   1.00
C839   C     0.40054   0.49974   0.82176   0.00000  Uiso   1.00
C840   C     0.59946   0.50026   0.84490   0.00000  Uiso   1.00
C841   C     0.34655   0.49250   0.81706   0.00000  Uiso   1.00
C842   C     0.65345   0.50750   0.84961   0.00000  Uiso   1.00
C843   C     0.54059   0.35463   0.86112   0.00000  Uiso   1.00
C844   C     0.45941   0.64537   0.80555   0.00000  Uiso   1.00
C845   C     0.53936   0.64482   0.86101   0.00000  Uiso   1.00
C846   C     0.46064   0.35518   0.80566   0.00000  Uiso   1.00
C847   C     0.49910   0.62400   0.83325   0.00000  Uiso   1.00
C848   C     0.50090   0.37600   0.83341   0.00000  Uiso   1.00
C849   C     0.53316   0.52569   0.69463   0.00000  Uiso   1.00
C850   C     0.46684   0.47431   0.97204   0.00000  Uiso   1.00
C851   C     0.53314   0.52569   0.98003   0.00000  Uiso   1.00
C852   C     0.46686   0.47431   0.68664   0.00000  Uiso   1.00
N853   N     0.49999   0.49999   0.95240   0.00000  Uiso   1.00
N854   N     0.50001   0.50001   0.71427   0.00000  Uiso   1.00
O855   O     0.50000   0.43892   0.87154   0.00000  Uiso   1.00
O856   O     0.50000   0.56108   0.79513   0.00000  Uiso   1.00
O857   O     0.50000   0.43893   0.79510   0.00000  Uiso   1.00
O858   O     0.50000   0.56107   0.87157   0.00000  Uiso   1.00
O859   O     0.42392   0.50000   0.86261   0.00000  Uiso   1.00
O860   O     0.57608   0.50000   0.80405   0.00000  Uiso   1.00
O861   O     0.42392   0.50000   0.78617   0.00000  Uiso   1.00
O862   O     0.57608   0.50000   0.88050   0.00000  Uiso   1.00
Zn863  Zn    0.50000   0.49999   0.88437   0.00000  Uiso   1.00
Zn864  Zn    0.50000   0.50001   0.78229   0.00000  Uiso   1.00
Br865  Br    0.65361   0.45187   0.77038   0.00000  Uiso   1.00
Br866  Br    0.34639   0.54813   0.89629   0.00000  Uiso   1.00
Br867  Br    0.59808   0.38305   0.89730   0.00000  Uiso   1.00
Br868  Br    0.40192   0.61695   0.76937   0.00000  Uiso   1.00
F869   F     0.57785   0.62309   0.88686   0.00000  Uiso   1.00
F870   F     0.42214   0.37691   0.77980   0.00000  Uiso   1.00
F871   F     0.56641   0.55146   0.72127   0.00000  Uiso   1.00
F872   F     0.43359   0.44854   0.94540   0.00000  Uiso   1.00
F873   F     0.56634   0.55148   0.96139   0.00000  Uiso   1.00
F874   F     0.43366   0.44852   0.70528   0.00000  Uiso   1.00
C875   C     0.83398   0.42010   0.83340   0.00000  Uiso   1.00
C876   C     0.83268   0.57990   0.83326   0.00000  Uiso   1.00
C877   C     0.73387   0.49974   0.82176   0.00000  Uiso   1.00
C878   C     0.93280   0.50026   0.84490   0.00000  Uiso   1.00
C879   C     0.67988   0.49250   0.81706   0.00000  Uiso   1.00
C880   C     0.98679   0.50750   0.84961   0.00000  Uiso   1.00
C881   C     0.87392   0.35463   0.86112   0.00000  Uiso   1.00
C882   C     0.79274   0.64537   0.80555   0.00000  Uiso   1.00
C883   C     0.87270   0.64482   0.86101   0.00000  Uiso   1.00
C884   C     0.79397   0.35518   0.80566   0.00000  Uiso   1.00
C885   C     0.83244   0.62400   0.83325   0.00000  Uiso   1.00
C886   C     0.83423   0.37600   0.83341   0.00000  Uiso   1.00
C887   C     0.86649   0.52569   0.69463   0.00000  Uiso   1.00
C888   C     0.80017   0.47431   0.97204   0.00000  Uiso   1.00
C889   C     0.86647   0.52569   0.98003   0.00000  Uiso   1.00
C890   C     0.80019   0.47431   0.68664   0.00000  Uiso   1.00
N891   N     0.83332   0.49999   0.95240   0.00000  Uiso   1.00
N892   N     0.83335   0.50001   0.71427   0.00000  Uiso   1.00
O893   O     0.83333   0.43892   0.87154   0.00000  Uiso   1.00
O894   O     0.83334   0.56108   0.79513   0.00000  Uiso   1.00
O895   O     0.83333   0.43893   0.79510   0.00000  Uiso   1.00
O896   O     0.83334   0.56107   0.87157   0.00000  Uiso   1.00
O897   O     0.75725   0.50000   0.86261   0.00000  Uiso   1.00
O898   O     0.90942   0.50000   0.80405   0.00000  Uiso   1.00
O899   O     0.75725   0.50000   0.78617   0.00000  Uiso   1.00
O900   O     0.90942   0.50000   0.88050   0.00000  Uiso   1.00
Zn901  Zn    0.83333   0.49999   0.88437   0.00000  Uiso   1.00
Zn902  Zn    0.83333   0.50001   0.78229   0.00000  Uiso   1.00
Br903  Br    0.98694   0.45187   0.77038   0.00000  Uiso   1.00
Br904  Br    0.67972   0.54813   0.89629   0.00000  Uiso   1.00
Br905  Br    0.93141   0.38305   0.89730   0.00000  Uiso   1.00
Br906  Br    0.73526   0.61695   0.76937   0.00000  Uiso   1.00
F907   F     0.91119   0.62309   0.88686   0.00000  Uiso   1.00
F908   F     0.75548   0.37691   0.77980   0.00000  Uiso   1.00
F909   F     0.89974   0.55146   0.72127   0.00000  Uiso   1.00
F910   F     0.76692   0.44854   0.94540   0.00000  Uiso   1.00
F911   F     0.89968   0.55148   0.96139   0.00000  Uiso   1.00
F912   F     0.76699   0.44852   0.70528   0.00000  Uiso   1.00
C913   C     0.16732   0.75343   0.83340   0.00000  Uiso   1.00
C914   C     0.16601   0.91323   0.83326   0.00000  Uiso   1.00
C915   C     0.06720   0.83307   0.82176   0.00000  Uiso   1.00
C916   C     0.26613   0.83359   0.84490   0.00000  Uiso   1.00
C917   C     0.01321   0.82584   0.81706   0.00000  Uiso   1.00
C918   C     0.32012   0.84083   0.84961   0.00000  Uiso   1.00
C919   C     0.20726   0.68797   0.86112   0.00000  Uiso   1.00
C920   C     0.12608   0.97870   0.80555   0.00000  Uiso   1.00
C921   C     0.20603   0.97815   0.86101   0.00000  Uiso   1.00
C922   C     0.12730   0.68851   0.80566   0.00000  Uiso   1.00
C923   C     0.16577   0.95733   0.83325   0.00000  Uiso   1.00
C924   C     0.16756   0.70933   0.83341   0.00000  Uiso   1.00
C925   C     0.19983   0.85903   0.69463   0.00000  Uiso   1.00
C926   C     0.13351   0.80764   0.97204   0.00000  Uiso   1.00
C927   C     0.19980   0.85902   0.98003   0.00000  Uiso   1.00
C928   C     0.13353   0.80764   0.68664   0.00000  Uiso   1.00
N929   N     0.16665   0.83332   0.95240   0.00000  Uiso   1.00
N930   N     0.16668   0.83334   0.71427   0.00000  Uiso   1.00
O931   O     0.16666   0.77225   0.87154   0.00000  Uiso   1.00
O932   O     0.16667   0.89442   0.79513   0.00000  Uiso   1.00
O933   O     0.16666   0.77226   0.79510   0.00000  Uiso   1.00
O934   O     0.16667   0.89441   0.87157   0.00000  Uiso   1.00
O935   O     0.09058   0.83333   0.86261   0.00000  Uiso   1.00
O936   O     0.24275   0.83334   0.80405   0.00000  Uiso   1.00
O937   O     0.09058   0.83334   0.78617   0.00000  Uiso   1.00
O938   O     0.24275   0.83333   0.88050   0.00000  Uiso   1.00
Zn939  Zn    0.16667   0.83333   0.88437   0.00000  Uiso   1.00
Zn940  Zn    0.16667   0.83334   0.78229   0.00000  Uiso   1.00
Br941  Br    0.32028   0.78520   0.77038   0.00000  Uiso   1.00
Br942  Br    0.01306   0.88147   0.89629   0.00000  Uiso   1.00
Br943  Br    0.26474   0.71638   0.89730   0.00000  Uiso   1.00
Br944  Br    0.06859   0.95028   0.76937   0.00000  Uiso   1.00
F945   F     0.24452   0.95642   0.88686   0.00000  Uiso   1.00
F946   F     0.08881   0.71025   0.77980   0.00000  Uiso   1.00
F947   F     0.23308   0.88480   0.72127   0.00000  Uiso   1.00
F948   F     0.10026   0.78187   0.94540   0.00000  Uiso   1.00
F949   F     0.23301   0.88481   0.96139   0.00000  Uiso   1.00
F950   F     0.10032   0.78186   0.70528   0.00000  Uiso   1.00
C951   C     0.50065   0.75343   0.83340   0.00000  Uiso   1.00
C952   C     0.49935   0.91323   0.83326   0.00000  Uiso   1.00
C953   C     0.40054   0.83307   0.82176   0.00000  Uiso   1.00
C954   C     0.59946   0.83359   0.84490   0.00000  Uiso   1.00
C955   C     0.34655   0.82584   0.81706   0.00000  Uiso   1.00
C956   C     0.65345   0.84083   0.84961   0.00000  Uiso   1.00
C957   C     0.54059   0.68797   0.86112   0.00000  Uiso   1.00
C958   C     0.45941   0.97870   0.80555   0.00000  Uiso   1.00
C959   C     0.53936   0.97815   0.86101   0.00000  Uiso   1.00
C960   C     0.46064   0.68851   0.80566   0.00000  Uiso   1.00
C961   C     0.49910   0.95733   0.83325   0.00000  Uiso   1.00
C962   C     0.50090   0.70933   0.83341   0.00000  Uiso   1.00
C963   C     0.53316   0.85903   0.69463   0.00000  Uiso   1.00
C964   C     0.46684   0.80764   0.97204   0.00000  Uiso   1.00
C965   C     0.53314   0.85902   0.98003   0.00000  Uiso   1.00
C966   C     0.46686   0.80764   0.68664   0.00000  Uiso   1.00
N967   N     0.49999   0.83332   0.95240   0.00000  Uiso   1.00
N968   N     0.50001   0.83334   0.71427   0.00000  Uiso   1.00
O969   O     0.50000   0.77225   0.87154   0.00000  Uiso   1.00
O970   O     0.50000   0.89442   0.79513   0.00000  Uiso   1.00
O971   O     0.50000   0.77226   0.79510   0.00000  Uiso   1.00
O972   O     0.50000   0.89441   0.87157   0.00000  Uiso   1.00
O973   O     0.42392   0.83333   0.86261   0.00000  Uiso   1.00
O974   O     0.57608   0.83334   0.80405   0.00000  Uiso   1.00
O975   O     0.42392   0.83334   0.78617   0.00000  Uiso   1.00
O976   O     0.57608   0.83333   0.88050   0.00000  Uiso   1.00
Zn977  Zn    0.50000   0.83333   0.88437   0.00000  Uiso   1.00
Zn978  Zn    0.50000   0.83334   0.78229   0.00000  Uiso   1.00
Br979  Br    0.65361   0.78520   0.77038   0.00000  Uiso   1.00
Br980  Br    0.34639   0.88147   0.89629   0.00000  Uiso   1.00
Br981  Br    0.59808   0.71638   0.89730   0.00000  Uiso   1.00
Br982  Br    0.40192   0.95028   0.76937   0.00000  Uiso   1.00
F983   F     0.57785   0.95642   0.88686   0.00000  Uiso   1.00
F984   F     0.42214   0.71025   0.77980   0.00000  Uiso   1.00
F985   F     0.56641   0.88480   0.72127   0.00000  Uiso   1.00
F986   F     0.43359   0.78187   0.94540   0.00000  Uiso   1.00
F987   F     0.56634   0.88481   0.96139   0.00000  Uiso   1.00
F988   F     0.43366   0.78186   0.70528   0.00000  Uiso   1.00
C989   C     0.83398   0.75343   0.83340   0.00000  Uiso   1.00
C990   C     0.83268   0.91323   0.83326   0.00000  Uiso   1.00
C991   C     0.73387   0.83307   0.82176   0.00000  Uiso   1.00
C992   C     0.93280   0.83359   0.84490   0.00000  Uiso   1.00
C993   C     0.67988   0.82584   0.81706   0.00000  Uiso   1.00
C994   C     0.98679   0.84083   0.84961   0.00000  Uiso   1.00
C995   C     0.87392   0.68797   0.86112   0.00000  Uiso   1.00
C996   C     0.79274   0.97870   0.80555   0.00000  Uiso   1.00
C997   C     0.87270   0.97815   0.86101   0.00000  Uiso   1.00
C998   C     0.79397   0.68851   0.80566   0.00000  Uiso   1.00
C999   C     0.83244   0.95733   0.83325   0.00000  Uiso   1.00
C1000  C     0.83423   0.70933   0.83341   0.00000  Uiso   1.00
C1001  C     0.86649   0.85903   0.69463   0.00000  Uiso   1.00
C1002  C     0.80017   0.80764   0.97204   0.00000  Uiso   1.00
C1003  C     0.86647   0.85902   0.98003   0.00000  Uiso   1.00
C1004  C     0.80019   0.80764   0.68664   0.00000  Uiso   1.00
N1005  N     0.83332   0.83332   0.95240   0.00000  Uiso   1.00
N1006  N     0.83335   0.83334   0.71427   0.00000  Uiso   1.00
O1007  O     0.83333   0.77225   0.87154   0.00000  Uiso   1.00
O1008  O     0.83334   0.89442   0.79513   0.00000  Uiso   1.00
O1009  O     0.83333   0.77226   0.79510   0.00000  Uiso   1.00
O1010  O     0.83334   0.89441   0.87157   0.00000  Uiso   1.00
O1011  O     0.75725   0.83333   0.86261   0.00000  Uiso   1.00
O1012  O     0.90942   0.83334   0.80405   0.00000  Uiso   1.00
O1013  O     0.75725   0.83334   0.78617   0.00000  Uiso   1.00
O1014  O     0.90942   0.83333   0.88050   0.00000  Uiso   1.00
Zn1015 Zn    0.83333   0.83333   0.88437   0.00000  Uiso   1.00
Zn1016 Zn    0.83333   0.83334   0.78229   0.00000  Uiso   1.00
Br1017 Br    0.98694   0.78520   0.77038   0.00000  Uiso   1.00
Br1018 Br    0.67972   0.88147   0.89629   0.00000  Uiso   1.00
Br1019 Br    0.93141   0.71638   0.89730   0.00000  Uiso   1.00
Br1020 Br    0.73526   0.95028   0.76937   0.00000  Uiso   1.00
F1021  F     0.91119   0.95642   0.88686   0.00000  Uiso   1.00
F1022  F     0.75548   0.71025   0.77980   0.00000  Uiso   1.00
F1023  F     0.89974   0.88480   0.72127   0.00000  Uiso   1.00
F1024  F     0.76692   0.78187   0.94540   0.00000  Uiso   1.00
F1025  F     0.89968   0.88481   0.96139   0.00000  Uiso   1.00
F1026  F     0.76699   0.78186   0.70528   0.00000  Uiso   1.00
loop_
_geom_bond_atom_site_label_1
_geom_bond_atom_site_label_2
_geom_bond_distance
_geom_bond_site_symmetry_2
_ccdc_geom_bond_type
C1     O21     1.280   .     A
C1     C12     1.406   .     S
C1     O19     1.280   .     A
C2     O22     1.280   .     A
C2     C11     1.406   .     S
C2     O20     1.280   .     A
C3     O23     1.273   .     A
C3     O25     1.284   .     A
C3     C5      1.399   .     S
C4     O26     1.284   .     A
C4     O24     1.273   .     A
C4     C6      1.399   .     S
C5     C82     1.344   1_455 S
C5     Br105   1.943   1_455 S
C6     C43     1.344   .     S
C6     Br68    1.943   .     S
C7     C12     1.400   .     A
C7     Br31    1.926   .     S
C7     C237    1.376   1_545 S
C8     C11     1.400   .     A
C8     Br32    1.926   .     S
C8     C124    1.376   .     S
C9     F33     1.360   .     S
C9     C11     1.396   .     A
C9     C121    1.376   .     S
C10    F34     1.360   .     S
C10    C12     1.396   .     A
C10    C236    1.376   1_545 S
C13    N18     1.367   .     A
C13    F35     1.355   .     S
C13    C699    1.418   1_554 S
C14    N17     1.367   .     A
C14    F36     1.355   .     S
C14    C358    1.418   .     S
C15    F37     1.355   .     S
C15    N17     1.367   .     A
C15    C355    1.418   .     S
C16    N18     1.367   .     A
C16    F38     1.355   .     S
C16    C698    1.418   1_554 S
N17    Zn27    2.012   .     S
N18    Zn28    2.012   .     S
O19    Zn27    1.984   .     S
O20    Zn28    1.984   .     S
O21    Zn28    1.984   .     S
O22    Zn27    1.984   .     S
O23    Zn27    1.980   .     S
O24    Zn28    1.980   .     S
O25    Zn28    1.983   .     S
O26    Zn27    1.983   .     S
Br29   C43     1.943   .     S
Br30   C82     1.943   1_455 S
C39    O59     1.280   .     A
C39    C50     1.406   .     S
C39    O57     1.280   .     A
C40    O60     1.280   .     A
C40    C49     1.406   .     S
C40    O58     1.280   .     A
C41    O61     1.273   .     A
C41    O63     1.284   .     A
C41    C43     1.399   .     S
C42    O64     1.284   .     A
C42    O62     1.273   .     A
C42    C44     1.399   .     S
C44    C81     1.344   .     S
C44    Br106   1.943   .     S
C45    C50     1.400   .     A
C45    Br69    1.926   .     S
C45    C275    1.376   1_545 S
C46    C49     1.400   .     A
C46    Br70    1.926   .     S
C46    C162    1.376   .     S
C47    F71     1.360   .     S
C47    C49     1.396   .     A
C47    C159    1.376   .     S
C48    F72     1.360   .     S
C48    C50     1.396   .     A
C48    C274    1.376   1_545 S
C51    N56     1.367   .     A
C51    F73     1.355   .     S
C51    C737    1.418   1_554 S
C52    N55     1.367   .     A
C52    F74     1.355   .     S
C52    C396    1.418   .     S
C53    F75     1.355   .     S
C53    N55     1.367   .     A
C53    C393    1.418   .     S
C54    N56     1.367   .     A
C54    F76     1.355   .     S
C54    C736    1.418   1_554 S
N55    Zn65    2.012   .     S
N56    Zn66    2.012   .     S
O57    Zn65    1.984   .     S
O58    Zn66    1.984   .     S
O59    Zn66    1.984   .     S
O60    Zn65    1.984   .     S
O61    Zn65    1.980   .     S
O62    Zn66    1.980   .     S
O63    Zn66    1.983   .     S
O64    Zn65    1.983   .     S
Br67   C81     1.943   .     S
C77    O97     1.280   .     A
C77    C88     1.406   .     S
C77    O95     1.280   .     A
C78    O98     1.280   .     A
C78    C87     1.406   .     S
C78    O96     1.280   .     A
C79    O99     1.273   .     A
C79    O101    1.284   .     A
C79    C81     1.399   .     S
C80    O102    1.284   .     A
C80    O100    1.273   .     A
C80    C82     1.399   .     S
C82    C5      1.344   1_655 S
C82    Br30    1.943   1_655 S
C83    C88     1.400   .     A
C83    Br107   1.926   .     S
C83    C313    1.376   1_545 S
C84    C87     1.400   .     A
C84    Br108   1.926   .     S
C84    C200    1.376   .     S
C85    F109    1.360   .     S
C85    C87     1.396   .     A
C85    C197    1.376   .     S
C86    F110    1.360   .     S
C86    C88     1.396   .     A
C86    C312    1.376   1_545 S
C89    N94     1.367   .     A
C89    F111    1.355   .     S
C89    C775    1.418   1_554 S
C90    N93     1.367   .     A
C90    F112    1.355   .     S
C90    C434    1.418   .     S
C91    F113    1.355   .     S
C91    N93     1.367   .     A
C91    C431    1.418   .     S
C92    N94     1.367   .     A
C92    F114    1.355   .     S
C92    C774    1.418   1_554 S
N93    Zn103   2.012   .     S
N94    Zn104   2.012   .     S
O95    Zn103   1.984   .     S
O96    Zn104   1.984   .     S
O97    Zn104   1.984   .     S
O98    Zn103   1.984   .     S
O99    Zn103   1.980   .     S
O100   Zn104   1.980   .     S
O101   Zn104   1.983   .     S
O102   Zn103   1.983   .     S
Br105  C5      1.943   1_655 S
C115   O135    1.280   .     A
C115   C126    1.406   .     S
C115   O133    1.280   .     A
C116   O136    1.280   .     A
C116   C125    1.406   .     S
C116   O134    1.280   .     A
C117   O137    1.273   .     A
C117   O139    1.284   .     A
C117   C119    1.399   .     S
C118   O140    1.284   .     A
C118   O138    1.273   .     A
C118   C120    1.399   .     S
C119   C196    1.344   1_455 S
C119   Br219   1.943   1_455 S
C120   C157    1.344   .     S
C120   Br182   1.943   .     S
C121   C126    1.400   .     A
C121   Br145   1.926   .     S
C122   C125    1.400   .     A
C122   Br146   1.926   .     S
C122   C238    1.376   .     S
C123   F147    1.360   .     S
C123   C125    1.396   .     A
C123   C235    1.376   .     S
C124   F148    1.360   .     S
C124   C126    1.396   .     A
C127   N132    1.367   .     A
C127   F149    1.355   .     S
C127   C813    1.418   1_554 S
C128   N131    1.367   .     A
C128   F150    1.355   .     S
C128   C472    1.418   .     S
C129   F151    1.355   .     S
C129   N131    1.367   .     A
C129   C469    1.418   .     S
C130   N132    1.367   .     A
C130   F152    1.355   .     S
C130   C812    1.418   1_554 S
N131   Zn141   2.012   .     S
N132   Zn142   2.012   .     S
O133   Zn141   1.984   .     S
O134   Zn142   1.984   .     S
O135   Zn142   1.984   .     S
O136   Zn141   1.984   .     S
O137   Zn141   1.980   .     S
O138   Zn142   1.980   .     S
O139   Zn142   1.983   .     S
O140   Zn141   1.983   .     S
Br143  C157    1.943   .     S
Br144  C196    1.943   1_455 S
C153   O173    1.280   .     A
C153   C164    1.406   .     S
C153   O171    1.280   .     A
C154   O174    1.280   .     A
C154   C163    1.406   .     S
C154   O172    1.280   .     A
C155   O175    1.273   .     A
C155   O177    1.284   .     A
C155   C157    1.399   .     S
C156   O178    1.284   .     A
C156   O176    1.273   .     A
C156   C158    1.399   .     S
C158   C195    1.344   .     S
C158   Br220   1.943   .     S
C159   C164    1.400   .     A
C159   Br183   1.926   .     S
C160   C163    1.400   .     A
C160   Br184   1.926   .     S
C160   C276    1.376   .     S
C161   F185    1.360   .     S
C161   C163    1.396   .     A
C161   C273    1.376   .     S
C162   F186    1.360   .     S
C162   C164    1.396   .     A
C165   N170    1.367   .     A
C165   F187    1.355   .     S
C165   C851    1.418   1_554 S
C166   N169    1.367   .     A
C166   F188    1.355   .     S
C166   C510    1.418   .     S
C167   F189    1.355   .     S
C167   N169    1.367   .     A
C167   C507    1.418   .     S
C168   N170    1.367   .     A
C168   F190    1.355   .     S
C168   C850    1.418   1_554 S
N169   Zn179   2.012   .     S
N170   Zn180   2.012   .     S
O171   Zn179   1.984   .     S
O172   Zn180   1.984   .     S
O173   Zn180   1.984   .     S
O174   Zn179   1.984   .     S
O175   Zn179   1.980   .     S
O176   Zn180   1.980   .     S
O177   Zn180   1.983   .     S
O178   Zn179   1.983   .     S
Br181  C195    1.943   .     S
C191   O211    1.280   .     A
C191   C202    1.406   .     S
C191   O209    1.280   .     A
C192   O212    1.280   .     A
C192   C201    1.406   .     S
C192   O210    1.280   .     A
C193   O213    1.273   .     A
C193   O215    1.284   .     A
C193   C195    1.399   .     S
C194   O216    1.284   .     A
C194   O214    1.273   .     A
C194   C196    1.399   .     S
C196   C119    1.344   1_655 S
C196   Br144   1.943   1_655 S
C197   C202    1.400   .     A
C197   Br221   1.926   .     S
C198   C201    1.400   .     A
C198   Br222   1.926   .     S
C198   C314    1.376   .     S
C199   F223    1.360   .     S
C199   C201    1.396   .     A
C199   C311    1.376   .     S
C200   F224    1.360   .     S
C200   C202    1.396   .     A
C203   N208    1.367   .     A
C203   F225    1.355   .     S
C203   C889    1.418   1_554 S
C204   N207    1.367   .     A
C204   F226    1.355   .     S
C204   C548    1.418   .     S
C205   F227    1.355   .     S
C205   N207    1.367   .     A
C205   C545    1.418   .     S
C206   N208    1.367   .     A
C206   F228    1.355   .     S
C206   C888    1.418   1_554 S
N207   Zn217   2.012   .     S
N208   Zn218   2.012   .     S
O209   Zn217   1.984   .     S
O210   Zn218   1.984   .     S
O211   Zn218   1.984   .     S
O212   Zn217   1.984   .     S
O213   Zn217   1.980   .     S
O214   Zn218   1.980   .     S
O215   Zn218   1.983   .     S
O216   Zn217   1.983   .     S
Br219  C119    1.943   1_655 S
C229   O249    1.280   .     A
C229   C240    1.406   .     S
C229   O247    1.280   .     A
C230   O250    1.280   .     A
C230   C239    1.406   .     S
C230   O248    1.280   .     A
C231   O251    1.273   .     A
C231   O253    1.284   .     A
C231   C233    1.399   .     S
C232   O254    1.284   .     A
C232   O252    1.273   .     A
C232   C234    1.399   .     S
C233   C310    1.344   1_455 S
C233   Br333   1.943   1_455 S
C234   C271    1.344   .     S
C234   Br296   1.943   .     S
C235   C240    1.400   .     A
C235   Br259   1.926   .     S
C236   C239    1.400   .     A
C236   Br260   1.926   .     S
C236   C10     1.376   1_565 S
C237   F261    1.360   .     S
C237   C239    1.396   .     A
C237   C7      1.376   1_565 S
C238   F262    1.360   .     S
C238   C240    1.396   .     A
C241   N246    1.367   .     A
C241   F263    1.355   .     S
C241   C927    1.418   1_554 S
C242   N245    1.367   .     A
C242   F264    1.355   .     S
C242   C586    1.418   .     S
C243   F265    1.355   .     S
C243   N245    1.367   .     A
C243   C583    1.418   .     S
C244   N246    1.367   .     A
C244   F266    1.355   .     S
C244   C926    1.418   1_554 S
N245   Zn255   2.012   .     S
N246   Zn256   2.012   .     S
O247   Zn255   1.984   .     S
O248   Zn256   1.984   .     S
O249   Zn256   1.984   .     S
O250   Zn255   1.984   .     S
O251   Zn255   1.980   .     S
O252   Zn256   1.980   .     S
O253   Zn256   1.983   .     S
O254   Zn255   1.983   .     S
Br257  C271    1.943   .     S
Br258  C310    1.943   1_455 S
C267   O287    1.280   .     A
C267   C278    1.406   .     S
C267   O285    1.280   .     A
C268   O288    1.280   .     A
C268   C277    1.406   .     S
C268   O286    1.280   .     A
C269   O289    1.273   .     A
C269   O291    1.284   .     A
C269   C271    1.399   .     S
C270   O292    1.284   .     A
C270   O290    1.273   .     A
C270   C272    1.399   .     S
C272   C309    1.344   .     S
C272   Br334   1.943   .     S
C273   C278    1.400   .     A
C273   Br297   1.926   .     S
C274   C277    1.400   .     A
C274   Br298   1.926   .     S
C274   C48     1.376   1_565 S
C275   F299    1.360   .     S
C275   C277    1.396   .     A
C275   C45     1.376   1_565 S
C276   F300    1.360   .     S
C276   C278    1.396   .     A
C279   N284    1.367   .     A
C279   F301    1.355   .     S
C279   C965    1.418   1_554 S
C280   N283    1.367   .     A
C280   F302    1.355   .     S
C280   C624    1.418   .     S
C281   F303    1.355   .     S
C281   N283    1.367   .     A
C281   C621    1.418   .     S
C282   N284    1.367   .     A
C282   F304    1.355   .     S
C282   C964    1.418   1_554 S
N283   Zn293   2.012   .     S
N284   Zn294   2.012   .     S
O285   Zn293   1.984   .     S
O286   Zn294   1.984   .     S
O287   Zn294   1.984   .     S
O288   Zn293   1.984   .     S
O289   Zn293   1.980   .     S
O290   Zn294   1.980   .     S
O291   Zn294   1.983   .     S
O292   Zn293   1.983   .     S
Br295  C309    1.943   .     S
C305   O325    1.280   .     A
C305   C316    1.406   .     S
C305   O323    1.280   .     A
C306   O326    1.280   .     A
C306   C315    1.406   .     S
C306   O324    1.280   .     A
C307   O327    1.273   .     A
C307   O329    1.284   .     A
C307   C309    1.399   .     S
C308   O330    1.284   .     A
C308   O328    1.273   .     A
C308   C310    1.399   .     S
C310   C233    1.344   1_655 S
C310   Br258   1.943   1_655 S
C311   C316    1.400   .     A
C311   Br335   1.926   .     S
C312   C315    1.400   .     A
C312   Br336   1.926   .     S
C312   C86     1.376   1_565 S
C313   F337    1.360   .     S
C313   C315    1.396   .     A
C313   C83     1.376   1_565 S
C314   F338    1.360   .     S
C314   C316    1.396   .     A
C317   N322    1.367   .     A
C317   F339    1.355   .     S
C317   C1003   1.418   1_554 S
C318   N321    1.367   .     A
C318   F340    1.355   .     S
C318   C662    1.418   .     S
C319   F341    1.355   .     S
C319   N321    1.367   .     A
C319   C659    1.418   .     S
C320   N322    1.367   .     A
C320   F342    1.355   .     S
C320   C1002   1.418   1_554 S
N321   Zn331   2.012   .     S
N322   Zn332   2.012   .     S
O323   Zn331   1.984   .     S
O324   Zn332   1.984   .     S
O325   Zn332   1.984   .     S
O326   Zn331   1.984   .     S
O327   Zn331   1.980   .     S
O328   Zn332   1.980   .     S
O329   Zn332   1.983   .     S
O330   Zn331   1.983   .     S
Br333  C233    1.943   1_655 S
C343   O363    1.280   .     A
C343   C354    1.406   .     S
C343   O361    1.280   .     A
C344   O364    1.280   .     A
C344   C353    1.406   .     S
C344   O362    1.280   .     A
C345   O365    1.273   .     A
C345   O367    1.284   .     A
C345   C347    1.399   .     S
C346   O368    1.284   .     A
C346   O366    1.273   .     A
C346   C348    1.399   .     S
C347   C424    1.344   1_455 S
C347   Br447   1.943   1_455 S
C348   C385    1.344   .     S
C348   Br410   1.943   .     S
C349   C354    1.400   .     A
C349   Br373   1.926   .     S
C349   C579    1.376   1_545 S
C350   C353    1.400   .     A
C350   Br374   1.926   .     S
C350   C466    1.376   .     S
C351   F375    1.360   .     S
C351   C353    1.396   .     A
C351   C463    1.376   .     S
C352   F376    1.360   .     S
C352   C354    1.396   .     A
C352   C578    1.376   1_545 S
C355   N360    1.367   .     A
C355   F377    1.355   .     S
C356   N359    1.367   .     A
C356   F378    1.355   .     S
C356   C700    1.418   .     S
C357   F379    1.355   .     S
C357   N359    1.367   .     A
C357   C697    1.418   .     S
C358   N360    1.367   .     A
C358   F380    1.355   .     S
N359   Zn369   2.012   .     S
N360   Zn370   2.012   .     S
O361   Zn369   1.984   .     S
O362   Zn370   1.984   .     S
O363   Zn370   1.984   .     S
O364   Zn369   1.984   .     S
O365   Zn369   1.980   .     S
O366   Zn370   1.980   .     S
O367   Zn370   1.983   .     S
O368   Zn369   1.983   .     S
Br371  C385    1.943   .     S
Br372  C424    1.943   1_455 S
C381   O401    1.280   .     A
C381   C392    1.406   .     S
C381   O399    1.280   .     A
C382   O402    1.280   .     A
C382   C391    1.406   .     S
C382   O400    1.280   .     A
C383   O403    1.273   .     A
C383   O405    1.284   .     A
C383   C385    1.399   .     S
C384   O406    1.284   .     A
C384   O404    1.273   .     A
C384   C386    1.399   .     S
C386   C423    1.344   .     S
C386   Br448   1.943   .     S
C387   C392    1.400   .     A
C387   Br411   1.926   .     S
C387   C617    1.376   1_545 S
C388   C391    1.400   .     A
C388   Br412   1.926   .     S
C388   C504    1.376   .     S
C389   F413    1.360   .     S
C389   C391    1.396   .     A
C389   C501    1.376   .     S
C390   F414    1.360   .     S
C390   C392    1.396   .     A
C390   C616    1.376   1_545 S
C393   N398    1.367   .     A
C393   F415    1.355   .     S
C394   N397    1.367   .     A
C394   F416    1.355   .     S
C394   C738    1.418   .     S
C395   F417    1.355   .     S
C395   N397    1.367   .     A
C395   C735    1.418   .     S
C396   N398    1.367   .     A
C396   F418    1.355   .     S
N397   Zn407   2.012   .     S
N398   Zn408   2.012   .     S
O399   Zn407   1.984   .     S
O400   Zn408   1.984   .     S
O401   Zn408   1.984   .     S
O402   Zn407   1.984   .     S
O403   Zn407   1.980   .     S
O404   Zn408   1.980   .     S
O405   Zn408   1.983   .     S
O406   Zn407   1.983   .     S
Br409  C423    1.943   .     S
C419   O439    1.280   .     A
C419   C430    1.406   .     S
C419   O437    1.280   .     A
C420   O440    1.280   .     A
C420   C429    1.406   .     S
C420   O438    1.280   .     A
C421   O441    1.273   .     A
C421   O443    1.284   .     A
C421   C423    1.399   .     S
C422   O444    1.284   .     A
C422   O442    1.273   .     A
C422   C424    1.399   .     S
C424   C347    1.344   1_655 S
C424   Br372   1.943   1_655 S
C425   C430    1.400   .     A
C425   Br449   1.926   .     S
C425   C655    1.376   1_545 S
C426   C429    1.400   .     A
C426   Br450   1.926   .     S
C426   C542    1.376   .     S
C427   F451    1.360   .     S
C427   C429    1.396   .     A
C427   C539    1.376   .     S
C428   F452    1.360   .     S
C428   C430    1.396   .     A
C428   C654    1.376   1_545 S
C431   N436    1.367   .     A
C431   F453    1.355   .     S
C432   N435    1.367   .     A
C432   F454    1.355   .     S
C432   C776    1.418   .     S
C433   F455    1.355   .     S
C433   N435    1.367   .     A
C433   C773    1.418   .     S
C434   N436    1.367   .     A
C434   F456    1.355   .     S
N435   Zn445   2.012   .     S
N436   Zn446   2.012   .     S
O437   Zn445   1.984   .     S
O438   Zn446   1.984   .     S
O439   Zn446   1.984   .     S
O440   Zn445   1.984   .     S
O441   Zn445   1.980   .     S
O442   Zn446   1.980   .     S
O443   Zn446   1.983   .     S
O444   Zn445   1.983   .     S
Br447  C347    1.943   1_655 S
C457   O477    1.280   .     A
C457   C468    1.406   .     S
C457   O475    1.280   .     A
C458   O478    1.280   .     A
C458   C467    1.406   .     S
C458   O476    1.280   .     A
C459   O479    1.273   .     A
C459   O481    1.284   .     A
C459   C461    1.399   .     S
C460   O482    1.284   .     A
C460   O480    1.273   .     A
C460   C462    1.399   .     S
C461   C538    1.344   1_455 S
C461   Br561   1.943   1_455 S
C462   C499    1.344   .     S
C462   Br524   1.943   .     S
C463   C468    1.400   .     A
C463   Br487   1.926   .     S
C464   C467    1.400   .     A
C464   Br488   1.926   .     S
C464   C580    1.376   .     S
C465   F489    1.360   .     S
C465   C467    1.396   .     A
C465   C577    1.376   .     S
C466   F490    1.360   .     S
C466   C468    1.396   .     A
C469   N474    1.367   .     A
C469   F491    1.355   .     S
C470   N473    1.367   .     A
C470   F492    1.355   .     S
C470   C814    1.418   .     S
C471   F493    1.355   .     S
C471   N473    1.367   .     A
C471   C811    1.418   .     S
C472   N474    1.367   .     A
C472   F494    1.355   .     S
N473   Zn483   2.012   .     S
N474   Zn484   2.012   .     S
O475   Zn483   1.984   .     S
O476   Zn484   1.984   .     S
O477   Zn484   1.984   .     S
O478   Zn483   1.984   .     S
O479   Zn483   1.980   .     S
O480   Zn484   1.980   .     S
O481   Zn484   1.983   .     S
O482   Zn483   1.983   .     S
Br485  C499    1.943   .     S
Br486  C538    1.943   1_455 S
C495   O515    1.280   .     A
C495   C506    1.406   .     S
C495   O513    1.280   .     A
C496   O516    1.280   .     A
C496   C505    1.406   .     S
C496   O514    1.280   .     A
C497   O517    1.273   .     A
C497   O519    1.284   .     A
C497   C499    1.399   .     S
C498   O520    1.284   .     A
C498   O518    1.273   .     A
C498   C500    1.399   .     S
C500   C537    1.344   .     S
C500   Br562   1.943   .     S
C501   C506    1.400   .     A
C501   Br525   1.926   .     S
C502   C505    1.400   .     A
C502   Br526   1.926   .     S
C502   C618    1.376   .     S
C503   F527    1.360   .     S
C503   C505    1.396   .     A
C503   C615    1.376   .     S
C504   F528    1.360   .     S
C504   C506    1.396   .     A
C507   N512    1.367   .     A
C507   F529    1.355   .     S
C508   N511    1.367   .     A
C508   F530    1.355   .     S
C508   C852    1.418   .     S
C509   F531    1.355   .     S
C509   N511    1.367   .     A
C509   C849    1.418   .     S
C510   N512    1.367   .     A
C510   F532    1.355   .     S
N511   Zn521   2.012   .     S
N512   Zn522   2.012   .     S
O513   Zn521   1.984   .     S
O514   Zn522   1.984   .     S
O515   Zn522   1.984   .     S
O516   Zn521   1.984   .     S
O517   Zn521   1.980   .     S
O518   Zn522   1.980   .     S
O519   Zn522   1.983   .     S
O520   Zn521   1.983   .     S
Br523  C537    1.943   .     S
C533   O553    1.280   .     A
C533   C544    1.406   .     S
C533   O551    1.280   .     A
C534   O554    1.280   .     A
C534   C543    1.406   .     S
C534   O552    1.280   .     A
C535   O555    1.273   .     A
C535   O557    1.284   .     A
C535   C537    1.399   .     S
C536   O558    1.284   .     A
C536   O556    1.273   .     A
C536   C538    1.399   .     S
C538   C461    1.344   1_655 S
C538   Br486   1.943   1_655 S
C539   C544    1.400   .     A
C539   Br563   1.926   .     S
C540   C543    1.400   .     A
C540   Br564   1.926   .     S
C540   C656    1.376   .     S
C541   F565    1.360   .     S
C541   C543    1.396   .     A
C541   C653    1.376   .     S
C542   F566    1.360   .     S
C542   C544    1.396   .     A
C545   N550    1.367   .     A
C545   F567    1.355   .     S
C546   N549    1.367   .     A
C546   F568    1.355   .     S
C546   C890    1.418   .     S
C547   F569    1.355   .     S
C547   N549    1.367   .     A
C547   C887    1.418   .     S
C548   N550    1.367   .     A
C548   F570    1.355   .     S
N549   Zn559   2.012   .     S
N550   Zn560   2.012   .     S
O551   Zn559   1.984   .     S
O552   Zn560   1.984   .     S
O553   Zn560   1.984   .     S
O554   Zn559   1.984   .     S
O555   Zn559   1.980   .     S
O556   Zn560   1.980   .     S
O557   Zn560   1.983   .     S
O558   Zn559   1.983   .     S
Br561  C461    1.943   1_655 S
C571   O591    1.280   .     A
C571   C582    1.406   .     S
C571   O589    1.280   .     A
C572   O592    1.280   .     A
C572   C581    1.406   .     S
C572   O590    1.280   .     A
C573   O593    1.273   .     A
C573   O595    1.284   .     A
C573   C575    1.399   .     S
C574   O596    1.284   .     A
C574   O594    1.273   .     A
C574   C576    1.399   .     S
C575   C652    1.344   1_455 S
C575   Br675   1.943   1_455 S
C576   C613    1.344   .     S
C576   Br638   1.943   .     S
C577   C582    1.400   .     A
C577   Br601   1.926   .     S
C578   C581    1.400   .     A
C578   Br602   1.926   .     S
C578   C352    1.376   1_565 S
C579   F603    1.360   .     S
C579   C581    1.396   .     A
C579   C349    1.376   1_565 S
C580   F604    1.360   .     S
C580   C582    1.396   .     A
C583   N588    1.367   .     A
C583   F605    1.355   .     S
C584   N587    1.367   .     A
C584   F606    1.355   .     S
C584   C928    1.418   .     S
C585   F607    1.355   .     S
C585   N587    1.367   .     A
C585   C925    1.418   .     S
C586   N588    1.367   .     A
C586   F608    1.355   .     S
N587   Zn597   2.012   .     S
N588   Zn598   2.012   .     S
O589   Zn597   1.984   .     S
O590   Zn598   1.984   .     S
O591   Zn598   1.984   .     S
O592   Zn597   1.984   .     S
O593   Zn597   1.980   .     S
O594   Zn598   1.980   .     S
O595   Zn598   1.983   .     S
O596   Zn597   1.983   .     S
Br599  C613    1.943   .     S
Br600  C652    1.943   1_455 S
C609   O629    1.280   .     A
C609   C620    1.406   .     S
C609   O627    1.280   .     A
C610   O630    1.280   .     A
C610   C619    1.406   .     S
C610   O628    1.280   .     A
C611   O631    1.273   .     A
C611   O633    1.284   .     A
C611   C613    1.399   .     S
C612   O634    1.284   .     A
C612   O632    1.273   .     A
C612   C614    1.399   .     S
C614   C651    1.344   .     S
C614   Br676   1.943   .     S
C615   C620    1.400   .     A
C615   Br639   1.926   .     S
C616   C619    1.400   .     A
C616   Br640   1.926   .     S
C616   C390    1.376   1_565 S
C617   F641    1.360   .     S
C617   C619    1.396   .     A
C617   C387    1.376   1_565 S
C618   F642    1.360   .     S
C618   C620    1.396   .     A
C621   N626    1.367   .     A
C621   F643    1.355   .     S
C622   N625    1.367   .     A
C622   F644    1.355   .     S
C622   C966    1.418   .     S
C623   F645    1.355   .     S
C623   N625    1.367   .     A
C623   C963    1.418   .     S
C624   N626    1.367   .     A
C624   F646    1.355   .     S
N625   Zn635   2.012   .     S
N626   Zn636   2.012   .     S
O627   Zn635   1.984   .     S
O628   Zn636   1.984   .     S
O629   Zn636   1.984   .     S
O630   Zn635   1.984   .     S
O631   Zn635   1.980   .     S
O632   Zn636   1.980   .     S
O633   Zn636   1.983   .     S
O634   Zn635   1.983   .     S
Br637  C651    1.943   .     S
C647   O667    1.280   .     A
C647   C658    1.406   .     S
C647   O665    1.280   .     A
C648   O668    1.280   .     A
C648   C657    1.406   .     S
C648   O666    1.280   .     A
C649   O669    1.273   .     A
C649   O671    1.284   .     A
C649   C651    1.399   .     S
C650   O672    1.284   .     A
C650   O670    1.273   .     A
C650   C652    1.399   .     S
C652   C575    1.344   1_655 S
C652   Br600   1.943   1_655 S
C653   C658    1.400   .     A
C653   Br677   1.926   .     S
C654   C657    1.400   .     A
C654   Br678   1.926   .     S
C654   C428    1.376   1_565 S
C655   F679    1.360   .     S
C655   C657    1.396   .     A
C655   C425    1.376   1_565 S
C656   F680    1.360   .     S
C656   C658    1.396   .     A
C659   N664    1.367   .     A
C659   F681    1.355   .     S
C660   N663    1.367   .     A
C660   F682    1.355   .     S
C660   C1004   1.418   .     S
C661   F683    1.355   .     S
C661   N663    1.367   .     A
C661   C1001   1.418   .     S
C662   N664    1.367   .     A
C662   F684    1.355   .     S
N663   Zn673   2.012   .     S
N664   Zn674   2.012   .     S
O665   Zn673   1.984   .     S
O666   Zn674   1.984   .     S
O667   Zn674   1.984   .     S
O668   Zn673   1.984   .     S
O669   Zn673   1.980   .     S
O670   Zn674   1.980   .     S
O671   Zn674   1.983   .     S
O672   Zn673   1.983   .     S
Br675  C575    1.943   1_655 S
C685   O705    1.280   .     A
C685   C696    1.406   .     S
C685   O703    1.280   .     A
C686   O706    1.280   .     A
C686   C695    1.406   .     S
C686   O704    1.280   .     A
C687   O707    1.273   .     A
C687   O709    1.284   .     A
C687   C689    1.399   .     S
C688   O710    1.284   .     A
C688   O708    1.273   .     A
C688   C690    1.399   .     S
C689   C766    1.344   1_455 S
C689   Br789   1.943   1_455 S
C690   C727    1.344   .     S
C690   Br752   1.943   .     S
C691   C696    1.400   .     A
C691   Br715   1.926   .     S
C691   C921    1.376   1_545 S
C692   C695    1.400   .     A
C692   Br716   1.926   .     S
C692   C808    1.376   .     S
C693   F717    1.360   .     S
C693   C695    1.396   .     A
C693   C805    1.376   .     S
C694   F718    1.360   .     S
C694   C696    1.396   .     A
C694   C920    1.376   1_545 S
C697   N702    1.367   .     A
C697   F719    1.355   .     S
C698   N701    1.367   .     A
C698   F720    1.355   .     S
C698   C16     1.418   1_556 S
C699   F721    1.355   .     S
C699   N701    1.367   .     A
C699   C13     1.418   1_556 S
C700   N702    1.367   .     A
C700   F722    1.355   .     S
N701   Zn711   2.012   .     S
N702   Zn712   2.012   .     S
O703   Zn711   1.984   .     S
O704   Zn712   1.984   .     S
O705   Zn712   1.984   .     S
O706   Zn711   1.984   .     S
O707   Zn711   1.980   .     S
O708   Zn712   1.980   .     S
O709   Zn712   1.983   .     S
O710   Zn711   1.983   .     S
Br713  C727    1.943   .     S
Br714  C766    1.943   1_455 S
C723   O743    1.280   .     A
C723   C734    1.406   .     S
C723   O741    1.280   .     A
C724   O744    1.280   .     A
C724   C733    1.406   .     S
C724   O742    1.280   .     A
C725   O745    1.273   .     A
C725   O747    1.284   .     A
C725   C727    1.399   .     S
C726   O748    1.284   .     A
C726   O746    1.273   .     A
C726   C728    1.399   .     S
C728   C765    1.344   .     S
C728   Br790   1.943   .     S
C729   C734    1.400   .     A
C729   Br753   1.926   .     S
C729   C959    1.376   1_545 S
C730   C733    1.400   .     A
C730   Br754   1.926   .     S
C730   C846    1.376   .     S
C731   F755    1.360   .     S
C731   C733    1.396   .     A
C731   C843    1.376   .     S
C732   F756    1.360   .     S
C732   C734    1.396   .     A
C732   C958    1.376   1_545 S
C735   N740    1.367   .     A
C735   F757    1.355   .     S
C736   N739    1.367   .     A
C736   F758    1.355   .     S
C736   C54     1.418   1_556 S
C737   F759    1.355   .     S
C737   N739    1.367   .     A
C737   C51     1.418   1_556 S
C738   N740    1.367   .     A
C738   F760    1.355   .     S
N739   Zn749   2.012   .     S
N740   Zn750   2.012   .     S
O741   Zn749   1.984   .     S
O742   Zn750   1.984   .     S
O743   Zn750   1.984   .     S
O744   Zn749   1.984   .     S
O745   Zn749   1.980   .     S
O746   Zn750   1.980   .     S
O747   Zn750   1.983   .     S
O748   Zn749   1.983   .     S
Br751  C765    1.943   .     S
C761   O781    1.280   .     A
C761   C772    1.406   .     S
C761   O779    1.280   .     A
C762   O782    1.280   .     A
C762   C771    1.406   .     S
C762   O780    1.280   .     A
C763   O783    1.273   .     A
C763   O785    1.284   .     A
C763   C765    1.399   .     S
C764   O786    1.284   .     A
C764   O784    1.273   .     A
C764   C766    1.399   .     S
C766   C689    1.344   1_655 S
C766   Br714   1.943   1_655 S
C767   C772    1.400   .     A
C767   Br791   1.926   .     S
C767   C997    1.376   1_545 S
C768   C771    1.400   .     A
C768   Br792   1.926   .     S
C768   C884    1.376   .     S
C769   F793    1.360   .     S
C769   C771    1.396   .     A
C769   C881    1.376   .     S
C770   F794    1.360   .     S
C770   C772    1.396   .     A
C770   C996    1.376   1_545 S
C773   N778    1.367   .     A
C773   F795    1.355   .     S
C774   N777    1.367   .     A
C774   F796    1.355   .     S
C774   C92     1.418   1_556 S
C775   F797    1.355   .     S
C775   N777    1.367   .     A
C775   C89     1.418   1_556 S
C776   N778    1.367   .     A
C776   F798    1.355   .     S
N777   Zn787   2.012   .     S
N778   Zn788   2.012   .     S
O779   Zn787   1.984   .     S
O780   Zn788   1.984   .     S
O781   Zn788   1.984   .     S
O782   Zn787   1.984   .     S
O783   Zn787   1.980   .     S
O784   Zn788   1.980   .     S
O785   Zn788   1.983   .     S
O786   Zn787   1.983   .     S
Br789  C689    1.943   1_655 S
C799   O819    1.280   .     A
C799   C810    1.406   .     S
C799   O817    1.280   .     A
C800   O820    1.280   .     A
C800   C809    1.406   .     S
C800   O818    1.280   .     A
C801   O821    1.273   .     A
C801   O823    1.284   .     A
C801   C803    1.399   .     S
C802   O824    1.284   .     A
C802   O822    1.273   .     A
C802   C804    1.399   .     S
C803   C880    1.344   1_455 S
C803   Br903   1.943   1_455 S
C804   C841    1.344   .     S
C804   Br866   1.943   .     S
C805   C810    1.400   .     A
C805   Br829   1.926   .     S
C806   C809    1.400   .     A
C806   Br830   1.926   .     S
C806   C922    1.376   .     S
C807   F831    1.360   .     S
C807   C809    1.396   .     A
C807   C919    1.376   .     S
C808   F832    1.360   .     S
C808   C810    1.396   .     A
C811   N816    1.367   .     A
C811   F833    1.355   .     S
C812   N815    1.367   .     A
C812   F834    1.355   .     S
C812   C130    1.418   1_556 S
C813   F835    1.355   .     S
C813   N815    1.367   .     A
C813   C127    1.418   1_556 S
C814   N816    1.367   .     A
C814   F836    1.355   .     S
N815   Zn825   2.012   .     S
N816   Zn826   2.012   .     S
O817   Zn825   1.984   .     S
O818   Zn826   1.984   .     S
O819   Zn826   1.984   .     S
O820   Zn825   1.984   .     S
O821   Zn825   1.980   .     S
O822   Zn826   1.980   .     S
O823   Zn826   1.983   .     S
O824   Zn825   1.983   .     S
Br827  C841    1.943   .     S
Br828  C880    1.943   1_455 S
C837   O857    1.280   .     A
C837   C848    1.406   .     S
C837   O855    1.280   .     A
C838   O858    1.280   .     A
C838   C847    1.406   .     S
C838   O856    1.280   .     A
C839   O859    1.273   .     A
C839   O861    1.284   .     A
C839   C841    1.399   .     S
C840   O862    1.284   .     A
C840   O860    1.273   .     A
C840   C842    1.399   .     S
C842   C879    1.344   .     S
C842   Br904   1.943   .     S
C843   C848    1.400   .     A
C843   Br867   1.926   .     S
C844   C847    1.400   .     A
C844   Br868   1.926   .     S
C844   C960    1.376   .     S
C845   F869    1.360   .     S
C845   C847    1.396   .     A
C845   C957    1.376   .     S
C846   F870    1.360   .     S
C846   C848    1.396   .     A
C849   N854    1.367   .     A
C849   F871    1.355   .     S
C850   N853    1.367   .     A
C850   F872    1.355   .     S
C850   C168    1.418   1_556 S
C851   F873    1.355   .     S
C851   N853    1.367   .     A
C851   C165    1.418   1_556 S
C852   N854    1.367   .     A
C852   F874    1.355   .     S
N853   Zn863   2.012   .     S
N854   Zn864   2.012   .     S
O855   Zn863   1.984   .     S
O856   Zn864   1.984   .     S
O857   Zn864   1.984   .     S
O858   Zn863   1.984   .     S
O859   Zn863   1.980   .     S
O860   Zn864   1.980   .     S
O861   Zn864   1.983   .     S
O862   Zn863   1.983   .     S
Br865  C879    1.943   .     S
C875   O895    1.280   .     A
C875   C886    1.406   .     S
C875   O893    1.280   .     A
C876   O896    1.280   .     A
C876   C885    1.406   .     S
C876   O894    1.280   .     A
C877   O897    1.273   .     A
C877   O899    1.284   .     A
C877   C879    1.399   .     S
C878   O900    1.284   .     A
C878   O898    1.273   .     A
C878   C880    1.399   .     S
C880   C803    1.344   1_655 S
C880   Br828   1.943   1_655 S
C881   C886    1.400   .     A
C881   Br905   1.926   .     S
C882   C885    1.400   .     A
C882   Br906   1.926   .     S
C882   C998    1.376   .     S
C883   F907    1.360   .     S
C883   C885    1.396   .     A
C883   C995    1.376   .     S
C884   F908    1.360   .     S
C884   C886    1.396   .     A
C887   N892    1.367   .     A
C887   F909    1.355   .     S
C888   N891    1.367   .     A
C888   F910    1.355   .     S
C888   C206    1.418   1_556 S
C889   F911    1.355   .     S
C889   N891    1.367   .     A
C889   C203    1.418   1_556 S
C890   N892    1.367   .     A
C890   F912    1.355   .     S
N891   Zn901   2.012   .     S
N892   Zn902   2.012   .     S
O893   Zn901   1.984   .     S
O894   Zn902   1.984   .     S
O895   Zn902   1.984   .     S
O896   Zn901   1.984   .     S
O897   Zn901   1.980   .     S
O898   Zn902   1.980   .     S
O899   Zn902   1.983   .     S
O900   Zn901   1.983   .     S
Br903  C803    1.943   1_655 S
C913   O933    1.280   .     A
C913   C924    1.406   .     S
C913   O931    1.280   .     A
C914   O934    1.280   .     A
C914   C923    1.406   .     S
C914   O932    1.280   .     A
C915   O935    1.273   .     A
C915   O937    1.284   .     A
C915   C917    1.399   .     S
C916   O938    1.284   .     A
C916   O936    1.273   .     A
C916   C918    1.399   .     S
C917   C994    1.344   1_455 S
C917   Br1017  1.943   1_455 S
C918   C955    1.344   .     S
C918   Br980   1.943   .     S
C919   C924    1.400   .     A
C919   Br943   1.926   .     S
C920   C923    1.400   .     A
C920   Br944   1.926   .     S
C920   C694    1.376   1_565 S
C921   F945    1.360   .     S
C921   C923    1.396   .     A
C921   C691    1.376   1_565 S
C922   F946    1.360   .     S
C922   C924    1.396   .     A
C925   N930    1.367   .     A
C925   F947    1.355   .     S
C926   N929    1.367   .     A
C926   F948    1.355   .     S
C926   C244    1.418   1_556 S
C927   F949    1.355   .     S
C927   N929    1.367   .     A
C927   C241    1.418   1_556 S
C928   N930    1.367   .     A
C928   F950    1.355   .     S
N929   Zn939   2.012   .     S
N930   Zn940   2.012   .     S
O931   Zn939   1.984   .     S
O932   Zn940   1.984   .     S
O933   Zn940   1.984   .     S
O934   Zn939   1.984   .     S
O935   Zn939   1.980   .     S
O936   Zn940   1.980   .     S
O937   Zn940   1.983   .     S
O938   Zn939   1.983   .     S
Br941  C955    1.943   .     S
Br942  C994    1.943   1_455 S
C951   O971    1.280   .     A
C951   C962    1.406   .     S
C951   O969    1.280   .     A
C952   O972    1.280   .     A
C952   C961    1.406   .     S
C952   O970    1.280   .     A
C953   O973    1.273   .     A
C953   O975    1.284   .     A
C953   C955    1.399   .     S
C954   O976    1.284   .     A
C954   O974    1.273   .     A
C954   C956    1.399   .     S
C956   C993    1.344   .     S
C956   Br1018  1.943   .     S
C957   C962    1.400   .     A
C957   Br981   1.926   .     S
C958   C961    1.400   .     A
C958   Br982   1.926   .     S
C958   C732    1.376   1_565 S
C959   F983    1.360   .     S
C959   C961    1.396   .     A
C959   C729    1.376   1_565 S
C960   F984    1.360   .     S
C960   C962    1.396   .     A
C963   N968    1.367   .     A
C963   F985    1.355   .     S
C964   N967    1.367   .     A
C964   F986    1.355   .     S
C964   C282    1.418   1_556 S
C965   F987    1.355   .     S
C965   N967    1.367   .     A
C965   C279    1.418   1_556 S
C966   N968    1.367   .     A
C966   F988    1.355   .     S
N967   Zn977   2.012   .     S
N968   Zn978   2.012   .     S
O969   Zn977   1.984   .     S
O970   Zn978   1.984   .     S
O971   Zn978   1.984   .     S
O972   Zn977   1.984   .     S
O973   Zn977   1.980   .     S
O974   Zn978   1.980   .     S
O975   Zn978   1.983   .     S
O976   Zn977   1.983   .     S
Br979  C993    1.943   .     S
C989   O1009   1.280   .     A
C989   C1000   1.406   .     S
C989   O1007   1.280   .     A
C990   O1010   1.280   .     A
C990   C999    1.406   .     S
C990   O1008   1.280   .     A
C991   O1011   1.273   .     A
C991   O1013   1.284   .     A
C991   C993    1.399   .     S
C992   O1014   1.284   .     A
C992   O1012   1.273   .     A
C992   C994    1.399   .     S
C994   C917    1.344   1_655 S
C994   Br942   1.943   1_655 S
C995   C1000   1.400   .     A
C995   Br1019  1.926   .     S
C996   C999    1.400   .     A
C996   Br1020  1.926   .     S
C996   C770    1.376   1_565 S
C997   F1021   1.360   .     S
C997   C999    1.396   .     A
C997   C767    1.376   1_565 S
C998   F1022   1.360   .     S
C998   C1000   1.396   .     A
C1001  N1006   1.367   .     A
C1001  F1023   1.355   .     S
C1002  N1005   1.367   .     A
C1002  F1024   1.355   .     S
C1002  C320    1.418   1_556 S
C1003  F1025   1.355   .     S
C1003  N1005   1.367   .     A
C1003  C317    1.418   1_556 S
C1004  N1006   1.367   .     A
C1004  F1026   1.355   .     S
N1005  Zn1015  2.012   .     S
N1006  Zn1016  2.012   .     S
O1007  Zn1015  1.984   .     S
O1008  Zn1016  1.984   .     S
O1009  Zn1016  1.984   .     S
O1010  Zn1015  1.984   .     S
O1011  Zn1015  1.980   .     S
O1012  Zn1016  1.980   .     S
O1013  Zn1016  1.983   .     S
O1014  Zn1015  1.983   .     S
Br1017 C917    1.943   1_655 S
