data_str_m2_o1_o5_pcu_sym.88
_audit_creation_date              2020-01-03
_audit_creation_method            'Materials Studio'
_symmetry_space_group_name_H-M    'P1'
_symmetry_Int_Tables_number       1
_symmetry_cell_setting            triclinic
loop_
_symmetry_equiv_pos_as_xyz
  x,y,z
_cell_length_a                    32.4275
_cell_length_b                    28.5977
_cell_length_c                    27.2356
_cell_angle_alpha                 89.9485
_cell_angle_beta                  90.2928
_cell_angle_gamma                 89.8982
loop_
_atom_site_label
_atom_site_type_symbol
_atom_site_fract_x
_atom_site_fract_y
_atom_site_fract_z
_atom_site_U_iso_or_equiv
_atom_site_adp_type
_atom_site_occupancy
O1     O     0.10655   0.20625   0.16666   0.00000  Uiso   1.00
O2     O     0.22679   0.12709   0.16667   0.00000  Uiso   1.00
O3     O     0.22679   0.20625   0.16667   0.00000  Uiso   1.00
O4     O     0.10655   0.12709   0.16666   0.00000  Uiso   1.00
C5     C     0.08747   0.16673   0.16641   0.00000  Uiso   1.00
C6     C     0.24586   0.16661   0.16692   0.00000  Uiso   1.00
O7     O     0.16667   0.20625   0.09613   0.00000  Uiso   1.00
O8     O     0.16667   0.12708   0.23720   0.00000  Uiso   1.00
O9     O     0.16667   0.20625   0.23720   0.00000  Uiso   1.00
O10    O     0.16667   0.12708   0.09613   0.00000  Uiso   1.00
C11    C     0.16670   0.16668   0.07354   0.00000  Uiso   1.00
C12    C     0.16663   0.16665   0.25979   0.00000  Uiso   1.00
Cu13   Cu    0.16667   0.21355   0.16667   0.00000  Uiso   1.00
Cu14   Cu    0.16667   0.11978   0.16667   0.00000  Uiso   1.00
C15    C     0.16668   0.16669   0.02184   0.00000  Uiso   1.00
C16    C     0.16665   0.16665   0.31149   0.00000  Uiso   1.00
C17    C     0.02130   0.13780   0.13314   0.00000  Uiso   1.00
C18    C     0.31203   0.19554   0.20019   0.00000  Uiso   1.00
C19    C     0.31160   0.13741   0.13397   0.00000  Uiso   1.00
C20    C     0.02174   0.19592   0.19936   0.00000  Uiso   1.00
C21    C     0.29051   0.16638   0.16726   0.00000  Uiso   1.00
C22    C     0.04282   0.16696   0.16608   0.00000  Uiso   1.00
C23    C     0.14101   0.02486   0.13611   0.00000  Uiso   1.00
C24    C     0.19232   0.30847   0.19722   0.00000  Uiso   1.00
C25    C     0.19235   0.02471   0.19720   0.00000  Uiso   1.00
C26    C     0.14098   0.30862   0.13613   0.00000  Uiso   1.00
N27    N     0.16667   0.28402   0.16667   0.00000  Uiso   1.00
N28    N     0.16667   0.04931   0.16667   0.00000  Uiso   1.00
N29    N     0.04293   0.11099   0.09678   0.00000  Uiso   1.00
O30    O     0.03634   0.06633   0.09234   0.00000  Uiso   1.00
O31    O     0.06865   0.13142   0.06721   0.00000  Uiso   1.00
N32    N     0.29040   0.22234   0.23655   0.00000  Uiso   1.00
O33    O     0.29699   0.26700   0.24100   0.00000  Uiso   1.00
O34    O     0.26469   0.20191   0.26612   0.00000  Uiso   1.00
N35    N     0.28928   0.11037   0.09841   0.00000  Uiso   1.00
O36    O     0.26991   0.13126   0.06263   0.00000  Uiso   1.00
O37    O     0.28396   0.06578   0.10533   0.00000  Uiso   1.00
N38    N     0.04405   0.22296   0.23493   0.00000  Uiso   1.00
O39    O     0.06343   0.20207   0.27070   0.00000  Uiso   1.00
O40    O     0.04937   0.26755   0.22801   0.00000  Uiso   1.00
H41    H     0.12051   0.04358   0.11156   0.00000  Uiso   1.00
H42    H     0.21283   0.28976   0.22178   0.00000  Uiso   1.00
H43    H     0.21294   0.04329   0.22167   0.00000  Uiso   1.00
H44    H     0.12039   0.29004   0.11166   0.00000  Uiso   1.00
O45    O     0.43988   0.20625   0.16666   0.00000  Uiso   1.00
O46    O     0.56012   0.12709   0.16667   0.00000  Uiso   1.00
O47    O     0.56012   0.20625   0.16667   0.00000  Uiso   1.00
O48    O     0.43988   0.12709   0.16666   0.00000  Uiso   1.00
C49    C     0.42080   0.16673   0.16641   0.00000  Uiso   1.00
C50    C     0.57920   0.16661   0.16692   0.00000  Uiso   1.00
O51    O     0.50000   0.20625   0.09613   0.00000  Uiso   1.00
O52    O     0.50000   0.12708   0.23720   0.00000  Uiso   1.00
O53    O     0.50000   0.20625   0.23720   0.00000  Uiso   1.00
O54    O     0.50000   0.12708   0.09613   0.00000  Uiso   1.00
C55    C     0.50004   0.16668   0.07354   0.00000  Uiso   1.00
C56    C     0.49996   0.16665   0.25979   0.00000  Uiso   1.00
Cu57   Cu    0.50000   0.21355   0.16667   0.00000  Uiso   1.00
Cu58   Cu    0.50000   0.11978   0.16667   0.00000  Uiso   1.00
C59    C     0.50001   0.16669   0.02184   0.00000  Uiso   1.00
C60    C     0.49999   0.16665   0.31149   0.00000  Uiso   1.00
C61    C     0.35463   0.13780   0.13314   0.00000  Uiso   1.00
C62    C     0.64537   0.19554   0.20019   0.00000  Uiso   1.00
C63    C     0.64493   0.13741   0.13397   0.00000  Uiso   1.00
C64    C     0.35507   0.19592   0.19936   0.00000  Uiso   1.00
C65    C     0.62384   0.16638   0.16726   0.00000  Uiso   1.00
C66    C     0.37616   0.16696   0.16608   0.00000  Uiso   1.00
C67    C     0.47434   0.02486   0.13611   0.00000  Uiso   1.00
C68    C     0.52566   0.30847   0.19722   0.00000  Uiso   1.00
C69    C     0.52568   0.02471   0.19720   0.00000  Uiso   1.00
C70    C     0.47432   0.30862   0.13613   0.00000  Uiso   1.00
N71    N     0.50000   0.28402   0.16667   0.00000  Uiso   1.00
N72    N     0.50000   0.04931   0.16667   0.00000  Uiso   1.00
N73    N     0.37627   0.11099   0.09678   0.00000  Uiso   1.00
O74    O     0.36967   0.06633   0.09234   0.00000  Uiso   1.00
O75    O     0.40198   0.13142   0.06721   0.00000  Uiso   1.00
N76    N     0.62373   0.22234   0.23655   0.00000  Uiso   1.00
O77    O     0.63033   0.26700   0.24100   0.00000  Uiso   1.00
O78    O     0.59802   0.20191   0.26612   0.00000  Uiso   1.00
N79    N     0.62262   0.11037   0.09841   0.00000  Uiso   1.00
O80    O     0.60324   0.13126   0.06263   0.00000  Uiso   1.00
O81    O     0.61729   0.06578   0.10533   0.00000  Uiso   1.00
N82    N     0.37738   0.22296   0.23493   0.00000  Uiso   1.00
O83    O     0.39676   0.20207   0.27070   0.00000  Uiso   1.00
O84    O     0.38271   0.26755   0.22801   0.00000  Uiso   1.00
H85    H     0.45384   0.04358   0.11156   0.00000  Uiso   1.00
H86    H     0.54616   0.28976   0.22178   0.00000  Uiso   1.00
H87    H     0.54628   0.04329   0.22167   0.00000  Uiso   1.00
H88    H     0.45372   0.29004   0.11166   0.00000  Uiso   1.00
O89    O     0.77321   0.20625   0.16666   0.00000  Uiso   1.00
O90    O     0.89345   0.12709   0.16667   0.00000  Uiso   1.00
O91    O     0.89345   0.20625   0.16667   0.00000  Uiso   1.00
O92    O     0.77321   0.12709   0.16666   0.00000  Uiso   1.00
C93    C     0.75414   0.16673   0.16641   0.00000  Uiso   1.00
C94    C     0.91253   0.16661   0.16692   0.00000  Uiso   1.00
O95    O     0.83333   0.20625   0.09613   0.00000  Uiso   1.00
O96    O     0.83333   0.12708   0.23720   0.00000  Uiso   1.00
O97    O     0.83333   0.20625   0.23720   0.00000  Uiso   1.00
O98    O     0.83333   0.12708   0.09613   0.00000  Uiso   1.00
C99    C     0.83337   0.16668   0.07354   0.00000  Uiso   1.00
C100   C     0.83330   0.16665   0.25979   0.00000  Uiso   1.00
Cu101  Cu    0.83333   0.21355   0.16667   0.00000  Uiso   1.00
Cu102  Cu    0.83333   0.11978   0.16667   0.00000  Uiso   1.00
C103   C     0.83335   0.16669   0.02184   0.00000  Uiso   1.00
C104   C     0.83332   0.16665   0.31149   0.00000  Uiso   1.00
C105   C     0.68797   0.13780   0.13314   0.00000  Uiso   1.00
C106   C     0.97870   0.19554   0.20019   0.00000  Uiso   1.00
C107   C     0.97826   0.13741   0.13397   0.00000  Uiso   1.00
C108   C     0.68840   0.19592   0.19936   0.00000  Uiso   1.00
C109   C     0.95718   0.16638   0.16726   0.00000  Uiso   1.00
C110   C     0.70949   0.16696   0.16608   0.00000  Uiso   1.00
C111   C     0.80768   0.02486   0.13611   0.00000  Uiso   1.00
C112   C     0.85899   0.30847   0.19722   0.00000  Uiso   1.00
C113   C     0.85902   0.02471   0.19720   0.00000  Uiso   1.00
C114   C     0.80765   0.30862   0.13613   0.00000  Uiso   1.00
N115   N     0.83333   0.28402   0.16667   0.00000  Uiso   1.00
N116   N     0.83333   0.04931   0.16667   0.00000  Uiso   1.00
N117   N     0.70960   0.11099   0.09678   0.00000  Uiso   1.00
O118   O     0.70301   0.06633   0.09234   0.00000  Uiso   1.00
O119   O     0.73531   0.13142   0.06721   0.00000  Uiso   1.00
N120   N     0.95707   0.22234   0.23655   0.00000  Uiso   1.00
O121   O     0.96366   0.26700   0.24100   0.00000  Uiso   1.00
O122   O     0.93135   0.20191   0.26612   0.00000  Uiso   1.00
N123   N     0.95595   0.11037   0.09841   0.00000  Uiso   1.00
O124   O     0.93658   0.13126   0.06263   0.00000  Uiso   1.00
O125   O     0.95062   0.06578   0.10533   0.00000  Uiso   1.00
N126   N     0.71072   0.22296   0.23493   0.00000  Uiso   1.00
O127   O     0.73009   0.20207   0.27070   0.00000  Uiso   1.00
O128   O     0.71604   0.26755   0.22801   0.00000  Uiso   1.00
H129   H     0.78717   0.04358   0.11156   0.00000  Uiso   1.00
H130   H     0.87949   0.28976   0.22178   0.00000  Uiso   1.00
H131   H     0.87961   0.04329   0.22167   0.00000  Uiso   1.00
H132   H     0.78706   0.29004   0.11166   0.00000  Uiso   1.00
O133   O     0.10655   0.53958   0.16666   0.00000  Uiso   1.00
O134   O     0.22679   0.46042   0.16667   0.00000  Uiso   1.00
O135   O     0.22679   0.53958   0.16667   0.00000  Uiso   1.00
O136   O     0.10655   0.46042   0.16666   0.00000  Uiso   1.00
C137   C     0.08747   0.50006   0.16641   0.00000  Uiso   1.00
C138   C     0.24586   0.49994   0.16692   0.00000  Uiso   1.00
O139   O     0.16667   0.53959   0.09613   0.00000  Uiso   1.00
O140   O     0.16667   0.46041   0.23720   0.00000  Uiso   1.00
O141   O     0.16667   0.53959   0.23720   0.00000  Uiso   1.00
O142   O     0.16667   0.46041   0.09613   0.00000  Uiso   1.00
C143   C     0.16670   0.50001   0.07354   0.00000  Uiso   1.00
C144   C     0.16663   0.49999   0.25979   0.00000  Uiso   1.00
Cu145  Cu    0.16667   0.54689   0.16667   0.00000  Uiso   1.00
Cu146  Cu    0.16667   0.45311   0.16667   0.00000  Uiso   1.00
C147   C     0.16668   0.50002   0.02184   0.00000  Uiso   1.00
C148   C     0.16665   0.49998   0.31149   0.00000  Uiso   1.00
C149   C     0.02130   0.47113   0.13314   0.00000  Uiso   1.00
C150   C     0.31203   0.52887   0.20019   0.00000  Uiso   1.00
C151   C     0.31160   0.47075   0.13397   0.00000  Uiso   1.00
C152   C     0.02174   0.52925   0.19936   0.00000  Uiso   1.00
C153   C     0.29051   0.49971   0.16726   0.00000  Uiso   1.00
C154   C     0.04282   0.50029   0.16608   0.00000  Uiso   1.00
C155   C     0.14101   0.35820   0.13611   0.00000  Uiso   1.00
C156   C     0.19232   0.64180   0.19722   0.00000  Uiso   1.00
C157   C     0.19235   0.35804   0.19720   0.00000  Uiso   1.00
C158   C     0.14098   0.64196   0.13613   0.00000  Uiso   1.00
N159   N     0.16667   0.61736   0.16667   0.00000  Uiso   1.00
N160   N     0.16667   0.38264   0.16667   0.00000  Uiso   1.00
N161   N     0.04293   0.44432   0.09678   0.00000  Uiso   1.00
O162   O     0.03634   0.39967   0.09234   0.00000  Uiso   1.00
O163   O     0.06865   0.46475   0.06721   0.00000  Uiso   1.00
N164   N     0.29040   0.55568   0.23655   0.00000  Uiso   1.00
O165   O     0.29699   0.60033   0.24100   0.00000  Uiso   1.00
O166   O     0.26469   0.53525   0.26612   0.00000  Uiso   1.00
N167   N     0.28928   0.44370   0.09841   0.00000  Uiso   1.00
O168   O     0.26991   0.46459   0.06263   0.00000  Uiso   1.00
O169   O     0.28396   0.39911   0.10533   0.00000  Uiso   1.00
N170   N     0.04405   0.55630   0.23493   0.00000  Uiso   1.00
O171   O     0.06343   0.53541   0.27070   0.00000  Uiso   1.00
O172   O     0.04937   0.60089   0.22801   0.00000  Uiso   1.00
H173   H     0.12051   0.37691   0.11156   0.00000  Uiso   1.00
H174   H     0.21283   0.62309   0.22178   0.00000  Uiso   1.00
H175   H     0.21294   0.37663   0.22167   0.00000  Uiso   1.00
H176   H     0.12039   0.62337   0.11166   0.00000  Uiso   1.00
O177   O     0.43988   0.53958   0.16666   0.00000  Uiso   1.00
O178   O     0.56012   0.46042   0.16667   0.00000  Uiso   1.00
O179   O     0.56012   0.53958   0.16667   0.00000  Uiso   1.00
O180   O     0.43988   0.46042   0.16666   0.00000  Uiso   1.00
C181   C     0.42080   0.50006   0.16641   0.00000  Uiso   1.00
C182   C     0.57920   0.49994   0.16692   0.00000  Uiso   1.00
O183   O     0.50000   0.53959   0.09613   0.00000  Uiso   1.00
O184   O     0.50000   0.46041   0.23720   0.00000  Uiso   1.00
O185   O     0.50000   0.53959   0.23720   0.00000  Uiso   1.00
O186   O     0.50000   0.46041   0.09613   0.00000  Uiso   1.00
C187   C     0.50004   0.50001   0.07354   0.00000  Uiso   1.00
C188   C     0.49996   0.49999   0.25979   0.00000  Uiso   1.00
Cu189  Cu    0.50000   0.54689   0.16667   0.00000  Uiso   1.00
Cu190  Cu    0.50000   0.45311   0.16667   0.00000  Uiso   1.00
C191   C     0.50001   0.50002   0.02184   0.00000  Uiso   1.00
C192   C     0.49999   0.49998   0.31149   0.00000  Uiso   1.00
C193   C     0.35463   0.47113   0.13314   0.00000  Uiso   1.00
C194   C     0.64537   0.52887   0.20019   0.00000  Uiso   1.00
C195   C     0.64493   0.47075   0.13397   0.00000  Uiso   1.00
C196   C     0.35507   0.52925   0.19936   0.00000  Uiso   1.00
C197   C     0.62384   0.49971   0.16726   0.00000  Uiso   1.00
C198   C     0.37616   0.50029   0.16608   0.00000  Uiso   1.00
C199   C     0.47434   0.35820   0.13611   0.00000  Uiso   1.00
C200   C     0.52566   0.64180   0.19722   0.00000  Uiso   1.00
C201   C     0.52568   0.35804   0.19720   0.00000  Uiso   1.00
C202   C     0.47432   0.64196   0.13613   0.00000  Uiso   1.00
N203   N     0.50000   0.61736   0.16667   0.00000  Uiso   1.00
N204   N     0.50000   0.38264   0.16667   0.00000  Uiso   1.00
N205   N     0.37627   0.44432   0.09678   0.00000  Uiso   1.00
O206   O     0.36967   0.39967   0.09234   0.00000  Uiso   1.00
O207   O     0.40198   0.46475   0.06721   0.00000  Uiso   1.00
N208   N     0.62373   0.55568   0.23655   0.00000  Uiso   1.00
O209   O     0.63033   0.60033   0.24100   0.00000  Uiso   1.00
O210   O     0.59802   0.53525   0.26612   0.00000  Uiso   1.00
N211   N     0.62262   0.44370   0.09841   0.00000  Uiso   1.00
O212   O     0.60324   0.46459   0.06263   0.00000  Uiso   1.00
O213   O     0.61729   0.39911   0.10533   0.00000  Uiso   1.00
N214   N     0.37738   0.55630   0.23493   0.00000  Uiso   1.00
O215   O     0.39676   0.53541   0.27070   0.00000  Uiso   1.00
O216   O     0.38271   0.60089   0.22801   0.00000  Uiso   1.00
H217   H     0.45384   0.37691   0.11156   0.00000  Uiso   1.00
H218   H     0.54616   0.62309   0.22178   0.00000  Uiso   1.00
H219   H     0.54628   0.37663   0.22167   0.00000  Uiso   1.00
H220   H     0.45372   0.62337   0.11166   0.00000  Uiso   1.00
O221   O     0.77321   0.53958   0.16666   0.00000  Uiso   1.00
O222   O     0.89345   0.46042   0.16667   0.00000  Uiso   1.00
O223   O     0.89345   0.53958   0.16667   0.00000  Uiso   1.00
O224   O     0.77321   0.46042   0.16666   0.00000  Uiso   1.00
C225   C     0.75414   0.50006   0.16641   0.00000  Uiso   1.00
C226   C     0.91253   0.49994   0.16692   0.00000  Uiso   1.00
O227   O     0.83333   0.53959   0.09613   0.00000  Uiso   1.00
O228   O     0.83333   0.46041   0.23720   0.00000  Uiso   1.00
O229   O     0.83333   0.53959   0.23720   0.00000  Uiso   1.00
O230   O     0.83333   0.46041   0.09613   0.00000  Uiso   1.00
C231   C     0.83337   0.50001   0.07354   0.00000  Uiso   1.00
C232   C     0.83330   0.49999   0.25979   0.00000  Uiso   1.00
Cu233  Cu    0.83333   0.54689   0.16667   0.00000  Uiso   1.00
Cu234  Cu    0.83333   0.45311   0.16667   0.00000  Uiso   1.00
C235   C     0.83335   0.50002   0.02184   0.00000  Uiso   1.00
C236   C     0.83332   0.49998   0.31149   0.00000  Uiso   1.00
C237   C     0.68797   0.47113   0.13314   0.00000  Uiso   1.00
C238   C     0.97870   0.52887   0.20019   0.00000  Uiso   1.00
C239   C     0.97826   0.47075   0.13397   0.00000  Uiso   1.00
C240   C     0.68840   0.52925   0.19936   0.00000  Uiso   1.00
C241   C     0.95718   0.49971   0.16726   0.00000  Uiso   1.00
C242   C     0.70949   0.50029   0.16608   0.00000  Uiso   1.00
C243   C     0.80768   0.35820   0.13611   0.00000  Uiso   1.00
C244   C     0.85899   0.64180   0.19722   0.00000  Uiso   1.00
C245   C     0.85902   0.35804   0.19720   0.00000  Uiso   1.00
C246   C     0.80765   0.64196   0.13613   0.00000  Uiso   1.00
N247   N     0.83333   0.61736   0.16667   0.00000  Uiso   1.00
N248   N     0.83333   0.38264   0.16667   0.00000  Uiso   1.00
N249   N     0.70960   0.44432   0.09678   0.00000  Uiso   1.00
O250   O     0.70301   0.39967   0.09234   0.00000  Uiso   1.00
O251   O     0.73531   0.46475   0.06721   0.00000  Uiso   1.00
N252   N     0.95707   0.55568   0.23655   0.00000  Uiso   1.00
O253   O     0.96366   0.60033   0.24100   0.00000  Uiso   1.00
O254   O     0.93135   0.53525   0.26612   0.00000  Uiso   1.00
N255   N     0.95595   0.44370   0.09841   0.00000  Uiso   1.00
O256   O     0.93658   0.46459   0.06263   0.00000  Uiso   1.00
O257   O     0.95062   0.39911   0.10533   0.00000  Uiso   1.00
N258   N     0.71072   0.55630   0.23493   0.00000  Uiso   1.00
O259   O     0.73009   0.53541   0.27070   0.00000  Uiso   1.00
O260   O     0.71604   0.60089   0.22801   0.00000  Uiso   1.00
H261   H     0.78717   0.37691   0.11156   0.00000  Uiso   1.00
H262   H     0.87949   0.62309   0.22178   0.00000  Uiso   1.00
H263   H     0.87961   0.37663   0.22167   0.00000  Uiso   1.00
H264   H     0.78706   0.62337   0.11166   0.00000  Uiso   1.00
O265   O     0.10655   0.87291   0.16666   0.00000  Uiso   1.00
O266   O     0.22679   0.79375   0.16667   0.00000  Uiso   1.00
O267   O     0.22679   0.87291   0.16667   0.00000  Uiso   1.00
O268   O     0.10655   0.79375   0.16666   0.00000  Uiso   1.00
C269   C     0.08747   0.83339   0.16641   0.00000  Uiso   1.00
C270   C     0.24586   0.83327   0.16692   0.00000  Uiso   1.00
O271   O     0.16667   0.87292   0.09613   0.00000  Uiso   1.00
O272   O     0.16667   0.79375   0.23720   0.00000  Uiso   1.00
O273   O     0.16667   0.87292   0.23720   0.00000  Uiso   1.00
O274   O     0.16667   0.79375   0.09613   0.00000  Uiso   1.00
C275   C     0.16670   0.83335   0.07354   0.00000  Uiso   1.00
C276   C     0.16663   0.83332   0.25979   0.00000  Uiso   1.00
Cu277  Cu    0.16667   0.88022   0.16667   0.00000  Uiso   1.00
Cu278  Cu    0.16667   0.78645   0.16667   0.00000  Uiso   1.00
C279   C     0.16668   0.83335   0.02184   0.00000  Uiso   1.00
C280   C     0.16665   0.83331   0.31149   0.00000  Uiso   1.00
C281   C     0.02130   0.80446   0.13314   0.00000  Uiso   1.00
C282   C     0.31203   0.86220   0.20019   0.00000  Uiso   1.00
C283   C     0.31160   0.80408   0.13397   0.00000  Uiso   1.00
C284   C     0.02174   0.86259   0.19936   0.00000  Uiso   1.00
C285   C     0.29051   0.83304   0.16726   0.00000  Uiso   1.00
C286   C     0.04282   0.83362   0.16608   0.00000  Uiso   1.00
C287   C     0.14101   0.69153   0.13611   0.00000  Uiso   1.00
C288   C     0.19232   0.97513   0.19722   0.00000  Uiso   1.00
C289   C     0.19235   0.69138   0.19720   0.00000  Uiso   1.00
C290   C     0.14098   0.97529   0.13613   0.00000  Uiso   1.00
N291   N     0.16667   0.95069   0.16667   0.00000  Uiso   1.00
N292   N     0.16667   0.71598   0.16667   0.00000  Uiso   1.00
N293   N     0.04293   0.77765   0.09678   0.00000  Uiso   1.00
O294   O     0.03634   0.73300   0.09234   0.00000  Uiso   1.00
O295   O     0.06865   0.79808   0.06721   0.00000  Uiso   1.00
N296   N     0.29040   0.88901   0.23655   0.00000  Uiso   1.00
O297   O     0.29699   0.93366   0.24100   0.00000  Uiso   1.00
O298   O     0.26469   0.86858   0.26612   0.00000  Uiso   1.00
N299   N     0.28928   0.77704   0.09841   0.00000  Uiso   1.00
O300   O     0.26991   0.79792   0.06263   0.00000  Uiso   1.00
O301   O     0.28396   0.73244   0.10533   0.00000  Uiso   1.00
N302   N     0.04405   0.88963   0.23493   0.00000  Uiso   1.00
O303   O     0.06343   0.86874   0.27070   0.00000  Uiso   1.00
O304   O     0.04937   0.93422   0.22801   0.00000  Uiso   1.00
H305   H     0.12051   0.71024   0.11156   0.00000  Uiso   1.00
H306   H     0.21283   0.95642   0.22178   0.00000  Uiso   1.00
H307   H     0.21294   0.70996   0.22167   0.00000  Uiso   1.00
H308   H     0.12039   0.95670   0.11166   0.00000  Uiso   1.00
O309   O     0.43988   0.87291   0.16666   0.00000  Uiso   1.00
O310   O     0.56012   0.79375   0.16667   0.00000  Uiso   1.00
O311   O     0.56012   0.87291   0.16667   0.00000  Uiso   1.00
O312   O     0.43988   0.79375   0.16666   0.00000  Uiso   1.00
C313   C     0.42080   0.83339   0.16641   0.00000  Uiso   1.00
C314   C     0.57920   0.83327   0.16692   0.00000  Uiso   1.00
O315   O     0.50000   0.87292   0.09613   0.00000  Uiso   1.00
O316   O     0.50000   0.79375   0.23720   0.00000  Uiso   1.00
O317   O     0.50000   0.87292   0.23720   0.00000  Uiso   1.00
O318   O     0.50000   0.79375   0.09613   0.00000  Uiso   1.00
C319   C     0.50004   0.83335   0.07354   0.00000  Uiso   1.00
C320   C     0.49996   0.83332   0.25979   0.00000  Uiso   1.00
Cu321  Cu    0.50000   0.88022   0.16667   0.00000  Uiso   1.00
Cu322  Cu    0.50000   0.78645   0.16667   0.00000  Uiso   1.00
C323   C     0.50001   0.83335   0.02184   0.00000  Uiso   1.00
C324   C     0.49999   0.83331   0.31149   0.00000  Uiso   1.00
C325   C     0.35463   0.80446   0.13314   0.00000  Uiso   1.00
C326   C     0.64537   0.86220   0.20019   0.00000  Uiso   1.00
C327   C     0.64493   0.80408   0.13397   0.00000  Uiso   1.00
C328   C     0.35507   0.86259   0.19936   0.00000  Uiso   1.00
C329   C     0.62384   0.83304   0.16726   0.00000  Uiso   1.00
C330   C     0.37616   0.83362   0.16608   0.00000  Uiso   1.00
C331   C     0.47434   0.69153   0.13611   0.00000  Uiso   1.00
C332   C     0.52566   0.97513   0.19722   0.00000  Uiso   1.00
C333   C     0.52568   0.69138   0.19720   0.00000  Uiso   1.00
C334   C     0.47432   0.97529   0.13613   0.00000  Uiso   1.00
N335   N     0.50000   0.95069   0.16667   0.00000  Uiso   1.00
N336   N     0.50000   0.71598   0.16667   0.00000  Uiso   1.00
N337   N     0.37627   0.77765   0.09678   0.00000  Uiso   1.00
O338   O     0.36967   0.73300   0.09234   0.00000  Uiso   1.00
O339   O     0.40198   0.79808   0.06721   0.00000  Uiso   1.00
N340   N     0.62373   0.88901   0.23655   0.00000  Uiso   1.00
O341   O     0.63033   0.93366   0.24100   0.00000  Uiso   1.00
O342   O     0.59802   0.86858   0.26612   0.00000  Uiso   1.00
N343   N     0.62262   0.77704   0.09841   0.00000  Uiso   1.00
O344   O     0.60324   0.79792   0.06263   0.00000  Uiso   1.00
O345   O     0.61729   0.73244   0.10533   0.00000  Uiso   1.00
N346   N     0.37738   0.88963   0.23493   0.00000  Uiso   1.00
O347   O     0.39676   0.86874   0.27070   0.00000  Uiso   1.00
O348   O     0.38271   0.93422   0.22801   0.00000  Uiso   1.00
H349   H     0.45384   0.71024   0.11156   0.00000  Uiso   1.00
H350   H     0.54616   0.95642   0.22178   0.00000  Uiso   1.00
H351   H     0.54628   0.70996   0.22167   0.00000  Uiso   1.00
H352   H     0.45372   0.95670   0.11166   0.00000  Uiso   1.00
O353   O     0.77321   0.87291   0.16666   0.00000  Uiso   1.00
O354   O     0.89345   0.79375   0.16667   0.00000  Uiso   1.00
O355   O     0.89345   0.87291   0.16667   0.00000  Uiso   1.00
O356   O     0.77321   0.79375   0.16666   0.00000  Uiso   1.00
C357   C     0.75414   0.83339   0.16641   0.00000  Uiso   1.00
C358   C     0.91253   0.83327   0.16692   0.00000  Uiso   1.00
O359   O     0.83333   0.87292   0.09613   0.00000  Uiso   1.00
O360   O     0.83333   0.79375   0.23720   0.00000  Uiso   1.00
O361   O     0.83333   0.87292   0.23720   0.00000  Uiso   1.00
O362   O     0.83333   0.79375   0.09613   0.00000  Uiso   1.00
C363   C     0.83337   0.83335   0.07354   0.00000  Uiso   1.00
C364   C     0.83330   0.83332   0.25979   0.00000  Uiso   1.00
Cu365  Cu    0.83333   0.88022   0.16667   0.00000  Uiso   1.00
Cu366  Cu    0.83333   0.78645   0.16667   0.00000  Uiso   1.00
C367   C     0.83335   0.83335   0.02184   0.00000  Uiso   1.00
C368   C     0.83332   0.83331   0.31149   0.00000  Uiso   1.00
C369   C     0.68797   0.80446   0.13314   0.00000  Uiso   1.00
C370   C     0.97870   0.86220   0.20019   0.00000  Uiso   1.00
C371   C     0.97826   0.80408   0.13397   0.00000  Uiso   1.00
C372   C     0.68840   0.86259   0.19936   0.00000  Uiso   1.00
C373   C     0.95718   0.83304   0.16726   0.00000  Uiso   1.00
C374   C     0.70949   0.83362   0.16608   0.00000  Uiso   1.00
C375   C     0.80768   0.69153   0.13611   0.00000  Uiso   1.00
C376   C     0.85899   0.97513   0.19722   0.00000  Uiso   1.00
C377   C     0.85902   0.69138   0.19720   0.00000  Uiso   1.00
C378   C     0.80765   0.97529   0.13613   0.00000  Uiso   1.00
N379   N     0.83333   0.95069   0.16667   0.00000  Uiso   1.00
N380   N     0.83333   0.71598   0.16667   0.00000  Uiso   1.00
N381   N     0.70960   0.77765   0.09678   0.00000  Uiso   1.00
O382   O     0.70301   0.73300   0.09234   0.00000  Uiso   1.00
O383   O     0.73531   0.79808   0.06721   0.00000  Uiso   1.00
N384   N     0.95707   0.88901   0.23655   0.00000  Uiso   1.00
O385   O     0.96366   0.93366   0.24100   0.00000  Uiso   1.00
O386   O     0.93135   0.86858   0.26612   0.00000  Uiso   1.00
N387   N     0.95595   0.77704   0.09841   0.00000  Uiso   1.00
O388   O     0.93658   0.79792   0.06263   0.00000  Uiso   1.00
O389   O     0.95062   0.73244   0.10533   0.00000  Uiso   1.00
N390   N     0.71072   0.88963   0.23493   0.00000  Uiso   1.00
O391   O     0.73009   0.86874   0.27070   0.00000  Uiso   1.00
O392   O     0.71604   0.93422   0.22801   0.00000  Uiso   1.00
H393   H     0.78717   0.71024   0.11156   0.00000  Uiso   1.00
H394   H     0.87949   0.95642   0.22178   0.00000  Uiso   1.00
H395   H     0.87961   0.70996   0.22167   0.00000  Uiso   1.00
H396   H     0.78706   0.95670   0.11166   0.00000  Uiso   1.00
O397   O     0.10655   0.20625   0.50000   0.00000  Uiso   1.00
O398   O     0.22679   0.12709   0.50000   0.00000  Uiso   1.00
O399   O     0.22679   0.20625   0.50000   0.00000  Uiso   1.00
O400   O     0.10655   0.12709   0.50000   0.00000  Uiso   1.00
C401   C     0.08747   0.16673   0.49974   0.00000  Uiso   1.00
C402   C     0.24586   0.16661   0.50026   0.00000  Uiso   1.00
O403   O     0.16667   0.20625   0.42946   0.00000  Uiso   1.00
O404   O     0.16667   0.12708   0.57054   0.00000  Uiso   1.00
O405   O     0.16667   0.20625   0.57054   0.00000  Uiso   1.00
O406   O     0.16667   0.12708   0.42946   0.00000  Uiso   1.00
C407   C     0.16670   0.16668   0.40687   0.00000  Uiso   1.00
C408   C     0.16663   0.16665   0.59313   0.00000  Uiso   1.00
Cu409  Cu    0.16667   0.21355   0.50000   0.00000  Uiso   1.00
Cu410  Cu    0.16667   0.11978   0.50000   0.00000  Uiso   1.00
C411   C     0.16668   0.16669   0.35518   0.00000  Uiso   1.00
C412   C     0.16665   0.16665   0.64482   0.00000  Uiso   1.00
C413   C     0.02130   0.13780   0.46648   0.00000  Uiso   1.00
C414   C     0.31203   0.19554   0.53352   0.00000  Uiso   1.00
C415   C     0.31160   0.13741   0.46730   0.00000  Uiso   1.00
C416   C     0.02174   0.19592   0.53270   0.00000  Uiso   1.00
C417   C     0.29051   0.16638   0.50059   0.00000  Uiso   1.00
C418   C     0.04282   0.16696   0.49941   0.00000  Uiso   1.00
C419   C     0.14101   0.02486   0.46944   0.00000  Uiso   1.00
C420   C     0.19232   0.30847   0.53056   0.00000  Uiso   1.00
C421   C     0.19235   0.02471   0.53053   0.00000  Uiso   1.00
C422   C     0.14098   0.30862   0.46947   0.00000  Uiso   1.00
N423   N     0.16667   0.28402   0.50000   0.00000  Uiso   1.00
N424   N     0.16667   0.04931   0.50000   0.00000  Uiso   1.00
N425   N     0.04293   0.11099   0.43012   0.00000  Uiso   1.00
O426   O     0.03634   0.06633   0.42567   0.00000  Uiso   1.00
O427   O     0.06865   0.13142   0.40055   0.00000  Uiso   1.00
N428   N     0.29040   0.22234   0.56989   0.00000  Uiso   1.00
O429   O     0.29699   0.26700   0.57433   0.00000  Uiso   1.00
O430   O     0.26469   0.20191   0.59945   0.00000  Uiso   1.00
N431   N     0.28928   0.11037   0.43174   0.00000  Uiso   1.00
O432   O     0.26991   0.13126   0.39597   0.00000  Uiso   1.00
O433   O     0.28396   0.06578   0.43867   0.00000  Uiso   1.00
N434   N     0.04405   0.22296   0.56826   0.00000  Uiso   1.00
O435   O     0.06343   0.20207   0.60403   0.00000  Uiso   1.00
O436   O     0.04937   0.26755   0.56134   0.00000  Uiso   1.00
H437   H     0.12051   0.04358   0.44489   0.00000  Uiso   1.00
H438   H     0.21283   0.28976   0.55511   0.00000  Uiso   1.00
H439   H     0.21294   0.04329   0.55501   0.00000  Uiso   1.00
H440   H     0.12039   0.29004   0.44499   0.00000  Uiso   1.00
O441   O     0.43988   0.20625   0.50000   0.00000  Uiso   1.00
O442   O     0.56012   0.12709   0.50000   0.00000  Uiso   1.00
O443   O     0.56012   0.20625   0.50000   0.00000  Uiso   1.00
O444   O     0.43988   0.12709   0.50000   0.00000  Uiso   1.00
C445   C     0.42080   0.16673   0.49974   0.00000  Uiso   1.00
C446   C     0.57920   0.16661   0.50026   0.00000  Uiso   1.00
O447   O     0.50000   0.20625   0.42946   0.00000  Uiso   1.00
O448   O     0.50000   0.12708   0.57054   0.00000  Uiso   1.00
O449   O     0.50000   0.20625   0.57054   0.00000  Uiso   1.00
O450   O     0.50000   0.12708   0.42946   0.00000  Uiso   1.00
C451   C     0.50004   0.16668   0.40687   0.00000  Uiso   1.00
C452   C     0.49996   0.16665   0.59313   0.00000  Uiso   1.00
Cu453  Cu    0.50000   0.21355   0.50000   0.00000  Uiso   1.00
Cu454  Cu    0.50000   0.11978   0.50000   0.00000  Uiso   1.00
C455   C     0.50001   0.16669   0.35518   0.00000  Uiso   1.00
C456   C     0.49999   0.16665   0.64482   0.00000  Uiso   1.00
C457   C     0.35463   0.13780   0.46648   0.00000  Uiso   1.00
C458   C     0.64537   0.19554   0.53352   0.00000  Uiso   1.00
C459   C     0.64493   0.13741   0.46730   0.00000  Uiso   1.00
C460   C     0.35507   0.19592   0.53270   0.00000  Uiso   1.00
C461   C     0.62384   0.16638   0.50059   0.00000  Uiso   1.00
C462   C     0.37616   0.16696   0.49941   0.00000  Uiso   1.00
C463   C     0.47434   0.02486   0.46944   0.00000  Uiso   1.00
C464   C     0.52566   0.30847   0.53056   0.00000  Uiso   1.00
C465   C     0.52568   0.02471   0.53053   0.00000  Uiso   1.00
C466   C     0.47432   0.30862   0.46947   0.00000  Uiso   1.00
N467   N     0.50000   0.28402   0.50000   0.00000  Uiso   1.00
N468   N     0.50000   0.04931   0.50000   0.00000  Uiso   1.00
N469   N     0.37627   0.11099   0.43012   0.00000  Uiso   1.00
O470   O     0.36967   0.06633   0.42567   0.00000  Uiso   1.00
O471   O     0.40198   0.13142   0.40055   0.00000  Uiso   1.00
N472   N     0.62373   0.22234   0.56989   0.00000  Uiso   1.00
O473   O     0.63033   0.26700   0.57433   0.00000  Uiso   1.00
O474   O     0.59802   0.20191   0.59945   0.00000  Uiso   1.00
N475   N     0.62262   0.11037   0.43174   0.00000  Uiso   1.00
O476   O     0.60324   0.13126   0.39597   0.00000  Uiso   1.00
O477   O     0.61729   0.06578   0.43867   0.00000  Uiso   1.00
N478   N     0.37738   0.22296   0.56826   0.00000  Uiso   1.00
O479   O     0.39676   0.20207   0.60403   0.00000  Uiso   1.00
O480   O     0.38271   0.26755   0.56134   0.00000  Uiso   1.00
H481   H     0.45384   0.04358   0.44489   0.00000  Uiso   1.00
H482   H     0.54616   0.28976   0.55511   0.00000  Uiso   1.00
H483   H     0.54628   0.04329   0.55501   0.00000  Uiso   1.00
H484   H     0.45372   0.29004   0.44499   0.00000  Uiso   1.00
O485   O     0.77321   0.20625   0.50000   0.00000  Uiso   1.00
O486   O     0.89345   0.12709   0.50000   0.00000  Uiso   1.00
O487   O     0.89345   0.20625   0.50000   0.00000  Uiso   1.00
O488   O     0.77321   0.12709   0.50000   0.00000  Uiso   1.00
C489   C     0.75414   0.16673   0.49974   0.00000  Uiso   1.00
C490   C     0.91253   0.16661   0.50026   0.00000  Uiso   1.00
O491   O     0.83333   0.20625   0.42946   0.00000  Uiso   1.00
O492   O     0.83333   0.12708   0.57054   0.00000  Uiso   1.00
O493   O     0.83333   0.20625   0.57054   0.00000  Uiso   1.00
O494   O     0.83333   0.12708   0.42946   0.00000  Uiso   1.00
C495   C     0.83337   0.16668   0.40687   0.00000  Uiso   1.00
C496   C     0.83330   0.16665   0.59313   0.00000  Uiso   1.00
Cu497  Cu    0.83333   0.21355   0.50000   0.00000  Uiso   1.00
Cu498  Cu    0.83333   0.11978   0.50000   0.00000  Uiso   1.00
C499   C     0.83335   0.16669   0.35518   0.00000  Uiso   1.00
C500   C     0.83332   0.16665   0.64482   0.00000  Uiso   1.00
C501   C     0.68797   0.13780   0.46648   0.00000  Uiso   1.00
C502   C     0.97870   0.19554   0.53352   0.00000  Uiso   1.00
C503   C     0.97826   0.13741   0.46730   0.00000  Uiso   1.00
C504   C     0.68840   0.19592   0.53270   0.00000  Uiso   1.00
C505   C     0.95718   0.16638   0.50059   0.00000  Uiso   1.00
C506   C     0.70949   0.16696   0.49941   0.00000  Uiso   1.00
C507   C     0.80768   0.02486   0.46944   0.00000  Uiso   1.00
C508   C     0.85899   0.30847   0.53056   0.00000  Uiso   1.00
C509   C     0.85902   0.02471   0.53053   0.00000  Uiso   1.00
C510   C     0.80765   0.30862   0.46947   0.00000  Uiso   1.00
N511   N     0.83333   0.28402   0.50000   0.00000  Uiso   1.00
N512   N     0.83333   0.04931   0.50000   0.00000  Uiso   1.00
N513   N     0.70960   0.11099   0.43012   0.00000  Uiso   1.00
O514   O     0.70301   0.06633   0.42567   0.00000  Uiso   1.00
O515   O     0.73531   0.13142   0.40055   0.00000  Uiso   1.00
N516   N     0.95707   0.22234   0.56989   0.00000  Uiso   1.00
O517   O     0.96366   0.26700   0.57433   0.00000  Uiso   1.00
O518   O     0.93135   0.20191   0.59945   0.00000  Uiso   1.00
N519   N     0.95595   0.11037   0.43174   0.00000  Uiso   1.00
O520   O     0.93658   0.13126   0.39597   0.00000  Uiso   1.00
O521   O     0.95062   0.06578   0.43867   0.00000  Uiso   1.00
N522   N     0.71072   0.22296   0.56826   0.00000  Uiso   1.00
O523   O     0.73009   0.20207   0.60403   0.00000  Uiso   1.00
O524   O     0.71604   0.26755   0.56134   0.00000  Uiso   1.00
H525   H     0.78717   0.04358   0.44489   0.00000  Uiso   1.00
H526   H     0.87949   0.28976   0.55511   0.00000  Uiso   1.00
H527   H     0.87961   0.04329   0.55501   0.00000  Uiso   1.00
H528   H     0.78706   0.29004   0.44499   0.00000  Uiso   1.00
O529   O     0.10655   0.53958   0.50000   0.00000  Uiso   1.00
O530   O     0.22679   0.46042   0.50000   0.00000  Uiso   1.00
O531   O     0.22679   0.53958   0.50000   0.00000  Uiso   1.00
O532   O     0.10655   0.46042   0.50000   0.00000  Uiso   1.00
C533   C     0.08747   0.50006   0.49974   0.00000  Uiso   1.00
C534   C     0.24586   0.49994   0.50026   0.00000  Uiso   1.00
O535   O     0.16667   0.53959   0.42946   0.00000  Uiso   1.00
O536   O     0.16667   0.46041   0.57054   0.00000  Uiso   1.00
O537   O     0.16667   0.53959   0.57054   0.00000  Uiso   1.00
O538   O     0.16667   0.46041   0.42946   0.00000  Uiso   1.00
C539   C     0.16670   0.50001   0.40687   0.00000  Uiso   1.00
C540   C     0.16663   0.49999   0.59313   0.00000  Uiso   1.00
Cu541  Cu    0.16667   0.54689   0.50000   0.00000  Uiso   1.00
Cu542  Cu    0.16667   0.45311   0.50000   0.00000  Uiso   1.00
C543   C     0.16668   0.50002   0.35518   0.00000  Uiso   1.00
C544   C     0.16665   0.49998   0.64482   0.00000  Uiso   1.00
C545   C     0.02130   0.47113   0.46648   0.00000  Uiso   1.00
C546   C     0.31203   0.52887   0.53352   0.00000  Uiso   1.00
C547   C     0.31160   0.47075   0.46730   0.00000  Uiso   1.00
C548   C     0.02174   0.52925   0.53270   0.00000  Uiso   1.00
C549   C     0.29051   0.49971   0.50059   0.00000  Uiso   1.00
C550   C     0.04282   0.50029   0.49941   0.00000  Uiso   1.00
C551   C     0.14101   0.35820   0.46944   0.00000  Uiso   1.00
C552   C     0.19232   0.64180   0.53056   0.00000  Uiso   1.00
C553   C     0.19235   0.35804   0.53053   0.00000  Uiso   1.00
C554   C     0.14098   0.64196   0.46947   0.00000  Uiso   1.00
N555   N     0.16667   0.61736   0.50000   0.00000  Uiso   1.00
N556   N     0.16667   0.38264   0.50000   0.00000  Uiso   1.00
N557   N     0.04293   0.44432   0.43012   0.00000  Uiso   1.00
O558   O     0.03634   0.39967   0.42567   0.00000  Uiso   1.00
O559   O     0.06865   0.46475   0.40055   0.00000  Uiso   1.00
N560   N     0.29040   0.55568   0.56989   0.00000  Uiso   1.00
O561   O     0.29699   0.60033   0.57433   0.00000  Uiso   1.00
O562   O     0.26469   0.53525   0.59945   0.00000  Uiso   1.00
N563   N     0.28928   0.44370   0.43174   0.00000  Uiso   1.00
O564   O     0.26991   0.46459   0.39597   0.00000  Uiso   1.00
O565   O     0.28396   0.39911   0.43867   0.00000  Uiso   1.00
N566   N     0.04405   0.55630   0.56826   0.00000  Uiso   1.00
O567   O     0.06343   0.53541   0.60403   0.00000  Uiso   1.00
O568   O     0.04937   0.60089   0.56134   0.00000  Uiso   1.00
H569   H     0.12051   0.37691   0.44489   0.00000  Uiso   1.00
H570   H     0.21283   0.62309   0.55511   0.00000  Uiso   1.00
H571   H     0.21294   0.37663   0.55501   0.00000  Uiso   1.00
H572   H     0.12039   0.62337   0.44499   0.00000  Uiso   1.00
O573   O     0.43988   0.53958   0.50000   0.00000  Uiso   1.00
O574   O     0.56012   0.46042   0.50000   0.00000  Uiso   1.00
O575   O     0.56012   0.53958   0.50000   0.00000  Uiso   1.00
O576   O     0.43988   0.46042   0.50000   0.00000  Uiso   1.00
C577   C     0.42080   0.50006   0.49974   0.00000  Uiso   1.00
C578   C     0.57920   0.49994   0.50026   0.00000  Uiso   1.00
O579   O     0.50000   0.53959   0.42946   0.00000  Uiso   1.00
O580   O     0.50000   0.46041   0.57054   0.00000  Uiso   1.00
O581   O     0.50000   0.53959   0.57054   0.00000  Uiso   1.00
O582   O     0.50000   0.46041   0.42946   0.00000  Uiso   1.00
C583   C     0.50004   0.50001   0.40687   0.00000  Uiso   1.00
C584   C     0.49996   0.49999   0.59313   0.00000  Uiso   1.00
Cu585  Cu    0.50000   0.54689   0.50000   0.00000  Uiso   1.00
Cu586  Cu    0.50000   0.45311   0.50000   0.00000  Uiso   1.00
C587   C     0.50001   0.50002   0.35518   0.00000  Uiso   1.00
C588   C     0.49999   0.49998   0.64482   0.00000  Uiso   1.00
C589   C     0.35463   0.47113   0.46648   0.00000  Uiso   1.00
C590   C     0.64537   0.52887   0.53352   0.00000  Uiso   1.00
C591   C     0.64493   0.47075   0.46730   0.00000  Uiso   1.00
C592   C     0.35507   0.52925   0.53270   0.00000  Uiso   1.00
C593   C     0.62384   0.49971   0.50059   0.00000  Uiso   1.00
C594   C     0.37616   0.50029   0.49941   0.00000  Uiso   1.00
C595   C     0.47434   0.35820   0.46944   0.00000  Uiso   1.00
C596   C     0.52566   0.64180   0.53056   0.00000  Uiso   1.00
C597   C     0.52568   0.35804   0.53053   0.00000  Uiso   1.00
C598   C     0.47432   0.64196   0.46947   0.00000  Uiso   1.00
N599   N     0.50000   0.61736   0.50000   0.00000  Uiso   1.00
N600   N     0.50000   0.38264   0.50000   0.00000  Uiso   1.00
N601   N     0.37627   0.44432   0.43012   0.00000  Uiso   1.00
O602   O     0.36967   0.39967   0.42567   0.00000  Uiso   1.00
O603   O     0.40198   0.46475   0.40055   0.00000  Uiso   1.00
N604   N     0.62373   0.55568   0.56989   0.00000  Uiso   1.00
O605   O     0.63033   0.60033   0.57433   0.00000  Uiso   1.00
O606   O     0.59802   0.53525   0.59945   0.00000  Uiso   1.00
N607   N     0.62262   0.44370   0.43174   0.00000  Uiso   1.00
O608   O     0.60324   0.46459   0.39597   0.00000  Uiso   1.00
O609   O     0.61729   0.39911   0.43867   0.00000  Uiso   1.00
N610   N     0.37738   0.55630   0.56826   0.00000  Uiso   1.00
O611   O     0.39676   0.53541   0.60403   0.00000  Uiso   1.00
O612   O     0.38271   0.60089   0.56134   0.00000  Uiso   1.00
H613   H     0.45384   0.37691   0.44489   0.00000  Uiso   1.00
H614   H     0.54616   0.62309   0.55511   0.00000  Uiso   1.00
H615   H     0.54628   0.37663   0.55501   0.00000  Uiso   1.00
H616   H     0.45372   0.62337   0.44499   0.00000  Uiso   1.00
O617   O     0.77321   0.53958   0.50000   0.00000  Uiso   1.00
O618   O     0.89345   0.46042   0.50000   0.00000  Uiso   1.00
O619   O     0.89345   0.53958   0.50000   0.00000  Uiso   1.00
O620   O     0.77321   0.46042   0.50000   0.00000  Uiso   1.00
C621   C     0.75414   0.50006   0.49974   0.00000  Uiso   1.00
C622   C     0.91253   0.49994   0.50026   0.00000  Uiso   1.00
O623   O     0.83333   0.53959   0.42946   0.00000  Uiso   1.00
O624   O     0.83333   0.46041   0.57054   0.00000  Uiso   1.00
O625   O     0.83333   0.53959   0.57054   0.00000  Uiso   1.00
O626   O     0.83333   0.46041   0.42946   0.00000  Uiso   1.00
C627   C     0.83337   0.50001   0.40687   0.00000  Uiso   1.00
C628   C     0.83330   0.49999   0.59313   0.00000  Uiso   1.00
Cu629  Cu    0.83333   0.54689   0.50000   0.00000  Uiso   1.00
Cu630  Cu    0.83333   0.45311   0.50000   0.00000  Uiso   1.00
C631   C     0.83335   0.50002   0.35518   0.00000  Uiso   1.00
C632   C     0.83332   0.49998   0.64482   0.00000  Uiso   1.00
C633   C     0.68797   0.47113   0.46648   0.00000  Uiso   1.00
C634   C     0.97870   0.52887   0.53352   0.00000  Uiso   1.00
C635   C     0.97826   0.47075   0.46730   0.00000  Uiso   1.00
C636   C     0.68840   0.52925   0.53270   0.00000  Uiso   1.00
C637   C     0.95718   0.49971   0.50059   0.00000  Uiso   1.00
C638   C     0.70949   0.50029   0.49941   0.00000  Uiso   1.00
C639   C     0.80768   0.35820   0.46944   0.00000  Uiso   1.00
C640   C     0.85899   0.64180   0.53056   0.00000  Uiso   1.00
C641   C     0.85902   0.35804   0.53053   0.00000  Uiso   1.00
C642   C     0.80765   0.64196   0.46947   0.00000  Uiso   1.00
N643   N     0.83333   0.61736   0.50000   0.00000  Uiso   1.00
N644   N     0.83333   0.38264   0.50000   0.00000  Uiso   1.00
N645   N     0.70960   0.44432   0.43012   0.00000  Uiso   1.00
O646   O     0.70301   0.39967   0.42567   0.00000  Uiso   1.00
O647   O     0.73531   0.46475   0.40055   0.00000  Uiso   1.00
N648   N     0.95707   0.55568   0.56989   0.00000  Uiso   1.00
O649   O     0.96366   0.60033   0.57433   0.00000  Uiso   1.00
O650   O     0.93135   0.53525   0.59945   0.00000  Uiso   1.00
N651   N     0.95595   0.44370   0.43174   0.00000  Uiso   1.00
O652   O     0.93658   0.46459   0.39597   0.00000  Uiso   1.00
O653   O     0.95062   0.39911   0.43867   0.00000  Uiso   1.00
N654   N     0.71072   0.55630   0.56826   0.00000  Uiso   1.00
O655   O     0.73009   0.53541   0.60403   0.00000  Uiso   1.00
O656   O     0.71604   0.60089   0.56134   0.00000  Uiso   1.00
H657   H     0.78717   0.37691   0.44489   0.00000  Uiso   1.00
H658   H     0.87949   0.62309   0.55511   0.00000  Uiso   1.00
H659   H     0.87961   0.37663   0.55501   0.00000  Uiso   1.00
H660   H     0.78706   0.62337   0.44499   0.00000  Uiso   1.00
O661   O     0.10655   0.87291   0.50000   0.00000  Uiso   1.00
O662   O     0.22679   0.79375   0.50000   0.00000  Uiso   1.00
O663   O     0.22679   0.87291   0.50000   0.00000  Uiso   1.00
O664   O     0.10655   0.79375   0.50000   0.00000  Uiso   1.00
C665   C     0.08747   0.83339   0.49974   0.00000  Uiso   1.00
C666   C     0.24586   0.83327   0.50026   0.00000  Uiso   1.00
O667   O     0.16667   0.87292   0.42946   0.00000  Uiso   1.00
O668   O     0.16667   0.79375   0.57054   0.00000  Uiso   1.00
O669   O     0.16667   0.87292   0.57054   0.00000  Uiso   1.00
O670   O     0.16667   0.79375   0.42946   0.00000  Uiso   1.00
C671   C     0.16670   0.83335   0.40687   0.00000  Uiso   1.00
C672   C     0.16663   0.83332   0.59313   0.00000  Uiso   1.00
Cu673  Cu    0.16667   0.88022   0.50000   0.00000  Uiso   1.00
Cu674  Cu    0.16667   0.78645   0.50000   0.00000  Uiso   1.00
C675   C     0.16668   0.83335   0.35518   0.00000  Uiso   1.00
C676   C     0.16665   0.83331   0.64482   0.00000  Uiso   1.00
C677   C     0.02130   0.80446   0.46648   0.00000  Uiso   1.00
C678   C     0.31203   0.86220   0.53352   0.00000  Uiso   1.00
C679   C     0.31160   0.80408   0.46730   0.00000  Uiso   1.00
C680   C     0.02174   0.86259   0.53270   0.00000  Uiso   1.00
C681   C     0.29051   0.83304   0.50059   0.00000  Uiso   1.00
C682   C     0.04282   0.83362   0.49941   0.00000  Uiso   1.00
C683   C     0.14101   0.69153   0.46944   0.00000  Uiso   1.00
C684   C     0.19232   0.97513   0.53056   0.00000  Uiso   1.00
C685   C     0.19235   0.69138   0.53053   0.00000  Uiso   1.00
C686   C     0.14098   0.97529   0.46947   0.00000  Uiso   1.00
N687   N     0.16667   0.95069   0.50000   0.00000  Uiso   1.00
N688   N     0.16667   0.71598   0.50000   0.00000  Uiso   1.00
N689   N     0.04293   0.77765   0.43012   0.00000  Uiso   1.00
O690   O     0.03634   0.73300   0.42567   0.00000  Uiso   1.00
O691   O     0.06865   0.79808   0.40055   0.00000  Uiso   1.00
N692   N     0.29040   0.88901   0.56989   0.00000  Uiso   1.00
O693   O     0.29699   0.93366   0.57433   0.00000  Uiso   1.00
O694   O     0.26469   0.86858   0.59945   0.00000  Uiso   1.00
N695   N     0.28928   0.77704   0.43174   0.00000  Uiso   1.00
O696   O     0.26991   0.79792   0.39597   0.00000  Uiso   1.00
O697   O     0.28396   0.73244   0.43867   0.00000  Uiso   1.00
N698   N     0.04405   0.88963   0.56826   0.00000  Uiso   1.00
O699   O     0.06343   0.86874   0.60403   0.00000  Uiso   1.00
O700   O     0.04937   0.93422   0.56134   0.00000  Uiso   1.00
H701   H     0.12051   0.71024   0.44489   0.00000  Uiso   1.00
H702   H     0.21283   0.95642   0.55511   0.00000  Uiso   1.00
H703   H     0.21294   0.70996   0.55501   0.00000  Uiso   1.00
H704   H     0.12039   0.95670   0.44499   0.00000  Uiso   1.00
O705   O     0.43988   0.87291   0.50000   0.00000  Uiso   1.00
O706   O     0.56012   0.79375   0.50000   0.00000  Uiso   1.00
O707   O     0.56012   0.87291   0.50000   0.00000  Uiso   1.00
O708   O     0.43988   0.79375   0.50000   0.00000  Uiso   1.00
C709   C     0.42080   0.83339   0.49974   0.00000  Uiso   1.00
C710   C     0.57920   0.83327   0.50026   0.00000  Uiso   1.00
O711   O     0.50000   0.87292   0.42946   0.00000  Uiso   1.00
O712   O     0.50000   0.79375   0.57054   0.00000  Uiso   1.00
O713   O     0.50000   0.87292   0.57054   0.00000  Uiso   1.00
O714   O     0.50000   0.79375   0.42946   0.00000  Uiso   1.00
C715   C     0.50004   0.83335   0.40687   0.00000  Uiso   1.00
C716   C     0.49996   0.83332   0.59313   0.00000  Uiso   1.00
Cu717  Cu    0.50000   0.88022   0.50000   0.00000  Uiso   1.00
Cu718  Cu    0.50000   0.78645   0.50000   0.00000  Uiso   1.00
C719   C     0.50001   0.83335   0.35518   0.00000  Uiso   1.00
C720   C     0.49999   0.83331   0.64482   0.00000  Uiso   1.00
C721   C     0.35463   0.80446   0.46648   0.00000  Uiso   1.00
C722   C     0.64537   0.86220   0.53352   0.00000  Uiso   1.00
C723   C     0.64493   0.80408   0.46730   0.00000  Uiso   1.00
C724   C     0.35507   0.86259   0.53270   0.00000  Uiso   1.00
C725   C     0.62384   0.83304   0.50059   0.00000  Uiso   1.00
C726   C     0.37616   0.83362   0.49941   0.00000  Uiso   1.00
C727   C     0.47434   0.69153   0.46944   0.00000  Uiso   1.00
C728   C     0.52566   0.97513   0.53056   0.00000  Uiso   1.00
C729   C     0.52568   0.69138   0.53053   0.00000  Uiso   1.00
C730   C     0.47432   0.97529   0.46947   0.00000  Uiso   1.00
N731   N     0.50000   0.95069   0.50000   0.00000  Uiso   1.00
N732   N     0.50000   0.71598   0.50000   0.00000  Uiso   1.00
N733   N     0.37627   0.77765   0.43012   0.00000  Uiso   1.00
O734   O     0.36967   0.73300   0.42567   0.00000  Uiso   1.00
O735   O     0.40198   0.79808   0.40055   0.00000  Uiso   1.00
N736   N     0.62373   0.88901   0.56989   0.00000  Uiso   1.00
O737   O     0.63033   0.93366   0.57433   0.00000  Uiso   1.00
O738   O     0.59802   0.86858   0.59945   0.00000  Uiso   1.00
N739   N     0.62262   0.77704   0.43174   0.00000  Uiso   1.00
O740   O     0.60324   0.79792   0.39597   0.00000  Uiso   1.00
O741   O     0.61729   0.73244   0.43867   0.00000  Uiso   1.00
N742   N     0.37738   0.88963   0.56826   0.00000  Uiso   1.00
O743   O     0.39676   0.86874   0.60403   0.00000  Uiso   1.00
O744   O     0.38271   0.93422   0.56134   0.00000  Uiso   1.00
H745   H     0.45384   0.71024   0.44489   0.00000  Uiso   1.00
H746   H     0.54616   0.95642   0.55511   0.00000  Uiso   1.00
H747   H     0.54628   0.70996   0.55501   0.00000  Uiso   1.00
H748   H     0.45372   0.95670   0.44499   0.00000  Uiso   1.00
O749   O     0.77321   0.87291   0.50000   0.00000  Uiso   1.00
O750   O     0.89345   0.79375   0.50000   0.00000  Uiso   1.00
O751   O     0.89345   0.87291   0.50000   0.00000  Uiso   1.00
O752   O     0.77321   0.79375   0.50000   0.00000  Uiso   1.00
C753   C     0.75414   0.83339   0.49974   0.00000  Uiso   1.00
C754   C     0.91253   0.83327   0.50026   0.00000  Uiso   1.00
O755   O     0.83333   0.87292   0.42946   0.00000  Uiso   1.00
O756   O     0.83333   0.79375   0.57054   0.00000  Uiso   1.00
O757   O     0.83333   0.87292   0.57054   0.00000  Uiso   1.00
O758   O     0.83333   0.79375   0.42946   0.00000  Uiso   1.00
C759   C     0.83337   0.83335   0.40687   0.00000  Uiso   1.00
C760   C     0.83330   0.83332   0.59313   0.00000  Uiso   1.00
Cu761  Cu    0.83333   0.88022   0.50000   0.00000  Uiso   1.00
Cu762  Cu    0.83333   0.78645   0.50000   0.00000  Uiso   1.00
C763   C     0.83335   0.83335   0.35518   0.00000  Uiso   1.00
C764   C     0.83332   0.83331   0.64482   0.00000  Uiso   1.00
C765   C     0.68797   0.80446   0.46648   0.00000  Uiso   1.00
C766   C     0.97870   0.86220   0.53352   0.00000  Uiso   1.00
C767   C     0.97826   0.80408   0.46730   0.00000  Uiso   1.00
C768   C     0.68840   0.86259   0.53270   0.00000  Uiso   1.00
C769   C     0.95718   0.83304   0.50059   0.00000  Uiso   1.00
C770   C     0.70949   0.83362   0.49941   0.00000  Uiso   1.00
C771   C     0.80768   0.69153   0.46944   0.00000  Uiso   1.00
C772   C     0.85899   0.97513   0.53056   0.00000  Uiso   1.00
C773   C     0.85902   0.69138   0.53053   0.00000  Uiso   1.00
C774   C     0.80765   0.97529   0.46947   0.00000  Uiso   1.00
N775   N     0.83333   0.95069   0.50000   0.00000  Uiso   1.00
N776   N     0.83333   0.71598   0.50000   0.00000  Uiso   1.00
N777   N     0.70960   0.77765   0.43012   0.00000  Uiso   1.00
O778   O     0.70301   0.73300   0.42567   0.00000  Uiso   1.00
O779   O     0.73531   0.79808   0.40055   0.00000  Uiso   1.00
N780   N     0.95707   0.88901   0.56989   0.00000  Uiso   1.00
O781   O     0.96366   0.93366   0.57433   0.00000  Uiso   1.00
O782   O     0.93135   0.86858   0.59945   0.00000  Uiso   1.00
N783   N     0.95595   0.77704   0.43174   0.00000  Uiso   1.00
O784   O     0.93658   0.79792   0.39597   0.00000  Uiso   1.00
O785   O     0.95062   0.73244   0.43867   0.00000  Uiso   1.00
N786   N     0.71072   0.88963   0.56826   0.00000  Uiso   1.00
O787   O     0.73009   0.86874   0.60403   0.00000  Uiso   1.00
O788   O     0.71604   0.93422   0.56134   0.00000  Uiso   1.00
H789   H     0.78717   0.71024   0.44489   0.00000  Uiso   1.00
H790   H     0.87949   0.95642   0.55511   0.00000  Uiso   1.00
H791   H     0.87961   0.70996   0.55501   0.00000  Uiso   1.00
H792   H     0.78706   0.95670   0.44499   0.00000  Uiso   1.00
O793   O     0.10655   0.20625   0.83333   0.00000  Uiso   1.00
O794   O     0.22679   0.12709   0.83334   0.00000  Uiso   1.00
O795   O     0.22679   0.20625   0.83334   0.00000  Uiso   1.00
O796   O     0.10655   0.12709   0.83333   0.00000  Uiso   1.00
C797   C     0.08747   0.16673   0.83308   0.00000  Uiso   1.00
C798   C     0.24586   0.16661   0.83359   0.00000  Uiso   1.00
O799   O     0.16667   0.20625   0.76280   0.00000  Uiso   1.00
O800   O     0.16667   0.12708   0.90387   0.00000  Uiso   1.00
O801   O     0.16667   0.20625   0.90387   0.00000  Uiso   1.00
O802   O     0.16667   0.12708   0.76280   0.00000  Uiso   1.00
C803   C     0.16670   0.16668   0.74021   0.00000  Uiso   1.00
C804   C     0.16663   0.16665   0.92646   0.00000  Uiso   1.00
Cu805  Cu    0.16667   0.21355   0.83333   0.00000  Uiso   1.00
Cu806  Cu    0.16667   0.11978   0.83333   0.00000  Uiso   1.00
C807   C     0.16668   0.16669   0.68851   0.00000  Uiso   1.00
C808   C     0.16665   0.16665   0.97816   0.00000  Uiso   1.00
C809   C     0.02130   0.13780   0.79981   0.00000  Uiso   1.00
C810   C     0.31203   0.19554   0.86686   0.00000  Uiso   1.00
C811   C     0.31160   0.13741   0.80064   0.00000  Uiso   1.00
C812   C     0.02174   0.19592   0.86603   0.00000  Uiso   1.00
C813   C     0.29051   0.16638   0.83392   0.00000  Uiso   1.00
C814   C     0.04282   0.16696   0.83274   0.00000  Uiso   1.00
C815   C     0.14101   0.02486   0.80278   0.00000  Uiso   1.00
C816   C     0.19232   0.30847   0.86389   0.00000  Uiso   1.00
C817   C     0.19235   0.02471   0.86387   0.00000  Uiso   1.00
C818   C     0.14098   0.30862   0.80280   0.00000  Uiso   1.00
N819   N     0.16667   0.28402   0.83333   0.00000  Uiso   1.00
N820   N     0.16667   0.04931   0.83333   0.00000  Uiso   1.00
N821   N     0.04293   0.11099   0.76345   0.00000  Uiso   1.00
O822   O     0.03634   0.06633   0.75900   0.00000  Uiso   1.00
O823   O     0.06865   0.13142   0.73388   0.00000  Uiso   1.00
N824   N     0.29040   0.22234   0.90322   0.00000  Uiso   1.00
O825   O     0.29699   0.26700   0.90766   0.00000  Uiso   1.00
O826   O     0.26469   0.20191   0.93279   0.00000  Uiso   1.00
N827   N     0.28928   0.11037   0.76507   0.00000  Uiso   1.00
O828   O     0.26991   0.13126   0.72930   0.00000  Uiso   1.00
O829   O     0.28396   0.06578   0.77200   0.00000  Uiso   1.00
N830   N     0.04405   0.22296   0.90159   0.00000  Uiso   1.00
O831   O     0.06343   0.20207   0.93737   0.00000  Uiso   1.00
O832   O     0.04937   0.26755   0.89467   0.00000  Uiso   1.00
H833   H     0.12051   0.04358   0.77823   0.00000  Uiso   1.00
H834   H     0.21283   0.28976   0.88844   0.00000  Uiso   1.00
H835   H     0.21294   0.04329   0.88834   0.00000  Uiso   1.00
H836   H     0.12039   0.29004   0.77833   0.00000  Uiso   1.00
O837   O     0.43988   0.20625   0.83333   0.00000  Uiso   1.00
O838   O     0.56012   0.12709   0.83334   0.00000  Uiso   1.00
O839   O     0.56012   0.20625   0.83334   0.00000  Uiso   1.00
O840   O     0.43988   0.12709   0.83333   0.00000  Uiso   1.00
C841   C     0.42080   0.16673   0.83308   0.00000  Uiso   1.00
C842   C     0.57920   0.16661   0.83359   0.00000  Uiso   1.00
O843   O     0.50000   0.20625   0.76280   0.00000  Uiso   1.00
O844   O     0.50000   0.12708   0.90387   0.00000  Uiso   1.00
O845   O     0.50000   0.20625   0.90387   0.00000  Uiso   1.00
O846   O     0.50000   0.12708   0.76280   0.00000  Uiso   1.00
C847   C     0.50004   0.16668   0.74021   0.00000  Uiso   1.00
C848   C     0.49996   0.16665   0.92646   0.00000  Uiso   1.00
Cu849  Cu    0.50000   0.21355   0.83333   0.00000  Uiso   1.00
Cu850  Cu    0.50000   0.11978   0.83333   0.00000  Uiso   1.00
C851   C     0.50001   0.16669   0.68851   0.00000  Uiso   1.00
C852   C     0.49999   0.16665   0.97816   0.00000  Uiso   1.00
C853   C     0.35463   0.13780   0.79981   0.00000  Uiso   1.00
C854   C     0.64537   0.19554   0.86686   0.00000  Uiso   1.00
C855   C     0.64493   0.13741   0.80064   0.00000  Uiso   1.00
C856   C     0.35507   0.19592   0.86603   0.00000  Uiso   1.00
C857   C     0.62384   0.16638   0.83392   0.00000  Uiso   1.00
C858   C     0.37616   0.16696   0.83274   0.00000  Uiso   1.00
C859   C     0.47434   0.02486   0.80278   0.00000  Uiso   1.00
C860   C     0.52566   0.30847   0.86389   0.00000  Uiso   1.00
C861   C     0.52568   0.02471   0.86387   0.00000  Uiso   1.00
C862   C     0.47432   0.30862   0.80280   0.00000  Uiso   1.00
N863   N     0.50000   0.28402   0.83333   0.00000  Uiso   1.00
N864   N     0.50000   0.04931   0.83333   0.00000  Uiso   1.00
N865   N     0.37627   0.11099   0.76345   0.00000  Uiso   1.00
O866   O     0.36967   0.06633   0.75900   0.00000  Uiso   1.00
O867   O     0.40198   0.13142   0.73388   0.00000  Uiso   1.00
N868   N     0.62373   0.22234   0.90322   0.00000  Uiso   1.00
O869   O     0.63033   0.26700   0.90766   0.00000  Uiso   1.00
O870   O     0.59802   0.20191   0.93279   0.00000  Uiso   1.00
N871   N     0.62262   0.11037   0.76507   0.00000  Uiso   1.00
O872   O     0.60324   0.13126   0.72930   0.00000  Uiso   1.00
O873   O     0.61729   0.06578   0.77200   0.00000  Uiso   1.00
N874   N     0.37738   0.22296   0.90159   0.00000  Uiso   1.00
O875   O     0.39676   0.20207   0.93737   0.00000  Uiso   1.00
O876   O     0.38271   0.26755   0.89467   0.00000  Uiso   1.00
H877   H     0.45384   0.04358   0.77823   0.00000  Uiso   1.00
H878   H     0.54616   0.28976   0.88844   0.00000  Uiso   1.00
H879   H     0.54628   0.04329   0.88834   0.00000  Uiso   1.00
H880   H     0.45372   0.29004   0.77833   0.00000  Uiso   1.00
O881   O     0.77321   0.20625   0.83333   0.00000  Uiso   1.00
O882   O     0.89345   0.12709   0.83334   0.00000  Uiso   1.00
O883   O     0.89345   0.20625   0.83334   0.00000  Uiso   1.00
O884   O     0.77321   0.12709   0.83333   0.00000  Uiso   1.00
C885   C     0.75414   0.16673   0.83308   0.00000  Uiso   1.00
C886   C     0.91253   0.16661   0.83359   0.00000  Uiso   1.00
O887   O     0.83333   0.20625   0.76280   0.00000  Uiso   1.00
O888   O     0.83333   0.12708   0.90387   0.00000  Uiso   1.00
O889   O     0.83333   0.20625   0.90387   0.00000  Uiso   1.00
O890   O     0.83333   0.12708   0.76280   0.00000  Uiso   1.00
C891   C     0.83337   0.16668   0.74021   0.00000  Uiso   1.00
C892   C     0.83330   0.16665   0.92646   0.00000  Uiso   1.00
Cu893  Cu    0.83333   0.21355   0.83333   0.00000  Uiso   1.00
Cu894  Cu    0.83333   0.11978   0.83333   0.00000  Uiso   1.00
C895   C     0.83335   0.16669   0.68851   0.00000  Uiso   1.00
C896   C     0.83332   0.16665   0.97816   0.00000  Uiso   1.00
C897   C     0.68797   0.13780   0.79981   0.00000  Uiso   1.00
C898   C     0.97870   0.19554   0.86686   0.00000  Uiso   1.00
C899   C     0.97826   0.13741   0.80064   0.00000  Uiso   1.00
C900   C     0.68840   0.19592   0.86603   0.00000  Uiso   1.00
C901   C     0.95718   0.16638   0.83392   0.00000  Uiso   1.00
C902   C     0.70949   0.16696   0.83274   0.00000  Uiso   1.00
C903   C     0.80768   0.02486   0.80278   0.00000  Uiso   1.00
C904   C     0.85899   0.30847   0.86389   0.00000  Uiso   1.00
C905   C     0.85902   0.02471   0.86387   0.00000  Uiso   1.00
C906   C     0.80765   0.30862   0.80280   0.00000  Uiso   1.00
N907   N     0.83333   0.28402   0.83333   0.00000  Uiso   1.00
N908   N     0.83333   0.04931   0.83333   0.00000  Uiso   1.00
N909   N     0.70960   0.11099   0.76345   0.00000  Uiso   1.00
O910   O     0.70301   0.06633   0.75900   0.00000  Uiso   1.00
O911   O     0.73531   0.13142   0.73388   0.00000  Uiso   1.00
N912   N     0.95707   0.22234   0.90322   0.00000  Uiso   1.00
O913   O     0.96366   0.26700   0.90766   0.00000  Uiso   1.00
O914   O     0.93135   0.20191   0.93279   0.00000  Uiso   1.00
N915   N     0.95595   0.11037   0.76507   0.00000  Uiso   1.00
O916   O     0.93658   0.13126   0.72930   0.00000  Uiso   1.00
O917   O     0.95062   0.06578   0.77200   0.00000  Uiso   1.00
N918   N     0.71072   0.22296   0.90159   0.00000  Uiso   1.00
O919   O     0.73009   0.20207   0.93737   0.00000  Uiso   1.00
O920   O     0.71604   0.26755   0.89467   0.00000  Uiso   1.00
H921   H     0.78717   0.04358   0.77823   0.00000  Uiso   1.00
H922   H     0.87949   0.28976   0.88844   0.00000  Uiso   1.00
H923   H     0.87961   0.04329   0.88834   0.00000  Uiso   1.00
H924   H     0.78706   0.29004   0.77833   0.00000  Uiso   1.00
O925   O     0.10655   0.53958   0.83333   0.00000  Uiso   1.00
O926   O     0.22679   0.46042   0.83334   0.00000  Uiso   1.00
O927   O     0.22679   0.53958   0.83334   0.00000  Uiso   1.00
O928   O     0.10655   0.46042   0.83333   0.00000  Uiso   1.00
C929   C     0.08747   0.50006   0.83308   0.00000  Uiso   1.00
C930   C     0.24586   0.49994   0.83359   0.00000  Uiso   1.00
O931   O     0.16667   0.53959   0.76280   0.00000  Uiso   1.00
O932   O     0.16667   0.46041   0.90387   0.00000  Uiso   1.00
O933   O     0.16667   0.53959   0.90387   0.00000  Uiso   1.00
O934   O     0.16667   0.46041   0.76280   0.00000  Uiso   1.00
C935   C     0.16670   0.50001   0.74021   0.00000  Uiso   1.00
C936   C     0.16663   0.49999   0.92646   0.00000  Uiso   1.00
Cu937  Cu    0.16667   0.54689   0.83333   0.00000  Uiso   1.00
Cu938  Cu    0.16667   0.45311   0.83333   0.00000  Uiso   1.00
C939   C     0.16668   0.50002   0.68851   0.00000  Uiso   1.00
C940   C     0.16665   0.49998   0.97816   0.00000  Uiso   1.00
C941   C     0.02130   0.47113   0.79981   0.00000  Uiso   1.00
C942   C     0.31203   0.52887   0.86686   0.00000  Uiso   1.00
C943   C     0.31160   0.47075   0.80064   0.00000  Uiso   1.00
C944   C     0.02174   0.52925   0.86603   0.00000  Uiso   1.00
C945   C     0.29051   0.49971   0.83392   0.00000  Uiso   1.00
C946   C     0.04282   0.50029   0.83274   0.00000  Uiso   1.00
C947   C     0.14101   0.35820   0.80278   0.00000  Uiso   1.00
C948   C     0.19232   0.64180   0.86389   0.00000  Uiso   1.00
C949   C     0.19235   0.35804   0.86387   0.00000  Uiso   1.00
C950   C     0.14098   0.64196   0.80280   0.00000  Uiso   1.00
N951   N     0.16667   0.61736   0.83333   0.00000  Uiso   1.00
N952   N     0.16667   0.38264   0.83333   0.00000  Uiso   1.00
N953   N     0.04293   0.44432   0.76345   0.00000  Uiso   1.00
O954   O     0.03634   0.39967   0.75900   0.00000  Uiso   1.00
O955   O     0.06865   0.46475   0.73388   0.00000  Uiso   1.00
N956   N     0.29040   0.55568   0.90322   0.00000  Uiso   1.00
O957   O     0.29699   0.60033   0.90766   0.00000  Uiso   1.00
O958   O     0.26469   0.53525   0.93279   0.00000  Uiso   1.00
N959   N     0.28928   0.44370   0.76507   0.00000  Uiso   1.00
O960   O     0.26991   0.46459   0.72930   0.00000  Uiso   1.00
O961   O     0.28396   0.39911   0.77200   0.00000  Uiso   1.00
N962   N     0.04405   0.55630   0.90159   0.00000  Uiso   1.00
O963   O     0.06343   0.53541   0.93737   0.00000  Uiso   1.00
O964   O     0.04937   0.60089   0.89467   0.00000  Uiso   1.00
H965   H     0.12051   0.37691   0.77823   0.00000  Uiso   1.00
H966   H     0.21283   0.62309   0.88844   0.00000  Uiso   1.00
H967   H     0.21294   0.37663   0.88834   0.00000  Uiso   1.00
H968   H     0.12039   0.62337   0.77833   0.00000  Uiso   1.00
O969   O     0.43988   0.53958   0.83333   0.00000  Uiso   1.00
O970   O     0.56012   0.46042   0.83334   0.00000  Uiso   1.00
O971   O     0.56012   0.53958   0.83334   0.00000  Uiso   1.00
O972   O     0.43988   0.46042   0.83333   0.00000  Uiso   1.00
C973   C     0.42080   0.50006   0.83308   0.00000  Uiso   1.00
C974   C     0.57920   0.49994   0.83359   0.00000  Uiso   1.00
O975   O     0.50000   0.53959   0.76280   0.00000  Uiso   1.00
O976   O     0.50000   0.46041   0.90387   0.00000  Uiso   1.00
O977   O     0.50000   0.53959   0.90387   0.00000  Uiso   1.00
O978   O     0.50000   0.46041   0.76280   0.00000  Uiso   1.00
C979   C     0.50004   0.50001   0.74021   0.00000  Uiso   1.00
C980   C     0.49996   0.49999   0.92646   0.00000  Uiso   1.00
Cu981  Cu    0.50000   0.54689   0.83333   0.00000  Uiso   1.00
Cu982  Cu    0.50000   0.45311   0.83333   0.00000  Uiso   1.00
C983   C     0.50001   0.50002   0.68851   0.00000  Uiso   1.00
C984   C     0.49999   0.49998   0.97816   0.00000  Uiso   1.00
C985   C     0.35463   0.47113   0.79981   0.00000  Uiso   1.00
C986   C     0.64537   0.52887   0.86686   0.00000  Uiso   1.00
C987   C     0.64493   0.47075   0.80064   0.00000  Uiso   1.00
C988   C     0.35507   0.52925   0.86603   0.00000  Uiso   1.00
C989   C     0.62384   0.49971   0.83392   0.00000  Uiso   1.00
C990   C     0.37616   0.50029   0.83274   0.00000  Uiso   1.00
C991   C     0.47434   0.35820   0.80278   0.00000  Uiso   1.00
C992   C     0.52566   0.64180   0.86389   0.00000  Uiso   1.00
C993   C     0.52568   0.35804   0.86387   0.00000  Uiso   1.00
C994   C     0.47432   0.64196   0.80280   0.00000  Uiso   1.00
N995   N     0.50000   0.61736   0.83333   0.00000  Uiso   1.00
N996   N     0.50000   0.38264   0.83333   0.00000  Uiso   1.00
N997   N     0.37627   0.44432   0.76345   0.00000  Uiso   1.00
O998   O     0.36967   0.39967   0.75900   0.00000  Uiso   1.00
O999   O     0.40198   0.46475   0.73388   0.00000  Uiso   1.00
N1000  N     0.62373   0.55568   0.90322   0.00000  Uiso   1.00
O1001  O     0.63033   0.60033   0.90766   0.00000  Uiso   1.00
O1002  O     0.59802   0.53525   0.93279   0.00000  Uiso   1.00
N1003  N     0.62262   0.44370   0.76507   0.00000  Uiso   1.00
O1004  O     0.60324   0.46459   0.72930   0.00000  Uiso   1.00
O1005  O     0.61729   0.39911   0.77200   0.00000  Uiso   1.00
N1006  N     0.37738   0.55630   0.90159   0.00000  Uiso   1.00
O1007  O     0.39676   0.53541   0.93737   0.00000  Uiso   1.00
O1008  O     0.38271   0.60089   0.89467   0.00000  Uiso   1.00
H1009  H     0.45384   0.37691   0.77823   0.00000  Uiso   1.00
H1010  H     0.54616   0.62309   0.88844   0.00000  Uiso   1.00
H1011  H     0.54628   0.37663   0.88834   0.00000  Uiso   1.00
H1012  H     0.45372   0.62337   0.77833   0.00000  Uiso   1.00
O1013  O     0.77321   0.53958   0.83333   0.00000  Uiso   1.00
O1014  O     0.89345   0.46042   0.83334   0.00000  Uiso   1.00
O1015  O     0.89345   0.53958   0.83334   0.00000  Uiso   1.00
O1016  O     0.77321   0.46042   0.83333   0.00000  Uiso   1.00
C1017  C     0.75414   0.50006   0.83308   0.00000  Uiso   1.00
C1018  C     0.91253   0.49994   0.83359   0.00000  Uiso   1.00
O1019  O     0.83333   0.53959   0.76280   0.00000  Uiso   1.00
O1020  O     0.83333   0.46041   0.90387   0.00000  Uiso   1.00
O1021  O     0.83333   0.53959   0.90387   0.00000  Uiso   1.00
O1022  O     0.83333   0.46041   0.76280   0.00000  Uiso   1.00
C1023  C     0.83337   0.50001   0.74021   0.00000  Uiso   1.00
C1024  C     0.83330   0.49999   0.92646   0.00000  Uiso   1.00
Cu1025 Cu    0.83333   0.54689   0.83333   0.00000  Uiso   1.00
Cu1026 Cu    0.83333   0.45311   0.83333   0.00000  Uiso   1.00
C1027  C     0.83335   0.50002   0.68851   0.00000  Uiso   1.00
C1028  C     0.83332   0.49998   0.97816   0.00000  Uiso   1.00
C1029  C     0.68797   0.47113   0.79981   0.00000  Uiso   1.00
C1030  C     0.97870   0.52887   0.86686   0.00000  Uiso   1.00
C1031  C     0.97826   0.47075   0.80064   0.00000  Uiso   1.00
C1032  C     0.68840   0.52925   0.86603   0.00000  Uiso   1.00
C1033  C     0.95718   0.49971   0.83392   0.00000  Uiso   1.00
C1034  C     0.70949   0.50029   0.83274   0.00000  Uiso   1.00
C1035  C     0.80768   0.35820   0.80278   0.00000  Uiso   1.00
C1036  C     0.85899   0.64180   0.86389   0.00000  Uiso   1.00
C1037  C     0.85902   0.35804   0.86387   0.00000  Uiso   1.00
C1038  C     0.80765   0.64196   0.80280   0.00000  Uiso   1.00
N1039  N     0.83333   0.61736   0.83333   0.00000  Uiso   1.00
N1040  N     0.83333   0.38264   0.83333   0.00000  Uiso   1.00
N1041  N     0.70960   0.44432   0.76345   0.00000  Uiso   1.00
O1042  O     0.70301   0.39967   0.75900   0.00000  Uiso   1.00
O1043  O     0.73531   0.46475   0.73388   0.00000  Uiso   1.00
N1044  N     0.95707   0.55568   0.90322   0.00000  Uiso   1.00
O1045  O     0.96366   0.60033   0.90766   0.00000  Uiso   1.00
O1046  O     0.93135   0.53525   0.93279   0.00000  Uiso   1.00
N1047  N     0.95595   0.44370   0.76507   0.00000  Uiso   1.00
O1048  O     0.93658   0.46459   0.72930   0.00000  Uiso   1.00
O1049  O     0.95062   0.39911   0.77200   0.00000  Uiso   1.00
N1050  N     0.71072   0.55630   0.90159   0.00000  Uiso   1.00
O1051  O     0.73009   0.53541   0.93737   0.00000  Uiso   1.00
O1052  O     0.71604   0.60089   0.89467   0.00000  Uiso   1.00
H1053  H     0.78717   0.37691   0.77823   0.00000  Uiso   1.00
H1054  H     0.87949   0.62309   0.88844   0.00000  Uiso   1.00
H1055  H     0.87961   0.37663   0.88834   0.00000  Uiso   1.00
H1056  H     0.78706   0.62337   0.77833   0.00000  Uiso   1.00
O1057  O     0.10655   0.87291   0.83333   0.00000  Uiso   1.00
O1058  O     0.22679   0.79375   0.83334   0.00000  Uiso   1.00
O1059  O     0.22679   0.87291   0.83334   0.00000  Uiso   1.00
O1060  O     0.10655   0.79375   0.83333   0.00000  Uiso   1.00
C1061  C     0.08747   0.83339   0.83308   0.00000  Uiso   1.00
C1062  C     0.24586   0.83327   0.83359   0.00000  Uiso   1.00
O1063  O     0.16667   0.87292   0.76280   0.00000  Uiso   1.00
O1064  O     0.16667   0.79375   0.90387   0.00000  Uiso   1.00
O1065  O     0.16667   0.87292   0.90387   0.00000  Uiso   1.00
O1066  O     0.16667   0.79375   0.76280   0.00000  Uiso   1.00
C1067  C     0.16670   0.83335   0.74021   0.00000  Uiso   1.00
C1068  C     0.16663   0.83332   0.92646   0.00000  Uiso   1.00
Cu1069 Cu    0.16667   0.88022   0.83333   0.00000  Uiso   1.00
Cu1070 Cu    0.16667   0.78645   0.83333   0.00000  Uiso   1.00
C1071  C     0.16668   0.83335   0.68851   0.00000  Uiso   1.00
C1072  C     0.16665   0.83331   0.97816   0.00000  Uiso   1.00
C1073  C     0.02130   0.80446   0.79981   0.00000  Uiso   1.00
C1074  C     0.31203   0.86220   0.86686   0.00000  Uiso   1.00
C1075  C     0.31160   0.80408   0.80064   0.00000  Uiso   1.00
C1076  C     0.02174   0.86259   0.86603   0.00000  Uiso   1.00
C1077  C     0.29051   0.83304   0.83392   0.00000  Uiso   1.00
C1078  C     0.04282   0.83362   0.83274   0.00000  Uiso   1.00
C1079  C     0.14101   0.69153   0.80278   0.00000  Uiso   1.00
C1080  C     0.19232   0.97513   0.86389   0.00000  Uiso   1.00
C1081  C     0.19235   0.69138   0.86387   0.00000  Uiso   1.00
C1082  C     0.14098   0.97529   0.80280   0.00000  Uiso   1.00
N1083  N     0.16667   0.95069   0.83333   0.00000  Uiso   1.00
N1084  N     0.16667   0.71598   0.83333   0.00000  Uiso   1.00
N1085  N     0.04293   0.77765   0.76345   0.00000  Uiso   1.00
O1086  O     0.03634   0.73300   0.75900   0.00000  Uiso   1.00
O1087  O     0.06865   0.79808   0.73388   0.00000  Uiso   1.00
N1088  N     0.29040   0.88901   0.90322   0.00000  Uiso   1.00
O1089  O     0.29699   0.93366   0.90766   0.00000  Uiso   1.00
O1090  O     0.26469   0.86858   0.93279   0.00000  Uiso   1.00
N1091  N     0.28928   0.77704   0.76507   0.00000  Uiso   1.00
O1092  O     0.26991   0.79792   0.72930   0.00000  Uiso   1.00
O1093  O     0.28396   0.73244   0.77200   0.00000  Uiso   1.00
N1094  N     0.04405   0.88963   0.90159   0.00000  Uiso   1.00
O1095  O     0.06343   0.86874   0.93737   0.00000  Uiso   1.00
O1096  O     0.04937   0.93422   0.89467   0.00000  Uiso   1.00
H1097  H     0.12051   0.71024   0.77823   0.00000  Uiso   1.00
H1098  H     0.21283   0.95642   0.88844   0.00000  Uiso   1.00
H1099  H     0.21294   0.70996   0.88834   0.00000  Uiso   1.00
H1100  H     0.12039   0.95670   0.77833   0.00000  Uiso   1.00
O1101  O     0.43988   0.87291   0.83333   0.00000  Uiso   1.00
O1102  O     0.56012   0.79375   0.83334   0.00000  Uiso   1.00
O1103  O     0.56012   0.87291   0.83334   0.00000  Uiso   1.00
O1104  O     0.43988   0.79375   0.83333   0.00000  Uiso   1.00
C1105  C     0.42080   0.83339   0.83308   0.00000  Uiso   1.00
C1106  C     0.57920   0.83327   0.83359   0.00000  Uiso   1.00
O1107  O     0.50000   0.87292   0.76280   0.00000  Uiso   1.00
O1108  O     0.50000   0.79375   0.90387   0.00000  Uiso   1.00
O1109  O     0.50000   0.87292   0.90387   0.00000  Uiso   1.00
O1110  O     0.50000   0.79375   0.76280   0.00000  Uiso   1.00
C1111  C     0.50004   0.83335   0.74021   0.00000  Uiso   1.00
C1112  C     0.49996   0.83332   0.92646   0.00000  Uiso   1.00
Cu1113 Cu    0.50000   0.88022   0.83333   0.00000  Uiso   1.00
Cu1114 Cu    0.50000   0.78645   0.83333   0.00000  Uiso   1.00
C1115  C     0.50001   0.83335   0.68851   0.00000  Uiso   1.00
C1116  C     0.49999   0.83331   0.97816   0.00000  Uiso   1.00
C1117  C     0.35463   0.80446   0.79981   0.00000  Uiso   1.00
C1118  C     0.64537   0.86220   0.86686   0.00000  Uiso   1.00
C1119  C     0.64493   0.80408   0.80064   0.00000  Uiso   1.00
C1120  C     0.35507   0.86259   0.86603   0.00000  Uiso   1.00
C1121  C     0.62384   0.83304   0.83392   0.00000  Uiso   1.00
C1122  C     0.37616   0.83362   0.83274   0.00000  Uiso   1.00
C1123  C     0.47434   0.69153   0.80278   0.00000  Uiso   1.00
C1124  C     0.52566   0.97513   0.86389   0.00000  Uiso   1.00
C1125  C     0.52568   0.69138   0.86387   0.00000  Uiso   1.00
C1126  C     0.47432   0.97529   0.80280   0.00000  Uiso   1.00
N1127  N     0.50000   0.95069   0.83333   0.00000  Uiso   1.00
N1128  N     0.50000   0.71598   0.83333   0.00000  Uiso   1.00
N1129  N     0.37627   0.77765   0.76345   0.00000  Uiso   1.00
O1130  O     0.36967   0.73300   0.75900   0.00000  Uiso   1.00
O1131  O     0.40198   0.79808   0.73388   0.00000  Uiso   1.00
N1132  N     0.62373   0.88901   0.90322   0.00000  Uiso   1.00
O1133  O     0.63033   0.93366   0.90766   0.00000  Uiso   1.00
O1134  O     0.59802   0.86858   0.93279   0.00000  Uiso   1.00
N1135  N     0.62262   0.77704   0.76507   0.00000  Uiso   1.00
O1136  O     0.60324   0.79792   0.72930   0.00000  Uiso   1.00
O1137  O     0.61729   0.73244   0.77200   0.00000  Uiso   1.00
N1138  N     0.37738   0.88963   0.90159   0.00000  Uiso   1.00
O1139  O     0.39676   0.86874   0.93737   0.00000  Uiso   1.00
O1140  O     0.38271   0.93422   0.89467   0.00000  Uiso   1.00
H1141  H     0.45384   0.71024   0.77823   0.00000  Uiso   1.00
H1142  H     0.54616   0.95642   0.88844   0.00000  Uiso   1.00
H1143  H     0.54628   0.70996   0.88834   0.00000  Uiso   1.00
H1144  H     0.45372   0.95670   0.77833   0.00000  Uiso   1.00
O1145  O     0.77321   0.87291   0.83333   0.00000  Uiso   1.00
O1146  O     0.89345   0.79375   0.83334   0.00000  Uiso   1.00
O1147  O     0.89345   0.87291   0.83334   0.00000  Uiso   1.00
O1148  O     0.77321   0.79375   0.83333   0.00000  Uiso   1.00
C1149  C     0.75414   0.83339   0.83308   0.00000  Uiso   1.00
C1150  C     0.91253   0.83327   0.83359   0.00000  Uiso   1.00
O1151  O     0.83333   0.87292   0.76280   0.00000  Uiso   1.00
O1152  O     0.83333   0.79375   0.90387   0.00000  Uiso   1.00
O1153  O     0.83333   0.87292   0.90387   0.00000  Uiso   1.00
O1154  O     0.83333   0.79375   0.76280   0.00000  Uiso   1.00
C1155  C     0.83337   0.83335   0.74021   0.00000  Uiso   1.00
C1156  C     0.83330   0.83332   0.92646   0.00000  Uiso   1.00
Cu1157 Cu    0.83333   0.88022   0.83333   0.00000  Uiso   1.00
Cu1158 Cu    0.83333   0.78645   0.83333   0.00000  Uiso   1.00
C1159  C     0.83335   0.83335   0.68851   0.00000  Uiso   1.00
C1160  C     0.83332   0.83331   0.97816   0.00000  Uiso   1.00
C1161  C     0.68797   0.80446   0.79981   0.00000  Uiso   1.00
C1162  C     0.97870   0.86220   0.86686   0.00000  Uiso   1.00
C1163  C     0.97826   0.80408   0.80064   0.00000  Uiso   1.00
C1164  C     0.68840   0.86259   0.86603   0.00000  Uiso   1.00
C1165  C     0.95718   0.83304   0.83392   0.00000  Uiso   1.00
C1166  C     0.70949   0.83362   0.83274   0.00000  Uiso   1.00
C1167  C     0.80768   0.69153   0.80278   0.00000  Uiso   1.00
C1168  C     0.85899   0.97513   0.86389   0.00000  Uiso   1.00
C1169  C     0.85902   0.69138   0.86387   0.00000  Uiso   1.00
C1170  C     0.80765   0.97529   0.80280   0.00000  Uiso   1.00
N1171  N     0.83333   0.95069   0.83333   0.00000  Uiso   1.00
N1172  N     0.83333   0.71598   0.83333   0.00000  Uiso   1.00
N1173  N     0.70960   0.77765   0.76345   0.00000  Uiso   1.00
O1174  O     0.70301   0.73300   0.75900   0.00000  Uiso   1.00
O1175  O     0.73531   0.79808   0.73388   0.00000  Uiso   1.00
N1176  N     0.95707   0.88901   0.90322   0.00000  Uiso   1.00
O1177  O     0.96366   0.93366   0.90766   0.00000  Uiso   1.00
O1178  O     0.93135   0.86858   0.93279   0.00000  Uiso   1.00
N1179  N     0.95595   0.77704   0.76507   0.00000  Uiso   1.00
O1180  O     0.93658   0.79792   0.72930   0.00000  Uiso   1.00
O1181  O     0.95062   0.73244   0.77200   0.00000  Uiso   1.00
N1182  N     0.71072   0.88963   0.90159   0.00000  Uiso   1.00
O1183  O     0.73009   0.86874   0.93737   0.00000  Uiso   1.00
O1184  O     0.71604   0.93422   0.89467   0.00000  Uiso   1.00
H1185  H     0.78717   0.71024   0.77823   0.00000  Uiso   1.00
H1186  H     0.87949   0.95642   0.88844   0.00000  Uiso   1.00
H1187  H     0.87961   0.70996   0.88834   0.00000  Uiso   1.00
H1188  H     0.78706   0.95670   0.77833   0.00000  Uiso   1.00
loop_
_geom_bond_atom_site_label_1
_geom_bond_atom_site_label_2
_geom_bond_distance
_geom_bond_site_symmetry_2
_ccdc_geom_bond_type
O1     C5      1.289   .     A
O1     Cu13    1.961   .     S
O2     C6      1.289   .     A
O2     Cu14    1.961   .     S
O3     Cu13    1.960   .     S
O3     C6      1.290   .     A
O4     Cu14    1.960   .     S
O4     C5      1.290   .     A
C5     C22     1.448   .     S
C6     C21     1.448   .     S
O7     C11     1.289   .     A
O7     Cu13    1.933   .     S
O8     C12     1.289   .     A
O8     Cu14    1.933   .     S
O9     C12     1.288   .     A
O9     Cu13    1.932   .     S
O10    C11     1.288   .     A
O10    Cu14    1.932   .     S
C11    C15     1.408   .     S
C12    C16     1.408   .     S
Cu13   Cu14    2.682   .     S
Cu13   N27     2.015   .     S
Cu14   N28     2.015   .     S
C15    C808    1.190   1_554 S
C16    C411    1.190   .     S
C17    C22     1.409   .     A
C17    N29     1.438   .     S
C17    C107    1.396   1_455 S
C18    C21     1.409   .     A
C18    N32     1.438   .     S
C18    C64     1.396   .     S
C19    N35     1.434   .     S
C19    C21     1.408   .     A
C19    C61     1.396   .     S
C20    C22     1.408   .     A
C20    N38     1.434   .     S
C20    C106    1.396   1_455 S
C23    N28     1.367   .     A
C23    H41     1.081   .     S
C23    C290    1.418   1_545 S
C24    H42     1.081   .     S
C24    N27     1.367   .     A
C24    C157    1.418   .     S
C25    H43     1.082   .     S
C25    N28     1.367   .     A
C25    C288    1.418   1_545 S
C26    H44     1.082   .     S
C26    N27     1.367   .     A
C26    C155    1.418   .     S
N29    O30     1.301   .     A
N29    O31     1.301   .     A
N32    O33     1.301   .     A
N32    O34     1.301   .     A
N35    O37     1.301   .     A
N35    O36     1.301   .     A
N38    O40     1.301   .     A
N38    O39     1.301   .     A
O45    C49     1.289   .     A
O45    Cu57    1.961   .     S
O46    C50     1.289   .     A
O46    Cu58    1.961   .     S
O47    Cu57    1.960   .     S
O47    C50     1.290   .     A
O48    Cu58    1.960   .     S
O48    C49     1.290   .     A
C49    C66     1.448   .     S
C50    C65     1.448   .     S
O51    C55     1.289   .     A
O51    Cu57    1.933   .     S
O52    C56     1.289   .     A
O52    Cu58    1.933   .     S
O53    C56     1.288   .     A
O53    Cu57    1.932   .     S
O54    C55     1.288   .     A
O54    Cu58    1.932   .     S
C55    C59     1.408   .     S
C56    C60     1.408   .     S
Cu57   Cu58    2.682   .     S
Cu57   N71     2.015   .     S
Cu58   N72     2.015   .     S
C59    C852    1.190   1_554 S
C60    C455    1.190   .     S
C61    C66     1.409   .     A
C61    N73     1.438   .     S
C62    C65     1.409   .     A
C62    N76     1.438   .     S
C62    C108    1.396   .     S
C63    N79     1.434   .     S
C63    C65     1.408   .     A
C63    C105    1.396   .     S
C64    C66     1.408   .     A
C64    N82     1.434   .     S
C67    N72     1.367   .     A
C67    H85     1.081   .     S
C67    C334    1.418   1_545 S
C68    H86     1.081   .     S
C68    N71     1.367   .     A
C68    C201    1.418   .     S
C69    H87     1.082   .     S
C69    N72     1.367   .     A
C69    C332    1.418   1_545 S
C70    H88     1.082   .     S
C70    N71     1.367   .     A
C70    C199    1.418   .     S
N73    O74     1.301   .     A
N73    O75     1.301   .     A
N76    O77     1.301   .     A
N76    O78     1.301   .     A
N79    O81     1.301   .     A
N79    O80     1.301   .     A
N82    O84     1.301   .     A
N82    O83     1.301   .     A
O89    C93     1.289   .     A
O89    Cu101   1.961   .     S
O90    C94     1.289   .     A
O90    Cu102   1.961   .     S
O91    Cu101   1.960   .     S
O91    C94     1.290   .     A
O92    Cu102   1.960   .     S
O92    C93     1.290   .     A
C93    C110    1.448   .     S
C94    C109    1.448   .     S
O95    C99     1.289   .     A
O95    Cu101   1.933   .     S
O96    C100    1.289   .     A
O96    Cu102   1.933   .     S
O97    C100    1.288   .     A
O97    Cu101   1.932   .     S
O98    C99     1.288   .     A
O98    Cu102   1.932   .     S
C99    C103    1.408   .     S
C100   C104    1.408   .     S
Cu101  Cu102   2.682   .     S
Cu101  N115    2.015   .     S
Cu102  N116    2.015   .     S
C103   C896    1.190   1_554 S
C104   C499    1.190   .     S
C105   C110    1.409   .     A
C105   N117    1.438   .     S
C106   C109    1.409   .     A
C106   N120    1.438   .     S
C106   C20     1.396   1_655 S
C107   N123    1.434   .     S
C107   C109    1.408   .     A
C107   C17     1.396   1_655 S
C108   C110    1.408   .     A
C108   N126    1.434   .     S
C111   N116    1.367   .     A
C111   H129    1.081   .     S
C111   C378    1.418   1_545 S
C112   H130    1.081   .     S
C112   N115    1.367   .     A
C112   C245    1.418   .     S
C113   H131    1.082   .     S
C113   N116    1.367   .     A
C113   C376    1.418   1_545 S
C114   H132    1.082   .     S
C114   N115    1.367   .     A
C114   C243    1.418   .     S
N117   O118    1.301   .     A
N117   O119    1.301   .     A
N120   O121    1.301   .     A
N120   O122    1.301   .     A
N123   O125    1.301   .     A
N123   O124    1.301   .     A
N126   O128    1.301   .     A
N126   O127    1.301   .     A
O133   C137    1.289   .     A
O133   Cu145   1.961   .     S
O134   C138    1.289   .     A
O134   Cu146   1.961   .     S
O135   Cu145   1.960   .     S
O135   C138    1.290   .     A
O136   Cu146   1.960   .     S
O136   C137    1.290   .     A
C137   C154    1.448   .     S
C138   C153    1.448   .     S
O139   C143    1.289   .     A
O139   Cu145   1.933   .     S
O140   C144    1.289   .     A
O140   Cu146   1.933   .     S
O141   C144    1.288   .     A
O141   Cu145   1.932   .     S
O142   C143    1.288   .     A
O142   Cu146   1.932   .     S
C143   C147    1.408   .     S
C144   C148    1.408   .     S
Cu145  Cu146   2.682   .     S
Cu145  N159    2.015   .     S
Cu146  N160    2.015   .     S
C147   C940    1.190   1_554 S
C148   C543    1.190   .     S
C149   C154    1.409   .     A
C149   N161    1.438   .     S
C149   C239    1.396   1_455 S
C150   C153    1.409   .     A
C150   N164    1.438   .     S
C150   C196    1.396   .     S
C151   N167    1.434   .     S
C151   C153    1.408   .     A
C151   C193    1.396   .     S
C152   C154    1.408   .     A
C152   N170    1.434   .     S
C152   C238    1.396   1_455 S
C155   N160    1.367   .     A
C155   H173    1.081   .     S
C156   H174    1.081   .     S
C156   N159    1.367   .     A
C156   C289    1.418   .     S
C157   H175    1.082   .     S
C157   N160    1.367   .     A
C158   H176    1.082   .     S
C158   N159    1.367   .     A
C158   C287    1.418   .     S
N161   O162    1.301   .     A
N161   O163    1.301   .     A
N164   O165    1.301   .     A
N164   O166    1.301   .     A
N167   O169    1.301   .     A
N167   O168    1.301   .     A
N170   O172    1.301   .     A
N170   O171    1.301   .     A
O177   C181    1.289   .     A
O177   Cu189   1.961   .     S
O178   C182    1.289   .     A
O178   Cu190   1.961   .     S
O179   Cu189   1.960   .     S
O179   C182    1.290   .     A
O180   Cu190   1.960   .     S
O180   C181    1.290   .     A
C181   C198    1.448   .     S
C182   C197    1.448   .     S
O183   C187    1.289   .     A
O183   Cu189   1.933   .     S
O184   C188    1.289   .     A
O184   Cu190   1.933   .     S
O185   C188    1.288   .     A
O185   Cu189   1.932   .     S
O186   C187    1.288   .     A
O186   Cu190   1.932   .     S
C187   C191    1.408   .     S
C188   C192    1.408   .     S
Cu189  Cu190   2.682   .     S
Cu189  N203    2.015   .     S
Cu190  N204    2.015   .     S
C191   C984    1.190   1_554 S
C192   C587    1.190   .     S
C193   C198    1.409   .     A
C193   N205    1.438   .     S
C194   C197    1.409   .     A
C194   N208    1.438   .     S
C194   C240    1.396   .     S
C195   N211    1.434   .     S
C195   C197    1.408   .     A
C195   C237    1.396   .     S
C196   C198    1.408   .     A
C196   N214    1.434   .     S
C199   N204    1.367   .     A
C199   H217    1.081   .     S
C200   H218    1.081   .     S
C200   N203    1.367   .     A
C200   C333    1.418   .     S
C201   H219    1.082   .     S
C201   N204    1.367   .     A
C202   H220    1.082   .     S
C202   N203    1.367   .     A
C202   C331    1.418   .     S
N205   O206    1.301   .     A
N205   O207    1.301   .     A
N208   O209    1.301   .     A
N208   O210    1.301   .     A
N211   O213    1.301   .     A
N211   O212    1.301   .     A
N214   O216    1.301   .     A
N214   O215    1.301   .     A
O221   C225    1.289   .     A
O221   Cu233   1.961   .     S
O222   C226    1.289   .     A
O222   Cu234   1.961   .     S
O223   Cu233   1.960   .     S
O223   C226    1.290   .     A
O224   Cu234   1.960   .     S
O224   C225    1.290   .     A
C225   C242    1.448   .     S
C226   C241    1.448   .     S
O227   C231    1.289   .     A
O227   Cu233   1.933   .     S
O228   C232    1.289   .     A
O228   Cu234   1.933   .     S
O229   C232    1.288   .     A
O229   Cu233   1.932   .     S
O230   C231    1.288   .     A
O230   Cu234   1.932   .     S
C231   C235    1.408   .     S
C232   C236    1.408   .     S
Cu233  Cu234   2.682   .     S
Cu233  N247    2.015   .     S
Cu234  N248    2.015   .     S
C235   C1028   1.190   1_554 S
C236   C631    1.190   .     S
C237   C242    1.409   .     A
C237   N249    1.438   .     S
C238   C241    1.409   .     A
C238   N252    1.438   .     S
C238   C152    1.396   1_655 S
C239   N255    1.434   .     S
C239   C241    1.408   .     A
C239   C149    1.396   1_655 S
C240   C242    1.408   .     A
C240   N258    1.434   .     S
C243   N248    1.367   .     A
C243   H261    1.081   .     S
C244   H262    1.081   .     S
C244   N247    1.367   .     A
C244   C377    1.418   .     S
C245   H263    1.082   .     S
C245   N248    1.367   .     A
C246   H264    1.082   .     S
C246   N247    1.367   .     A
C246   C375    1.418   .     S
N249   O250    1.301   .     A
N249   O251    1.301   .     A
N252   O253    1.301   .     A
N252   O254    1.301   .     A
N255   O257    1.301   .     A
N255   O256    1.301   .     A
N258   O260    1.301   .     A
N258   O259    1.301   .     A
O265   C269    1.289   .     A
O265   Cu277   1.961   .     S
O266   C270    1.289   .     A
O266   Cu278   1.961   .     S
O267   Cu277   1.960   .     S
O267   C270    1.290   .     A
O268   Cu278   1.960   .     S
O268   C269    1.290   .     A
C269   C286    1.448   .     S
C270   C285    1.448   .     S
O271   C275    1.289   .     A
O271   Cu277   1.933   .     S
O272   C276    1.289   .     A
O272   Cu278   1.933   .     S
O273   C276    1.288   .     A
O273   Cu277   1.932   .     S
O274   C275    1.288   .     A
O274   Cu278   1.932   .     S
C275   C279    1.408   .     S
C276   C280    1.408   .     S
Cu277  Cu278   2.682   .     S
Cu277  N291    2.015   .     S
Cu278  N292    2.015   .     S
C279   C1072   1.190   1_554 S
C280   C675    1.190   .     S
C281   C286    1.409   .     A
C281   N293    1.438   .     S
C281   C371    1.396   1_455 S
C282   C285    1.409   .     A
C282   N296    1.438   .     S
C282   C328    1.396   .     S
C283   N299    1.434   .     S
C283   C285    1.408   .     A
C283   C325    1.396   .     S
C284   C286    1.408   .     A
C284   N302    1.434   .     S
C284   C370    1.396   1_455 S
C287   N292    1.367   .     A
C287   H305    1.081   .     S
C288   H306    1.081   .     S
C288   N291    1.367   .     A
C288   C25     1.418   1_565 S
C289   H307    1.082   .     S
C289   N292    1.367   .     A
C290   H308    1.082   .     S
C290   N291    1.367   .     A
C290   C23     1.418   1_565 S
N293   O294    1.301   .     A
N293   O295    1.301   .     A
N296   O297    1.301   .     A
N296   O298    1.301   .     A
N299   O301    1.301   .     A
N299   O300    1.301   .     A
N302   O304    1.301   .     A
N302   O303    1.301   .     A
O309   C313    1.289   .     A
O309   Cu321   1.961   .     S
O310   C314    1.289   .     A
O310   Cu322   1.961   .     S
O311   Cu321   1.960   .     S
O311   C314    1.290   .     A
O312   Cu322   1.960   .     S
O312   C313    1.290   .     A
C313   C330    1.448   .     S
C314   C329    1.448   .     S
O315   C319    1.289   .     A
O315   Cu321   1.933   .     S
O316   C320    1.289   .     A
O316   Cu322   1.933   .     S
O317   C320    1.288   .     A
O317   Cu321   1.932   .     S
O318   C319    1.288   .     A
O318   Cu322   1.932   .     S
C319   C323    1.408   .     S
C320   C324    1.408   .     S
Cu321  Cu322   2.682   .     S
Cu321  N335    2.015   .     S
Cu322  N336    2.015   .     S
C323   C1116   1.190   1_554 S
C324   C719    1.190   .     S
C325   C330    1.409   .     A
C325   N337    1.438   .     S
C326   C329    1.409   .     A
C326   N340    1.438   .     S
C326   C372    1.396   .     S
C327   N343    1.434   .     S
C327   C329    1.408   .     A
C327   C369    1.396   .     S
C328   C330    1.408   .     A
C328   N346    1.434   .     S
C331   N336    1.367   .     A
C331   H349    1.081   .     S
C332   H350    1.081   .     S
C332   N335    1.367   .     A
C332   C69     1.418   1_565 S
C333   H351    1.082   .     S
C333   N336    1.367   .     A
C334   H352    1.082   .     S
C334   N335    1.367   .     A
C334   C67     1.418   1_565 S
N337   O338    1.301   .     A
N337   O339    1.301   .     A
N340   O341    1.301   .     A
N340   O342    1.301   .     A
N343   O345    1.301   .     A
N343   O344    1.301   .     A
N346   O348    1.301   .     A
N346   O347    1.301   .     A
O353   C357    1.289   .     A
O353   Cu365   1.961   .     S
O354   C358    1.289   .     A
O354   Cu366   1.961   .     S
O355   Cu365   1.960   .     S
O355   C358    1.290   .     A
O356   Cu366   1.960   .     S
O356   C357    1.290   .     A
C357   C374    1.448   .     S
C358   C373    1.448   .     S
O359   C363    1.289   .     A
O359   Cu365   1.933   .     S
O360   C364    1.289   .     A
O360   Cu366   1.933   .     S
O361   C364    1.288   .     A
O361   Cu365   1.932   .     S
O362   C363    1.288   .     A
O362   Cu366   1.932   .     S
C363   C367    1.408   .     S
C364   C368    1.408   .     S
Cu365  Cu366   2.682   .     S
Cu365  N379    2.015   .     S
Cu366  N380    2.015   .     S
C367   C1160   1.190   1_554 S
C368   C763    1.190   .     S
C369   C374    1.409   .     A
C369   N381    1.438   .     S
C370   C373    1.409   .     A
C370   N384    1.438   .     S
C370   C284    1.396   1_655 S
C371   N387    1.434   .     S
C371   C373    1.408   .     A
C371   C281    1.396   1_655 S
C372   C374    1.408   .     A
C372   N390    1.434   .     S
C375   N380    1.367   .     A
C375   H393    1.081   .     S
C376   H394    1.081   .     S
C376   N379    1.367   .     A
C376   C113    1.418   1_565 S
C377   H395    1.082   .     S
C377   N380    1.367   .     A
C378   H396    1.082   .     S
C378   N379    1.367   .     A
C378   C111    1.418   1_565 S
N381   O382    1.301   .     A
N381   O383    1.301   .     A
N384   O385    1.301   .     A
N384   O386    1.301   .     A
N387   O389    1.301   .     A
N387   O388    1.301   .     A
N390   O392    1.301   .     A
N390   O391    1.301   .     A
O397   C401    1.289   .     A
O397   Cu409   1.961   .     S
O398   C402    1.289   .     A
O398   Cu410   1.961   .     S
O399   Cu409   1.960   .     S
O399   C402    1.290   .     A
O400   Cu410   1.960   .     S
O400   C401    1.290   .     A
C401   C418    1.448   .     S
C402   C417    1.448   .     S
O403   C407    1.289   .     A
O403   Cu409   1.933   .     S
O404   C408    1.289   .     A
O404   Cu410   1.933   .     S
O405   C408    1.288   .     A
O405   Cu409   1.932   .     S
O406   C407    1.288   .     A
O406   Cu410   1.932   .     S
C407   C411    1.408   .     S
C408   C412    1.408   .     S
Cu409  Cu410   2.682   .     S
Cu409  N423    2.015   .     S
Cu410  N424    2.015   .     S
C412   C807    1.190   .     S
C413   C418    1.409   .     A
C413   N425    1.438   .     S
C413   C503    1.396   1_455 S
C414   C417    1.409   .     A
C414   N428    1.438   .     S
C414   C460    1.396   .     S
C415   N431    1.434   .     S
C415   C417    1.408   .     A
C415   C457    1.396   .     S
C416   C418    1.408   .     A
C416   N434    1.434   .     S
C416   C502    1.396   1_455 S
C419   N424    1.367   .     A
C419   H437    1.081   .     S
C419   C686    1.418   1_545 S
C420   H438    1.081   .     S
C420   N423    1.367   .     A
C420   C553    1.418   .     S
C421   H439    1.082   .     S
C421   N424    1.367   .     A
C421   C684    1.418   1_545 S
C422   H440    1.082   .     S
C422   N423    1.367   .     A
C422   C551    1.418   .     S
N425   O426    1.301   .     A
N425   O427    1.301   .     A
N428   O429    1.301   .     A
N428   O430    1.301   .     A
N431   O433    1.301   .     A
N431   O432    1.301   .     A
N434   O436    1.301   .     A
N434   O435    1.301   .     A
O441   C445    1.289   .     A
O441   Cu453   1.961   .     S
O442   C446    1.289   .     A
O442   Cu454   1.961   .     S
O443   Cu453   1.960   .     S
O443   C446    1.290   .     A
O444   Cu454   1.960   .     S
O444   C445    1.290   .     A
C445   C462    1.448   .     S
C446   C461    1.448   .     S
O447   C451    1.289   .     A
O447   Cu453   1.933   .     S
O448   C452    1.289   .     A
O448   Cu454   1.933   .     S
O449   C452    1.288   .     A
O449   Cu453   1.932   .     S
O450   C451    1.288   .     A
O450   Cu454   1.932   .     S
C451   C455    1.408   .     S
C452   C456    1.408   .     S
Cu453  Cu454   2.682   .     S
Cu453  N467    2.015   .     S
Cu454  N468    2.015   .     S
C456   C851    1.190   .     S
C457   C462    1.409   .     A
C457   N469    1.438   .     S
C458   C461    1.409   .     A
C458   N472    1.438   .     S
C458   C504    1.396   .     S
C459   N475    1.434   .     S
C459   C461    1.408   .     A
C459   C501    1.396   .     S
C460   C462    1.408   .     A
C460   N478    1.434   .     S
C463   N468    1.367   .     A
C463   H481    1.081   .     S
C463   C730    1.418   1_545 S
C464   H482    1.081   .     S
C464   N467    1.367   .     A
C464   C597    1.418   .     S
C465   H483    1.082   .     S
C465   N468    1.367   .     A
C465   C728    1.418   1_545 S
C466   H484    1.082   .     S
C466   N467    1.367   .     A
C466   C595    1.418   .     S
N469   O470    1.301   .     A
N469   O471    1.301   .     A
N472   O473    1.301   .     A
N472   O474    1.301   .     A
N475   O477    1.301   .     A
N475   O476    1.301   .     A
N478   O480    1.301   .     A
N478   O479    1.301   .     A
O485   C489    1.289   .     A
O485   Cu497   1.961   .     S
O486   C490    1.289   .     A
O486   Cu498   1.961   .     S
O487   Cu497   1.960   .     S
O487   C490    1.290   .     A
O488   Cu498   1.960   .     S
O488   C489    1.290   .     A
C489   C506    1.448   .     S
C490   C505    1.448   .     S
O491   C495    1.289   .     A
O491   Cu497   1.933   .     S
O492   C496    1.289   .     A
O492   Cu498   1.933   .     S
O493   C496    1.288   .     A
O493   Cu497   1.932   .     S
O494   C495    1.288   .     A
O494   Cu498   1.932   .     S
C495   C499    1.408   .     S
C496   C500    1.408   .     S
Cu497  Cu498   2.682   .     S
Cu497  N511    2.015   .     S
Cu498  N512    2.015   .     S
C500   C895    1.190   .     S
C501   C506    1.409   .     A
C501   N513    1.438   .     S
C502   C505    1.409   .     A
C502   N516    1.438   .     S
C502   C416    1.396   1_655 S
C503   N519    1.434   .     S
C503   C505    1.408   .     A
C503   C413    1.396   1_655 S
C504   C506    1.408   .     A
C504   N522    1.434   .     S
C507   N512    1.367   .     A
C507   H525    1.081   .     S
C507   C774    1.418   1_545 S
C508   H526    1.081   .     S
C508   N511    1.367   .     A
C508   C641    1.418   .     S
C509   H527    1.082   .     S
C509   N512    1.367   .     A
C509   C772    1.418   1_545 S
C510   H528    1.082   .     S
C510   N511    1.367   .     A
C510   C639    1.418   .     S
N513   O514    1.301   .     A
N513   O515    1.301   .     A
N516   O517    1.301   .     A
N516   O518    1.301   .     A
N519   O521    1.301   .     A
N519   O520    1.301   .     A
N522   O524    1.301   .     A
N522   O523    1.301   .     A
O529   C533    1.289   .     A
O529   Cu541   1.961   .     S
O530   C534    1.289   .     A
O530   Cu542   1.961   .     S
O531   Cu541   1.960   .     S
O531   C534    1.290   .     A
O532   Cu542   1.960   .     S
O532   C533    1.290   .     A
C533   C550    1.448   .     S
C534   C549    1.448   .     S
O535   C539    1.289   .     A
O535   Cu541   1.933   .     S
O536   C540    1.289   .     A
O536   Cu542   1.933   .     S
O537   C540    1.288   .     A
O537   Cu541   1.932   .     S
O538   C539    1.288   .     A
O538   Cu542   1.932   .     S
C539   C543    1.408   .     S
C540   C544    1.408   .     S
Cu541  Cu542   2.682   .     S
Cu541  N555    2.015   .     S
Cu542  N556    2.015   .     S
C544   C939    1.190   .     S
C545   C550    1.409   .     A
C545   N557    1.438   .     S
C545   C635    1.396   1_455 S
C546   C549    1.409   .     A
C546   N560    1.438   .     S
C546   C592    1.396   .     S
C547   N563    1.434   .     S
C547   C549    1.408   .     A
C547   C589    1.396   .     S
C548   C550    1.408   .     A
C548   N566    1.434   .     S
C548   C634    1.396   1_455 S
C551   N556    1.367   .     A
C551   H569    1.081   .     S
C552   H570    1.081   .     S
C552   N555    1.367   .     A
C552   C685    1.418   .     S
C553   H571    1.082   .     S
C553   N556    1.367   .     A
C554   H572    1.082   .     S
C554   N555    1.367   .     A
C554   C683    1.418   .     S
N557   O558    1.301   .     A
N557   O559    1.301   .     A
N560   O561    1.301   .     A
N560   O562    1.301   .     A
N563   O565    1.301   .     A
N563   O564    1.301   .     A
N566   O568    1.301   .     A
N566   O567    1.301   .     A
O573   C577    1.289   .     A
O573   Cu585   1.961   .     S
O574   C578    1.289   .     A
O574   Cu586   1.961   .     S
O575   Cu585   1.960   .     S
O575   C578    1.290   .     A
O576   Cu586   1.960   .     S
O576   C577    1.290   .     A
C577   C594    1.448   .     S
C578   C593    1.448   .     S
O579   C583    1.289   .     A
O579   Cu585   1.933   .     S
O580   C584    1.289   .     A
O580   Cu586   1.933   .     S
O581   C584    1.288   .     A
O581   Cu585   1.932   .     S
O582   C583    1.288   .     A
O582   Cu586   1.932   .     S
C583   C587    1.408   .     S
C584   C588    1.408   .     S
Cu585  Cu586   2.682   .     S
Cu585  N599    2.015   .     S
Cu586  N600    2.015   .     S
C588   C983    1.190   .     S
C589   C594    1.409   .     A
C589   N601    1.438   .     S
C590   C593    1.409   .     A
C590   N604    1.438   .     S
C590   C636    1.396   .     S
C591   N607    1.434   .     S
C591   C593    1.408   .     A
C591   C633    1.396   .     S
C592   C594    1.408   .     A
C592   N610    1.434   .     S
C595   N600    1.367   .     A
C595   H613    1.081   .     S
C596   H614    1.081   .     S
C596   N599    1.367   .     A
C596   C729    1.418   .     S
C597   H615    1.082   .     S
C597   N600    1.367   .     A
C598   H616    1.082   .     S
C598   N599    1.367   .     A
C598   C727    1.418   .     S
N601   O602    1.301   .     A
N601   O603    1.301   .     A
N604   O605    1.301   .     A
N604   O606    1.301   .     A
N607   O609    1.301   .     A
N607   O608    1.301   .     A
N610   O612    1.301   .     A
N610   O611    1.301   .     A
O617   C621    1.289   .     A
O617   Cu629   1.961   .     S
O618   C622    1.289   .     A
O618   Cu630   1.961   .     S
O619   Cu629   1.960   .     S
O619   C622    1.290   .     A
O620   Cu630   1.960   .     S
O620   C621    1.290   .     A
C621   C638    1.448   .     S
C622   C637    1.448   .     S
O623   C627    1.289   .     A
O623   Cu629   1.933   .     S
O624   C628    1.289   .     A
O624   Cu630   1.933   .     S
O625   C628    1.288   .     A
O625   Cu629   1.932   .     S
O626   C627    1.288   .     A
O626   Cu630   1.932   .     S
C627   C631    1.408   .     S
C628   C632    1.408   .     S
Cu629  Cu630   2.682   .     S
Cu629  N643    2.015   .     S
Cu630  N644    2.015   .     S
C632   C1027   1.190   .     S
C633   C638    1.409   .     A
C633   N645    1.438   .     S
C634   C637    1.409   .     A
C634   N648    1.438   .     S
C634   C548    1.396   1_655 S
C635   N651    1.434   .     S
C635   C637    1.408   .     A
C635   C545    1.396   1_655 S
C636   C638    1.408   .     A
C636   N654    1.434   .     S
C639   N644    1.367   .     A
C639   H657    1.081   .     S
C640   H658    1.081   .     S
C640   N643    1.367   .     A
C640   C773    1.418   .     S
C641   H659    1.082   .     S
C641   N644    1.367   .     A
C642   H660    1.082   .     S
C642   N643    1.367   .     A
C642   C771    1.418   .     S
N645   O646    1.301   .     A
N645   O647    1.301   .     A
N648   O649    1.301   .     A
N648   O650    1.301   .     A
N651   O653    1.301   .     A
N651   O652    1.301   .     A
N654   O656    1.301   .     A
N654   O655    1.301   .     A
O661   C665    1.289   .     A
O661   Cu673   1.961   .     S
O662   C666    1.289   .     A
O662   Cu674   1.961   .     S
O663   Cu673   1.960   .     S
O663   C666    1.290   .     A
O664   Cu674   1.960   .     S
O664   C665    1.290   .     A
C665   C682    1.448   .     S
C666   C681    1.448   .     S
O667   C671    1.289   .     A
O667   Cu673   1.933   .     S
O668   C672    1.289   .     A
O668   Cu674   1.933   .     S
O669   C672    1.288   .     A
O669   Cu673   1.932   .     S
O670   C671    1.288   .     A
O670   Cu674   1.932   .     S
C671   C675    1.408   .     S
C672   C676    1.408   .     S
Cu673  Cu674   2.682   .     S
Cu673  N687    2.015   .     S
Cu674  N688    2.015   .     S
C676   C1071   1.190   .     S
C677   C682    1.409   .     A
C677   N689    1.438   .     S
C677   C767    1.396   1_455 S
C678   C681    1.409   .     A
C678   N692    1.438   .     S
C678   C724    1.396   .     S
C679   N695    1.434   .     S
C679   C681    1.408   .     A
C679   C721    1.396   .     S
C680   C682    1.408   .     A
C680   N698    1.434   .     S
C680   C766    1.396   1_455 S
C683   N688    1.367   .     A
C683   H701    1.081   .     S
C684   H702    1.081   .     S
C684   N687    1.367   .     A
C684   C421    1.418   1_565 S
C685   H703    1.082   .     S
C685   N688    1.367   .     A
C686   H704    1.082   .     S
C686   N687    1.367   .     A
C686   C419    1.418   1_565 S
N689   O690    1.301   .     A
N689   O691    1.301   .     A
N692   O693    1.301   .     A
N692   O694    1.301   .     A
N695   O697    1.301   .     A
N695   O696    1.301   .     A
N698   O700    1.301   .     A
N698   O699    1.301   .     A
O705   C709    1.289   .     A
O705   Cu717   1.961   .     S
O706   C710    1.289   .     A
O706   Cu718   1.961   .     S
O707   Cu717   1.960   .     S
O707   C710    1.290   .     A
O708   Cu718   1.960   .     S
O708   C709    1.290   .     A
C709   C726    1.448   .     S
C710   C725    1.448   .     S
O711   C715    1.289   .     A
O711   Cu717   1.933   .     S
O712   C716    1.289   .     A
O712   Cu718   1.933   .     S
O713   C716    1.288   .     A
O713   Cu717   1.932   .     S
O714   C715    1.288   .     A
O714   Cu718   1.932   .     S
C715   C719    1.408   .     S
C716   C720    1.408   .     S
Cu717  Cu718   2.682   .     S
Cu717  N731    2.015   .     S
Cu718  N732    2.015   .     S
C720   C1115   1.190   .     S
C721   C726    1.409   .     A
C721   N733    1.438   .     S
C722   C725    1.409   .     A
C722   N736    1.438   .     S
C722   C768    1.396   .     S
C723   N739    1.434   .     S
C723   C725    1.408   .     A
C723   C765    1.396   .     S
C724   C726    1.408   .     A
C724   N742    1.434   .     S
C727   N732    1.367   .     A
C727   H745    1.081   .     S
C728   H746    1.081   .     S
C728   N731    1.367   .     A
C728   C465    1.418   1_565 S
C729   H747    1.082   .     S
C729   N732    1.367   .     A
C730   H748    1.082   .     S
C730   N731    1.367   .     A
C730   C463    1.418   1_565 S
N733   O734    1.301   .     A
N733   O735    1.301   .     A
N736   O737    1.301   .     A
N736   O738    1.301   .     A
N739   O741    1.301   .     A
N739   O740    1.301   .     A
N742   O744    1.301   .     A
N742   O743    1.301   .     A
O749   C753    1.289   .     A
O749   Cu761   1.961   .     S
O750   C754    1.289   .     A
O750   Cu762   1.961   .     S
O751   Cu761   1.960   .     S
O751   C754    1.290   .     A
O752   Cu762   1.960   .     S
O752   C753    1.290   .     A
C753   C770    1.448   .     S
C754   C769    1.448   .     S
O755   C759    1.289   .     A
O755   Cu761   1.933   .     S
O756   C760    1.289   .     A
O756   Cu762   1.933   .     S
O757   C760    1.288   .     A
O757   Cu761   1.932   .     S
O758   C759    1.288   .     A
O758   Cu762   1.932   .     S
C759   C763    1.408   .     S
C760   C764    1.408   .     S
Cu761  Cu762   2.682   .     S
Cu761  N775    2.015   .     S
Cu762  N776    2.015   .     S
C764   C1159   1.190   .     S
C765   C770    1.409   .     A
C765   N777    1.438   .     S
C766   C769    1.409   .     A
C766   N780    1.438   .     S
C766   C680    1.396   1_655 S
C767   N783    1.434   .     S
C767   C769    1.408   .     A
C767   C677    1.396   1_655 S
C768   C770    1.408   .     A
C768   N786    1.434   .     S
C771   N776    1.367   .     A
C771   H789    1.081   .     S
C772   H790    1.081   .     S
C772   N775    1.367   .     A
C772   C509    1.418   1_565 S
C773   H791    1.082   .     S
C773   N776    1.367   .     A
C774   H792    1.082   .     S
C774   N775    1.367   .     A
C774   C507    1.418   1_565 S
N777   O778    1.301   .     A
N777   O779    1.301   .     A
N780   O781    1.301   .     A
N780   O782    1.301   .     A
N783   O785    1.301   .     A
N783   O784    1.301   .     A
N786   O788    1.301   .     A
N786   O787    1.301   .     A
O793   C797    1.289   .     A
O793   Cu805   1.961   .     S
O794   C798    1.289   .     A
O794   Cu806   1.961   .     S
O795   Cu805   1.960   .     S
O795   C798    1.290   .     A
O796   Cu806   1.960   .     S
O796   C797    1.290   .     A
C797   C814    1.448   .     S
C798   C813    1.448   .     S
O799   C803    1.289   .     A
O799   Cu805   1.933   .     S
O800   C804    1.289   .     A
O800   Cu806   1.933   .     S
O801   C804    1.288   .     A
O801   Cu805   1.932   .     S
O802   C803    1.288   .     A
O802   Cu806   1.932   .     S
C803   C807    1.408   .     S
C804   C808    1.408   .     S
Cu805  Cu806   2.682   .     S
Cu805  N819    2.015   .     S
Cu806  N820    2.015   .     S
C808   C15     1.190   1_556 S
C809   C814    1.409   .     A
C809   N821    1.438   .     S
C809   C899    1.396   1_455 S
C810   C813    1.409   .     A
C810   N824    1.438   .     S
C810   C856    1.396   .     S
C811   N827    1.434   .     S
C811   C813    1.408   .     A
C811   C853    1.396   .     S
C812   C814    1.408   .     A
C812   N830    1.434   .     S
C812   C898    1.396   1_455 S
C815   N820    1.367   .     A
C815   H833    1.081   .     S
C815   C1082   1.418   1_545 S
C816   H834    1.081   .     S
C816   N819    1.367   .     A
C816   C949    1.418   .     S
C817   H835    1.082   .     S
C817   N820    1.367   .     A
C817   C1080   1.418   1_545 S
C818   H836    1.082   .     S
C818   N819    1.367   .     A
C818   C947    1.418   .     S
N821   O822    1.301   .     A
N821   O823    1.301   .     A
N824   O825    1.301   .     A
N824   O826    1.301   .     A
N827   O829    1.301   .     A
N827   O828    1.301   .     A
N830   O832    1.301   .     A
N830   O831    1.301   .     A
O837   C841    1.289   .     A
O837   Cu849   1.961   .     S
O838   C842    1.289   .     A
O838   Cu850   1.961   .     S
O839   Cu849   1.960   .     S
O839   C842    1.290   .     A
O840   Cu850   1.960   .     S
O840   C841    1.290   .     A
C841   C858    1.448   .     S
C842   C857    1.448   .     S
O843   C847    1.289   .     A
O843   Cu849   1.933   .     S
O844   C848    1.289   .     A
O844   Cu850   1.933   .     S
O845   C848    1.288   .     A
O845   Cu849   1.932   .     S
O846   C847    1.288   .     A
O846   Cu850   1.932   .     S
C847   C851    1.408   .     S
C848   C852    1.408   .     S
Cu849  Cu850   2.682   .     S
Cu849  N863    2.015   .     S
Cu850  N864    2.015   .     S
C852   C59     1.190   1_556 S
C853   C858    1.409   .     A
C853   N865    1.438   .     S
C854   C857    1.409   .     A
C854   N868    1.438   .     S
C854   C900    1.396   .     S
C855   N871    1.434   .     S
C855   C857    1.408   .     A
C855   C897    1.396   .     S
C856   C858    1.408   .     A
C856   N874    1.434   .     S
C859   N864    1.367   .     A
C859   H877    1.081   .     S
C859   C1126   1.418   1_545 S
C860   H878    1.081   .     S
C860   N863    1.367   .     A
C860   C993    1.418   .     S
C861   H879    1.082   .     S
C861   N864    1.367   .     A
C861   C1124   1.418   1_545 S
C862   H880    1.082   .     S
C862   N863    1.367   .     A
C862   C991    1.418   .     S
N865   O866    1.301   .     A
N865   O867    1.301   .     A
N868   O869    1.301   .     A
N868   O870    1.301   .     A
N871   O873    1.301   .     A
N871   O872    1.301   .     A
N874   O876    1.301   .     A
N874   O875    1.301   .     A
O881   C885    1.289   .     A
O881   Cu893   1.961   .     S
O882   C886    1.289   .     A
O882   Cu894   1.961   .     S
O883   Cu893   1.960   .     S
O883   C886    1.290   .     A
O884   Cu894   1.960   .     S
O884   C885    1.290   .     A
C885   C902    1.448   .     S
C886   C901    1.448   .     S
O887   C891    1.289   .     A
O887   Cu893   1.933   .     S
O888   C892    1.289   .     A
O888   Cu894   1.933   .     S
O889   C892    1.288   .     A
O889   Cu893   1.932   .     S
O890   C891    1.288   .     A
O890   Cu894   1.932   .     S
C891   C895    1.408   .     S
C892   C896    1.408   .     S
Cu893  Cu894   2.682   .     S
Cu893  N907    2.015   .     S
Cu894  N908    2.015   .     S
C896   C103    1.190   1_556 S
C897   C902    1.409   .     A
C897   N909    1.438   .     S
C898   C901    1.409   .     A
C898   N912    1.438   .     S
C898   C812    1.396   1_655 S
C899   N915    1.434   .     S
C899   C901    1.408   .     A
C899   C809    1.396   1_655 S
C900   C902    1.408   .     A
C900   N918    1.434   .     S
C903   N908    1.367   .     A
C903   H921    1.081   .     S
C903   C1170   1.418   1_545 S
C904   H922    1.081   .     S
C904   N907    1.367   .     A
C904   C1037   1.418   .     S
C905   H923    1.082   .     S
C905   N908    1.367   .     A
C905   C1168   1.418   1_545 S
C906   H924    1.082   .     S
C906   N907    1.367   .     A
C906   C1035   1.418   .     S
N909   O910    1.301   .     A
N909   O911    1.301   .     A
N912   O913    1.301   .     A
N912   O914    1.301   .     A
N915   O917    1.301   .     A
N915   O916    1.301   .     A
N918   O920    1.301   .     A
N918   O919    1.301   .     A
O925   C929    1.289   .     A
O925   Cu937   1.961   .     S
O926   C930    1.289   .     A
O926   Cu938   1.961   .     S
O927   Cu937   1.960   .     S
O927   C930    1.290   .     A
O928   Cu938   1.960   .     S
O928   C929    1.290   .     A
C929   C946    1.448   .     S
C930   C945    1.448   .     S
O931   C935    1.289   .     A
O931   Cu937   1.933   .     S
O932   C936    1.289   .     A
O932   Cu938   1.933   .     S
O933   C936    1.288   .     A
O933   Cu937   1.932   .     S
O934   C935    1.288   .     A
O934   Cu938   1.932   .     S
C935   C939    1.408   .     S
C936   C940    1.408   .     S
Cu937  Cu938   2.682   .     S
Cu937  N951    2.015   .     S
Cu938  N952    2.015   .     S
C940   C147    1.190   1_556 S
C941   C946    1.409   .     A
C941   N953    1.438   .     S
C941   C1031   1.396   1_455 S
C942   C945    1.409   .     A
C942   N956    1.438   .     S
C942   C988    1.396   .     S
C943   N959    1.434   .     S
C943   C945    1.408   .     A
C943   C985    1.396   .     S
C944   C946    1.408   .     A
C944   N962    1.434   .     S
C944   C1030   1.396   1_455 S
C947   N952    1.367   .     A
C947   H965    1.081   .     S
C948   H966    1.081   .     S
C948   N951    1.367   .     A
C948   C1081   1.418   .     S
C949   H967    1.082   .     S
C949   N952    1.367   .     A
C950   H968    1.082   .     S
C950   N951    1.367   .     A
C950   C1079   1.418   .     S
N953   O954    1.301   .     A
N953   O955    1.301   .     A
N956   O957    1.301   .     A
N956   O958    1.301   .     A
N959   O961    1.301   .     A
N959   O960    1.301   .     A
N962   O964    1.301   .     A
N962   O963    1.301   .     A
O969   C973    1.289   .     A
O969   Cu981   1.961   .     S
O970   C974    1.289   .     A
O970   Cu982   1.961   .     S
O971   Cu981   1.960   .     S
O971   C974    1.290   .     A
O972   Cu982   1.960   .     S
O972   C973    1.290   .     A
C973   C990    1.448   .     S
C974   C989    1.448   .     S
O975   C979    1.289   .     A
O975   Cu981   1.933   .     S
O976   C980    1.289   .     A
O976   Cu982   1.933   .     S
O977   C980    1.288   .     A
O977   Cu981   1.932   .     S
O978   C979    1.288   .     A
O978   Cu982   1.932   .     S
C979   C983    1.408   .     S
C980   C984    1.408   .     S
Cu981  Cu982   2.682   .     S
Cu981  N995    2.015   .     S
Cu982  N996    2.015   .     S
C984   C191    1.190   1_556 S
C985   C990    1.409   .     A
C985   N997    1.438   .     S
C986   C989    1.409   .     A
C986   N1000   1.438   .     S
C986   C1032   1.396   .     S
C987   N1003   1.434   .     S
C987   C989    1.408   .     A
C987   C1029   1.396   .     S
C988   C990    1.408   .     A
C988   N1006   1.434   .     S
C991   N996    1.367   .     A
C991   H1009   1.081   .     S
C992   H1010   1.081   .     S
C992   N995    1.367   .     A
C992   C1125   1.418   .     S
C993   H1011   1.082   .     S
C993   N996    1.367   .     A
C994   H1012   1.082   .     S
C994   N995    1.367   .     A
C994   C1123   1.418   .     S
N997   O998    1.301   .     A
N997   O999    1.301   .     A
N1000  O1001   1.301   .     A
N1000  O1002   1.301   .     A
N1003  O1005   1.301   .     A
N1003  O1004   1.301   .     A
N1006  O1008   1.301   .     A
N1006  O1007   1.301   .     A
O1013  C1017   1.289   .     A
O1013  Cu1025  1.961   .     S
O1014  C1018   1.289   .     A
O1014  Cu1026  1.961   .     S
O1015  Cu1025  1.960   .     S
O1015  C1018   1.290   .     A
O1016  Cu1026  1.960   .     S
O1016  C1017   1.290   .     A
C1017  C1034   1.448   .     S
C1018  C1033   1.448   .     S
O1019  C1023   1.289   .     A
O1019  Cu1025  1.933   .     S
O1020  C1024   1.289   .     A
O1020  Cu1026  1.933   .     S
O1021  C1024   1.288   .     A
O1021  Cu1025  1.932   .     S
O1022  C1023   1.288   .     A
O1022  Cu1026  1.932   .     S
C1023  C1027   1.408   .     S
C1024  C1028   1.408   .     S
Cu1025 Cu1026  2.682   .     S
Cu1025 N1039   2.015   .     S
Cu1026 N1040   2.015   .     S
C1028  C235    1.190   1_556 S
C1029  C1034   1.409   .     A
C1029  N1041   1.438   .     S
C1030  C1033   1.409   .     A
C1030  N1044   1.438   .     S
C1030  C944    1.396   1_655 S
C1031  N1047   1.434   .     S
C1031  C1033   1.408   .     A
C1031  C941    1.396   1_655 S
C1032  C1034   1.408   .     A
C1032  N1050   1.434   .     S
C1035  N1040   1.367   .     A
C1035  H1053   1.081   .     S
C1036  H1054   1.081   .     S
C1036  N1039   1.367   .     A
C1036  C1169   1.418   .     S
C1037  H1055   1.082   .     S
C1037  N1040   1.367   .     A
C1038  H1056   1.082   .     S
C1038  N1039   1.367   .     A
C1038  C1167   1.418   .     S
N1041  O1042   1.301   .     A
N1041  O1043   1.301   .     A
N1044  O1045   1.301   .     A
N1044  O1046   1.301   .     A
N1047  O1049   1.301   .     A
N1047  O1048   1.301   .     A
N1050  O1052   1.301   .     A
N1050  O1051   1.301   .     A
O1057  C1061   1.289   .     A
O1057  Cu1069  1.961   .     S
O1058  C1062   1.289   .     A
O1058  Cu1070  1.961   .     S
O1059  Cu1069  1.960   .     S
O1059  C1062   1.290   .     A
O1060  Cu1070  1.960   .     S
O1060  C1061   1.290   .     A
C1061  C1078   1.448   .     S
C1062  C1077   1.448   .     S
O1063  C1067   1.289   .     A
O1063  Cu1069  1.933   .     S
O1064  C1068   1.289   .     A
O1064  Cu1070  1.933   .     S
O1065  C1068   1.288   .     A
O1065  Cu1069  1.932   .     S
O1066  C1067   1.288   .     A
O1066  Cu1070  1.932   .     S
C1067  C1071   1.408   .     S
C1068  C1072   1.408   .     S
Cu1069 Cu1070  2.682   .     S
Cu1069 N1083   2.015   .     S
Cu1070 N1084   2.015   .     S
C1072  C279    1.190   1_556 S
C1073  C1078   1.409   .     A
C1073  N1085   1.438   .     S
C1073  C1163   1.396   1_455 S
C1074  C1077   1.409   .     A
C1074  N1088   1.438   .     S
C1074  C1120   1.396   .     S
C1075  N1091   1.434   .     S
C1075  C1077   1.408   .     A
C1075  C1117   1.396   .     S
C1076  C1078   1.408   .     A
C1076  N1094   1.434   .     S
C1076  C1162   1.396   1_455 S
C1079  N1084   1.367   .     A
C1079  H1097   1.081   .     S
C1080  H1098   1.081   .     S
C1080  N1083   1.367   .     A
C1080  C817    1.418   1_565 S
C1081  H1099   1.082   .     S
C1081  N1084   1.367   .     A
C1082  H1100   1.082   .     S
C1082  N1083   1.367   .     A
C1082  C815    1.418   1_565 S
N1085  O1086   1.301   .     A
N1085  O1087   1.301   .     A
N1088  O1089   1.301   .     A
N1088  O1090   1.301   .     A
N1091  O1093   1.301   .     A
N1091  O1092   1.301   .     A
N1094  O1096   1.301   .     A
N1094  O1095   1.301   .     A
O1101  C1105   1.289   .     A
O1101  Cu1113  1.961   .     S
O1102  C1106   1.289   .     A
O1102  Cu1114  1.961   .     S
O1103  Cu1113  1.960   .     S
O1103  C1106   1.290   .     A
O1104  Cu1114  1.960   .     S
O1104  C1105   1.290   .     A
C1105  C1122   1.448   .     S
C1106  C1121   1.448   .     S
O1107  C1111   1.289   .     A
O1107  Cu1113  1.933   .     S
O1108  C1112   1.289   .     A
O1108  Cu1114  1.933   .     S
O1109  C1112   1.288   .     A
O1109  Cu1113  1.932   .     S
O1110  C1111   1.288   .     A
O1110  Cu1114  1.932   .     S
C1111  C1115   1.408   .     S
C1112  C1116   1.408   .     S
Cu1113 Cu1114  2.682   .     S
Cu1113 N1127   2.015   .     S
Cu1114 N1128   2.015   .     S
C1116  C323    1.190   1_556 S
C1117  C1122   1.409   .     A
C1117  N1129   1.438   .     S
C1118  C1121   1.409   .     A
C1118  N1132   1.438   .     S
C1118  C1164   1.396   .     S
C1119  N1135   1.434   .     S
C1119  C1121   1.408   .     A
C1119  C1161   1.396   .     S
C1120  C1122   1.408   .     A
C1120  N1138   1.434   .     S
C1123  N1128   1.367   .     A
C1123  H1141   1.081   .     S
C1124  H1142   1.081   .     S
C1124  N1127   1.367   .     A
C1124  C861    1.418   1_565 S
C1125  H1143   1.082   .     S
C1125  N1128   1.367   .     A
C1126  H1144   1.082   .     S
C1126  N1127   1.367   .     A
C1126  C859    1.418   1_565 S
N1129  O1130   1.301   .     A
N1129  O1131   1.301   .     A
N1132  O1133   1.301   .     A
N1132  O1134   1.301   .     A
N1135  O1137   1.301   .     A
N1135  O1136   1.301   .     A
N1138  O1140   1.301   .     A
N1138  O1139   1.301   .     A
O1145  C1149   1.289   .     A
O1145  Cu1157  1.961   .     S
O1146  C1150   1.289   .     A
O1146  Cu1158  1.961   .     S
O1147  Cu1157  1.960   .     S
O1147  C1150   1.290   .     A
O1148  Cu1158  1.960   .     S
O1148  C1149   1.290   .     A
C1149  C1166   1.448   .     S
C1150  C1165   1.448   .     S
O1151  C1155   1.289   .     A
O1151  Cu1157  1.933   .     S
O1152  C1156   1.289   .     A
O1152  Cu1158  1.933   .     S
O1153  C1156   1.288   .     A
O1153  Cu1157  1.932   .     S
O1154  C1155   1.288   .     A
O1154  Cu1158  1.932   .     S
C1155  C1159   1.408   .     S
C1156  C1160   1.408   .     S
Cu1157 Cu1158  2.682   .     S
Cu1157 N1171   2.015   .     S
Cu1158 N1172   2.015   .     S
C1160  C367    1.190   1_556 S
C1161  C1166   1.409   .     A
C1161  N1173   1.438   .     S
C1162  C1165   1.409   .     A
C1162  N1176   1.438   .     S
C1162  C1076   1.396   1_655 S
C1163  N1179   1.434   .     S
C1163  C1165   1.408   .     A
C1163  C1073   1.396   1_655 S
C1164  C1166   1.408   .     A
C1164  N1182   1.434   .     S
C1167  N1172   1.367   .     A
C1167  H1185   1.081   .     S
C1168  H1186   1.081   .     S
C1168  N1171   1.367   .     A
C1168  C905    1.418   1_565 S
C1169  H1187   1.082   .     S
C1169  N1172   1.367   .     A
C1170  H1188   1.082   .     S
C1170  N1171   1.367   .     A
C1170  C903    1.418   1_565 S
N1173  O1174   1.301   .     A
N1173  O1175   1.301   .     A
N1176  O1177   1.301   .     A
N1176  O1178   1.301   .     A
N1179  O1181   1.301   .     A
N1179  O1180   1.301   .     A
N1182  O1184   1.301   .     A
N1182  O1183   1.301   .     A
