data_str_m3_o1_o18_pcu_sym.5
_audit_creation_date              2020-01-03
_audit_creation_method            'Materials Studio'
_symmetry_space_group_name_H-M    'P1'
_symmetry_Int_Tables_number       1
_symmetry_cell_setting            triclinic
loop_
_symmetry_equiv_pos_as_xyz
  x,y,z
_cell_length_a                    29.6662
_cell_length_b                    32.0429
_cell_length_c                    31.0795
_cell_angle_alpha                 92.3165
_cell_angle_beta                  67.6692
_cell_angle_gamma                 90.7218
loop_
_atom_site_label
_atom_site_type_symbol
_atom_site_fract_x
_atom_site_fract_y
_atom_site_fract_z
_atom_site_U_iso_or_equiv
_atom_site_adp_type
_atom_site_occupancy
C1     C     0.16931   0.24640   0.24435   0.00000  Uiso   1.00
C2     C     0.13234   0.31184   0.23513   0.00000  Uiso   1.00
C3     C     0.16102   0.04183   0.26090   0.00000  Uiso   1.00
C4     C     0.17295   0.29118   0.23750   0.00000  Uiso   1.00
C5     C     0.32000   0.13801   0.22261   0.00000  Uiso   1.00
C6     C     0.01338   0.19539   0.27731   0.00000  Uiso   1.00
C7     C     0.03494   0.13856   0.22241   0.00000  Uiso   1.00
C8     C     0.29851   0.19499   0.27732   0.00000  Uiso   1.00
C9     C     0.13616   0.16715   0.33799   0.00000  Uiso   1.00
C10    C     0.19713   0.16704   0.16207   0.00000  Uiso   1.00
C11    C     0.11706   0.16955   0.38878   0.00000  Uiso   1.00
C12    C     0.16420   0.08679   0.25518   0.00000  Uiso   1.00
C13    C     0.21532   0.17339   0.11218   0.00000  Uiso   1.00
C14    C     0.05295   0.16082   0.46408   0.00000  Uiso   1.00
C15    C     0.27169   0.20491   0.04306   0.00000  Uiso   1.00
C16    C     0.06825   0.16119   0.41577   0.00000  Uiso   1.00
C17    C     0.26038   0.19210   0.08838   0.00000  Uiso   1.00
C18    C     0.14955   0.17960   0.41029   0.00000  Uiso   1.00
C19    C     0.18256   0.16678   0.09030   0.00000  Uiso   1.00
C20    C     0.13478   0.18097   0.45857   0.00000  Uiso   1.00
C21    C     0.19106   0.18277   0.04694   0.00000  Uiso   1.00
C22    C     0.08610   0.16979   0.48559   0.00000  Uiso   1.00
C23    C     0.10555   0.17134   0.05415   0.00000  Uiso   1.00
C24    C     0.23733   0.20031   0.02213   0.00000  Uiso   1.00
C25    C     0.16834   0.19003   0.48016   0.00000  Uiso   1.00
C26    C     0.15489   0.18099   0.02753   0.00000  Uiso   1.00
C27    C     0.26041   0.29495   0.23121   0.00000  Uiso   1.00
C28    C     0.07385   0.03802   0.26599   0.00000  Uiso   1.00
C29    C     0.23134   0.04208   0.28733   0.00000  Uiso   1.00
C30    C     0.10274   0.29055   0.21102   0.00000  Uiso   1.00
C31    C     0.30665   0.10658   0.19302   0.00000  Uiso   1.00
C32    C     0.02676   0.22683   0.30685   0.00000  Uiso   1.00
C33    C     0.07195   0.11069   0.19141   0.00000  Uiso   1.00
C34    C     0.21480   0.20772   0.45604   0.00000  Uiso   1.00
C35    C     0.26181   0.22355   0.30749   0.00000  Uiso   1.00
C36    C     0.07161   0.16657   0.03348   0.00000  Uiso   1.00
C37    C     0.24837   0.21332   0.47709   0.00000  Uiso   1.00
C38    C     0.21087   0.31346   0.24513   0.00000  Uiso   1.00
C39    C     0.12332   0.01958   0.25272   0.00000  Uiso   1.00
C40    C     0.20181   0.02112   0.26295   0.00000  Uiso   1.00
H41    H     0.03432   0.15882   0.05484   0.00000  Uiso   1.00
H42    H     0.22555   0.21903   0.42136   0.00000  Uiso   1.00
H43    H     0.28069   0.29770   0.25368   0.00000  Uiso   1.00
H44    H     0.05437   0.03568   0.24278   0.00000  Uiso   1.00
H45    H     0.21380   0.06487   0.31544   0.00000  Uiso   1.00
H46    H     0.12017   0.26740   0.18329   0.00000  Uiso   1.00
H47    H     0.28021   0.11355   0.17851   0.00000  Uiso   1.00
H48    H     0.05277   0.21966   0.32184   0.00000  Uiso   1.00
H49    H     0.28337   0.22728   0.45774   0.00000  Uiso   1.00
H50    H     0.14986   0.14951   0.10826   0.00000  Uiso   1.00
H51    H     0.18726   0.18396   0.38864   0.00000  Uiso   1.00
H52    H     0.28593   0.19802   0.10519   0.00000  Uiso   1.00
H53    H     0.04256   0.15345   0.39956   0.00000  Uiso   1.00
H54    H     0.01569   0.15224   0.48444   0.00000  Uiso   1.00
H55    H     0.30664   0.21942   0.02489   0.00000  Uiso   1.00
H56    H     0.09177   0.16849   0.09141   0.00000  Uiso   1.00
N57    N     0.04759   0.16668   0.25001   0.00000  Uiso   1.00
N58    N     0.28574   0.16666   0.24999   0.00000  Uiso   1.00
N59    N     0.10136   0.08819   0.16640   0.00000  Uiso   1.00
N60    N     0.23267   0.24668   0.33174   0.00000  Uiso   1.00
O61    O     0.12846   0.22775   0.25001   0.00000  Uiso   1.00
O62    O     0.05428   0.05625   0.30377   0.00000  Uiso   1.00
O63    O     0.27484   0.03568   0.27599   0.00000  Uiso   1.00
O64    O     0.05927   0.29706   0.22223   0.00000  Uiso   1.00
O65    O     0.32491   0.07176   0.18473   0.00000  Uiso   1.00
O66    O     0.00906   0.26186   0.31456   0.00000  Uiso   1.00
O67    O     0.20488   0.10558   0.25000   0.00000  Uiso   1.00
O68    O     0.20490   0.22774   0.25000   0.00000  Uiso   1.00
O69    O     0.12843   0.10559   0.25000   0.00000  Uiso   1.00
O70    O     0.10661   0.16667   0.31613   0.00000  Uiso   1.00
O71    O     0.22672   0.16666   0.18388   0.00000  Uiso   1.00
O72    O     0.18305   0.16666   0.31612   0.00000  Uiso   1.00
O73    O     0.15028   0.16667   0.18388   0.00000  Uiso   1.00
O74    O     0.27908   0.27605   0.19373   0.00000  Uiso   1.00
Zn75   Zn    0.11562   0.16667   0.25000   0.00000  Uiso   1.00
Zn76   Zn    0.21771   0.16666   0.25000   0.00000  Uiso   1.00
C77    C     0.50264   0.24640   0.24435   0.00000  Uiso   1.00
C78    C     0.46568   0.31184   0.23513   0.00000  Uiso   1.00
C79    C     0.49435   0.04183   0.26090   0.00000  Uiso   1.00
C80    C     0.50628   0.29118   0.23750   0.00000  Uiso   1.00
C81    C     0.65333   0.13801   0.22261   0.00000  Uiso   1.00
C82    C     0.34671   0.19539   0.27731   0.00000  Uiso   1.00
C83    C     0.36827   0.13856   0.22241   0.00000  Uiso   1.00
C84    C     0.63184   0.19499   0.27732   0.00000  Uiso   1.00
C85    C     0.46950   0.16715   0.33799   0.00000  Uiso   1.00
C86    C     0.53047   0.16704   0.16207   0.00000  Uiso   1.00
C87    C     0.45040   0.16955   0.38878   0.00000  Uiso   1.00
C88    C     0.49754   0.08679   0.25518   0.00000  Uiso   1.00
C89    C     0.54865   0.17339   0.11218   0.00000  Uiso   1.00
C90    C     0.38628   0.16082   0.46408   0.00000  Uiso   1.00
C91    C     0.60503   0.20491   0.04306   0.00000  Uiso   1.00
C92    C     0.40158   0.16119   0.41577   0.00000  Uiso   1.00
C93    C     0.59372   0.19210   0.08838   0.00000  Uiso   1.00
C94    C     0.48288   0.17960   0.41029   0.00000  Uiso   1.00
C95    C     0.51590   0.16678   0.09030   0.00000  Uiso   1.00
C96    C     0.46811   0.18097   0.45857   0.00000  Uiso   1.00
C97    C     0.52439   0.18277   0.04694   0.00000  Uiso   1.00
C98    C     0.41943   0.16979   0.48559   0.00000  Uiso   1.00
C99    C     0.43888   0.17134   0.05415   0.00000  Uiso   1.00
C100   C     0.57067   0.20031   0.02213   0.00000  Uiso   1.00
C101   C     0.50167   0.19003   0.48016   0.00000  Uiso   1.00
C102   C     0.48822   0.18099   0.02753   0.00000  Uiso   1.00
C103   C     0.59374   0.29495   0.23121   0.00000  Uiso   1.00
C104   C     0.40718   0.03802   0.26599   0.00000  Uiso   1.00
C105   C     0.56467   0.04208   0.28733   0.00000  Uiso   1.00
C106   C     0.43607   0.29055   0.21102   0.00000  Uiso   1.00
C107   C     0.63999   0.10658   0.19302   0.00000  Uiso   1.00
C108   C     0.36009   0.22683   0.30685   0.00000  Uiso   1.00
C109   C     0.40528   0.11069   0.19141   0.00000  Uiso   1.00
C110   C     0.54813   0.20772   0.45604   0.00000  Uiso   1.00
C111   C     0.59514   0.22355   0.30749   0.00000  Uiso   1.00
C112   C     0.40495   0.16657   0.03348   0.00000  Uiso   1.00
C113   C     0.58170   0.21332   0.47709   0.00000  Uiso   1.00
C114   C     0.54420   0.31346   0.24513   0.00000  Uiso   1.00
C115   C     0.45665   0.01958   0.25272   0.00000  Uiso   1.00
C116   C     0.53514   0.02112   0.26295   0.00000  Uiso   1.00
H117   H     0.36765   0.15882   0.05484   0.00000  Uiso   1.00
H118   H     0.55888   0.21903   0.42136   0.00000  Uiso   1.00
H119   H     0.61402   0.29770   0.25368   0.00000  Uiso   1.00
H120   H     0.38770   0.03568   0.24278   0.00000  Uiso   1.00
H121   H     0.54713   0.06487   0.31544   0.00000  Uiso   1.00
H122   H     0.45351   0.26740   0.18329   0.00000  Uiso   1.00
H123   H     0.61354   0.11355   0.17851   0.00000  Uiso   1.00
H124   H     0.38610   0.21966   0.32184   0.00000  Uiso   1.00
H125   H     0.61670   0.22728   0.45774   0.00000  Uiso   1.00
H126   H     0.48319   0.14951   0.10826   0.00000  Uiso   1.00
H127   H     0.52060   0.18396   0.38864   0.00000  Uiso   1.00
H128   H     0.61927   0.19802   0.10519   0.00000  Uiso   1.00
H129   H     0.37589   0.15345   0.39956   0.00000  Uiso   1.00
H130   H     0.34903   0.15224   0.48444   0.00000  Uiso   1.00
H131   H     0.63997   0.21942   0.02489   0.00000  Uiso   1.00
H132   H     0.42510   0.16849   0.09141   0.00000  Uiso   1.00
N133   N     0.38093   0.16668   0.25001   0.00000  Uiso   1.00
N134   N     0.61907   0.16666   0.24999   0.00000  Uiso   1.00
N135   N     0.43469   0.08819   0.16640   0.00000  Uiso   1.00
N136   N     0.56600   0.24668   0.33174   0.00000  Uiso   1.00
O137   O     0.46179   0.22775   0.25001   0.00000  Uiso   1.00
O138   O     0.38762   0.05625   0.30377   0.00000  Uiso   1.00
O139   O     0.60817   0.03568   0.27599   0.00000  Uiso   1.00
O140   O     0.39260   0.29706   0.22223   0.00000  Uiso   1.00
O141   O     0.65824   0.07176   0.18473   0.00000  Uiso   1.00
O142   O     0.34240   0.26186   0.31456   0.00000  Uiso   1.00
O143   O     0.53821   0.10558   0.25000   0.00000  Uiso   1.00
O144   O     0.53823   0.22774   0.25000   0.00000  Uiso   1.00
O145   O     0.46177   0.10559   0.25000   0.00000  Uiso   1.00
O146   O     0.43994   0.16667   0.31613   0.00000  Uiso   1.00
O147   O     0.56006   0.16666   0.18388   0.00000  Uiso   1.00
O148   O     0.51639   0.16666   0.31612   0.00000  Uiso   1.00
O149   O     0.48361   0.16667   0.18388   0.00000  Uiso   1.00
O150   O     0.61242   0.27605   0.19373   0.00000  Uiso   1.00
Zn151  Zn    0.44896   0.16667   0.25000   0.00000  Uiso   1.00
Zn152  Zn    0.55104   0.16666   0.25000   0.00000  Uiso   1.00
C153   C     0.83598   0.24640   0.24435   0.00000  Uiso   1.00
C154   C     0.79901   0.31184   0.23513   0.00000  Uiso   1.00
C155   C     0.82768   0.04183   0.26090   0.00000  Uiso   1.00
C156   C     0.83961   0.29118   0.23750   0.00000  Uiso   1.00
C157   C     0.98666   0.13801   0.22261   0.00000  Uiso   1.00
C158   C     0.68004   0.19539   0.27731   0.00000  Uiso   1.00
C159   C     0.70160   0.13856   0.22241   0.00000  Uiso   1.00
C160   C     0.96518   0.19499   0.27732   0.00000  Uiso   1.00
C161   C     0.80283   0.16715   0.33799   0.00000  Uiso   1.00
C162   C     0.86380   0.16704   0.16207   0.00000  Uiso   1.00
C163   C     0.78373   0.16955   0.38878   0.00000  Uiso   1.00
C164   C     0.83087   0.08679   0.25518   0.00000  Uiso   1.00
C165   C     0.88198   0.17339   0.11218   0.00000  Uiso   1.00
C166   C     0.71962   0.16082   0.46408   0.00000  Uiso   1.00
C167   C     0.93836   0.20491   0.04306   0.00000  Uiso   1.00
C168   C     0.73492   0.16119   0.41577   0.00000  Uiso   1.00
C169   C     0.92705   0.19210   0.08838   0.00000  Uiso   1.00
C170   C     0.81622   0.17960   0.41029   0.00000  Uiso   1.00
C171   C     0.84923   0.16678   0.09030   0.00000  Uiso   1.00
C172   C     0.80145   0.18097   0.45857   0.00000  Uiso   1.00
C173   C     0.85773   0.18277   0.04694   0.00000  Uiso   1.00
C174   C     0.75276   0.16979   0.48559   0.00000  Uiso   1.00
C175   C     0.77222   0.17134   0.05415   0.00000  Uiso   1.00
C176   C     0.90400   0.20031   0.02213   0.00000  Uiso   1.00
C177   C     0.83501   0.19003   0.48016   0.00000  Uiso   1.00
C178   C     0.82155   0.18099   0.02753   0.00000  Uiso   1.00
C179   C     0.92707   0.29495   0.23121   0.00000  Uiso   1.00
C180   C     0.74051   0.03802   0.26599   0.00000  Uiso   1.00
C181   C     0.89800   0.04208   0.28733   0.00000  Uiso   1.00
C182   C     0.76940   0.29055   0.21102   0.00000  Uiso   1.00
C183   C     0.97332   0.10658   0.19302   0.00000  Uiso   1.00
C184   C     0.69343   0.22683   0.30685   0.00000  Uiso   1.00
C185   C     0.73861   0.11069   0.19141   0.00000  Uiso   1.00
C186   C     0.88146   0.20772   0.45604   0.00000  Uiso   1.00
C187   C     0.92848   0.22355   0.30749   0.00000  Uiso   1.00
C188   C     0.73828   0.16657   0.03348   0.00000  Uiso   1.00
C189   C     0.91504   0.21332   0.47709   0.00000  Uiso   1.00
C190   C     0.87753   0.31346   0.24513   0.00000  Uiso   1.00
C191   C     0.78998   0.01958   0.25272   0.00000  Uiso   1.00
C192   C     0.86847   0.02112   0.26295   0.00000  Uiso   1.00
H193   H     0.70099   0.15882   0.05484   0.00000  Uiso   1.00
H194   H     0.89222   0.21903   0.42136   0.00000  Uiso   1.00
H195   H     0.94736   0.29770   0.25368   0.00000  Uiso   1.00
H196   H     0.72104   0.03568   0.24278   0.00000  Uiso   1.00
H197   H     0.88047   0.06487   0.31544   0.00000  Uiso   1.00
H198   H     0.78684   0.26740   0.18329   0.00000  Uiso   1.00
H199   H     0.94687   0.11355   0.17851   0.00000  Uiso   1.00
H200   H     0.71943   0.21966   0.32184   0.00000  Uiso   1.00
H201   H     0.95004   0.22728   0.45774   0.00000  Uiso   1.00
H202   H     0.81652   0.14951   0.10826   0.00000  Uiso   1.00
H203   H     0.85393   0.18396   0.38864   0.00000  Uiso   1.00
H204   H     0.95260   0.19802   0.10519   0.00000  Uiso   1.00
H205   H     0.70922   0.15345   0.39956   0.00000  Uiso   1.00
H206   H     0.68236   0.15224   0.48444   0.00000  Uiso   1.00
H207   H     0.97330   0.21942   0.02489   0.00000  Uiso   1.00
H208   H     0.75844   0.16849   0.09141   0.00000  Uiso   1.00
N209   N     0.71426   0.16668   0.25001   0.00000  Uiso   1.00
N210   N     0.95241   0.16666   0.24999   0.00000  Uiso   1.00
N211   N     0.76803   0.08819   0.16640   0.00000  Uiso   1.00
N212   N     0.89933   0.24668   0.33174   0.00000  Uiso   1.00
O213   O     0.79512   0.22775   0.25001   0.00000  Uiso   1.00
O214   O     0.72095   0.05625   0.30377   0.00000  Uiso   1.00
O215   O     0.94151   0.03568   0.27599   0.00000  Uiso   1.00
O216   O     0.72593   0.29706   0.22223   0.00000  Uiso   1.00
O217   O     0.99157   0.07176   0.18473   0.00000  Uiso   1.00
O218   O     0.67573   0.26186   0.31456   0.00000  Uiso   1.00
O219   O     0.87154   0.10558   0.25000   0.00000  Uiso   1.00
O220   O     0.87157   0.22774   0.25000   0.00000  Uiso   1.00
O221   O     0.79510   0.10559   0.25000   0.00000  Uiso   1.00
O222   O     0.77328   0.16667   0.31613   0.00000  Uiso   1.00
O223   O     0.89339   0.16666   0.18388   0.00000  Uiso   1.00
O224   O     0.84972   0.16666   0.31612   0.00000  Uiso   1.00
O225   O     0.81695   0.16667   0.18388   0.00000  Uiso   1.00
O226   O     0.94575   0.27605   0.19373   0.00000  Uiso   1.00
Zn227  Zn    0.78229   0.16667   0.25000   0.00000  Uiso   1.00
Zn228  Zn    0.88438   0.16666   0.25000   0.00000  Uiso   1.00
C229   C     0.16931   0.57974   0.24435   0.00000  Uiso   1.00
C230   C     0.13234   0.64518   0.23513   0.00000  Uiso   1.00
C231   C     0.16102   0.37516   0.26090   0.00000  Uiso   1.00
C232   C     0.17295   0.62451   0.23750   0.00000  Uiso   1.00
C233   C     0.32000   0.47134   0.22261   0.00000  Uiso   1.00
C234   C     0.01338   0.52872   0.27731   0.00000  Uiso   1.00
C235   C     0.03494   0.47189   0.22241   0.00000  Uiso   1.00
C236   C     0.29851   0.52832   0.27732   0.00000  Uiso   1.00
C237   C     0.13616   0.50048   0.33799   0.00000  Uiso   1.00
C238   C     0.19713   0.50037   0.16207   0.00000  Uiso   1.00
C239   C     0.11706   0.50289   0.38878   0.00000  Uiso   1.00
C240   C     0.16420   0.42013   0.25518   0.00000  Uiso   1.00
C241   C     0.21532   0.50672   0.11218   0.00000  Uiso   1.00
C242   C     0.05295   0.49415   0.46408   0.00000  Uiso   1.00
C243   C     0.27169   0.53824   0.04306   0.00000  Uiso   1.00
C244   C     0.06825   0.49452   0.41577   0.00000  Uiso   1.00
C245   C     0.26038   0.52544   0.08838   0.00000  Uiso   1.00
C246   C     0.14955   0.51293   0.41029   0.00000  Uiso   1.00
C247   C     0.18256   0.50011   0.09030   0.00000  Uiso   1.00
C248   C     0.13478   0.51431   0.45857   0.00000  Uiso   1.00
C249   C     0.19106   0.51610   0.04694   0.00000  Uiso   1.00
C250   C     0.08610   0.50313   0.48559   0.00000  Uiso   1.00
C251   C     0.10555   0.50467   0.05415   0.00000  Uiso   1.00
C252   C     0.23733   0.53364   0.02213   0.00000  Uiso   1.00
C253   C     0.16834   0.52336   0.48016   0.00000  Uiso   1.00
C254   C     0.15489   0.51433   0.02753   0.00000  Uiso   1.00
C255   C     0.26041   0.62828   0.23121   0.00000  Uiso   1.00
C256   C     0.07385   0.37135   0.26599   0.00000  Uiso   1.00
C257   C     0.23134   0.37542   0.28733   0.00000  Uiso   1.00
C258   C     0.10274   0.62388   0.21102   0.00000  Uiso   1.00
C259   C     0.30665   0.43991   0.19302   0.00000  Uiso   1.00
C260   C     0.02676   0.56016   0.30685   0.00000  Uiso   1.00
C261   C     0.07195   0.44403   0.19141   0.00000  Uiso   1.00
C262   C     0.21480   0.54105   0.45604   0.00000  Uiso   1.00
C263   C     0.26181   0.55688   0.30749   0.00000  Uiso   1.00
C264   C     0.07161   0.49990   0.03348   0.00000  Uiso   1.00
C265   C     0.24837   0.54665   0.47709   0.00000  Uiso   1.00
C266   C     0.21087   0.64679   0.24513   0.00000  Uiso   1.00
C267   C     0.12332   0.35291   0.25272   0.00000  Uiso   1.00
C268   C     0.20181   0.35446   0.26295   0.00000  Uiso   1.00
H269   H     0.03432   0.49215   0.05484   0.00000  Uiso   1.00
H270   H     0.22555   0.55236   0.42136   0.00000  Uiso   1.00
H271   H     0.28069   0.63103   0.25368   0.00000  Uiso   1.00
H272   H     0.05437   0.36901   0.24278   0.00000  Uiso   1.00
H273   H     0.21380   0.39820   0.31544   0.00000  Uiso   1.00
H274   H     0.12017   0.60073   0.18329   0.00000  Uiso   1.00
H275   H     0.28021   0.44688   0.17851   0.00000  Uiso   1.00
H276   H     0.05277   0.55299   0.32184   0.00000  Uiso   1.00
H277   H     0.28337   0.56061   0.45774   0.00000  Uiso   1.00
H278   H     0.14986   0.48284   0.10826   0.00000  Uiso   1.00
H279   H     0.18726   0.51729   0.38864   0.00000  Uiso   1.00
H280   H     0.28593   0.53135   0.10519   0.00000  Uiso   1.00
H281   H     0.04256   0.48678   0.39956   0.00000  Uiso   1.00
H282   H     0.01569   0.48558   0.48444   0.00000  Uiso   1.00
H283   H     0.30664   0.55275   0.02489   0.00000  Uiso   1.00
H284   H     0.09177   0.50182   0.09141   0.00000  Uiso   1.00
N285   N     0.04759   0.50001   0.25001   0.00000  Uiso   1.00
N286   N     0.28574   0.49999   0.24999   0.00000  Uiso   1.00
N287   N     0.10136   0.42152   0.16640   0.00000  Uiso   1.00
N288   N     0.23267   0.58001   0.33174   0.00000  Uiso   1.00
O289   O     0.12846   0.56108   0.25001   0.00000  Uiso   1.00
O290   O     0.05428   0.38958   0.30377   0.00000  Uiso   1.00
O291   O     0.27484   0.36901   0.27599   0.00000  Uiso   1.00
O292   O     0.05927   0.63039   0.22223   0.00000  Uiso   1.00
O293   O     0.32491   0.40509   0.18473   0.00000  Uiso   1.00
O294   O     0.00906   0.59519   0.31456   0.00000  Uiso   1.00
O295   O     0.20488   0.43892   0.25000   0.00000  Uiso   1.00
O296   O     0.20490   0.56107   0.25000   0.00000  Uiso   1.00
O297   O     0.12843   0.43893   0.25000   0.00000  Uiso   1.00
O298   O     0.10661   0.50001   0.31613   0.00000  Uiso   1.00
O299   O     0.22672   0.49999   0.18388   0.00000  Uiso   1.00
O300   O     0.18305   0.50000   0.31612   0.00000  Uiso   1.00
O301   O     0.15028   0.50000   0.18388   0.00000  Uiso   1.00
O302   O     0.27908   0.60939   0.19373   0.00000  Uiso   1.00
Zn303  Zn    0.11562   0.50001   0.25000   0.00000  Uiso   1.00
Zn304  Zn    0.21771   0.49999   0.25000   0.00000  Uiso   1.00
C305   C     0.50264   0.57974   0.24435   0.00000  Uiso   1.00
C306   C     0.46568   0.64518   0.23513   0.00000  Uiso   1.00
C307   C     0.49435   0.37516   0.26090   0.00000  Uiso   1.00
C308   C     0.50628   0.62451   0.23750   0.00000  Uiso   1.00
C309   C     0.65333   0.47134   0.22261   0.00000  Uiso   1.00
C310   C     0.34671   0.52872   0.27731   0.00000  Uiso   1.00
C311   C     0.36827   0.47189   0.22241   0.00000  Uiso   1.00
C312   C     0.63184   0.52832   0.27732   0.00000  Uiso   1.00
C313   C     0.46950   0.50048   0.33799   0.00000  Uiso   1.00
C314   C     0.53047   0.50037   0.16207   0.00000  Uiso   1.00
C315   C     0.45040   0.50289   0.38878   0.00000  Uiso   1.00
C316   C     0.49754   0.42013   0.25518   0.00000  Uiso   1.00
C317   C     0.54865   0.50672   0.11218   0.00000  Uiso   1.00
C318   C     0.38628   0.49415   0.46408   0.00000  Uiso   1.00
C319   C     0.60503   0.53824   0.04306   0.00000  Uiso   1.00
C320   C     0.40158   0.49452   0.41577   0.00000  Uiso   1.00
C321   C     0.59372   0.52544   0.08838   0.00000  Uiso   1.00
C322   C     0.48288   0.51293   0.41029   0.00000  Uiso   1.00
C323   C     0.51590   0.50011   0.09030   0.00000  Uiso   1.00
C324   C     0.46811   0.51431   0.45857   0.00000  Uiso   1.00
C325   C     0.52439   0.51610   0.04694   0.00000  Uiso   1.00
C326   C     0.41943   0.50313   0.48559   0.00000  Uiso   1.00
C327   C     0.43888   0.50467   0.05415   0.00000  Uiso   1.00
C328   C     0.57067   0.53364   0.02213   0.00000  Uiso   1.00
C329   C     0.50167   0.52336   0.48016   0.00000  Uiso   1.00
C330   C     0.48822   0.51433   0.02753   0.00000  Uiso   1.00
C331   C     0.59374   0.62828   0.23121   0.00000  Uiso   1.00
C332   C     0.40718   0.37135   0.26599   0.00000  Uiso   1.00
C333   C     0.56467   0.37542   0.28733   0.00000  Uiso   1.00
C334   C     0.43607   0.62388   0.21102   0.00000  Uiso   1.00
C335   C     0.63999   0.43991   0.19302   0.00000  Uiso   1.00
C336   C     0.36009   0.56016   0.30685   0.00000  Uiso   1.00
C337   C     0.40528   0.44403   0.19141   0.00000  Uiso   1.00
C338   C     0.54813   0.54105   0.45604   0.00000  Uiso   1.00
C339   C     0.59514   0.55688   0.30749   0.00000  Uiso   1.00
C340   C     0.40495   0.49990   0.03348   0.00000  Uiso   1.00
C341   C     0.58170   0.54665   0.47709   0.00000  Uiso   1.00
C342   C     0.54420   0.64679   0.24513   0.00000  Uiso   1.00
C343   C     0.45665   0.35291   0.25272   0.00000  Uiso   1.00
C344   C     0.53514   0.35446   0.26295   0.00000  Uiso   1.00
H345   H     0.36765   0.49215   0.05484   0.00000  Uiso   1.00
H346   H     0.55888   0.55236   0.42136   0.00000  Uiso   1.00
H347   H     0.61402   0.63103   0.25368   0.00000  Uiso   1.00
H348   H     0.38770   0.36901   0.24278   0.00000  Uiso   1.00
H349   H     0.54713   0.39820   0.31544   0.00000  Uiso   1.00
H350   H     0.45351   0.60073   0.18329   0.00000  Uiso   1.00
H351   H     0.61354   0.44688   0.17851   0.00000  Uiso   1.00
H352   H     0.38610   0.55299   0.32184   0.00000  Uiso   1.00
H353   H     0.61670   0.56061   0.45774   0.00000  Uiso   1.00
H354   H     0.48319   0.48284   0.10826   0.00000  Uiso   1.00
H355   H     0.52060   0.51729   0.38864   0.00000  Uiso   1.00
H356   H     0.61927   0.53135   0.10519   0.00000  Uiso   1.00
H357   H     0.37589   0.48678   0.39956   0.00000  Uiso   1.00
H358   H     0.34903   0.48558   0.48444   0.00000  Uiso   1.00
H359   H     0.63997   0.55275   0.02489   0.00000  Uiso   1.00
H360   H     0.42510   0.50182   0.09141   0.00000  Uiso   1.00
N361   N     0.38093   0.50001   0.25001   0.00000  Uiso   1.00
N362   N     0.61907   0.49999   0.24999   0.00000  Uiso   1.00
N363   N     0.43469   0.42152   0.16640   0.00000  Uiso   1.00
N364   N     0.56600   0.58001   0.33174   0.00000  Uiso   1.00
O365   O     0.46179   0.56108   0.25001   0.00000  Uiso   1.00
O366   O     0.38762   0.38958   0.30377   0.00000  Uiso   1.00
O367   O     0.60817   0.36901   0.27599   0.00000  Uiso   1.00
O368   O     0.39260   0.63039   0.22223   0.00000  Uiso   1.00
O369   O     0.65824   0.40509   0.18473   0.00000  Uiso   1.00
O370   O     0.34240   0.59519   0.31456   0.00000  Uiso   1.00
O371   O     0.53821   0.43892   0.25000   0.00000  Uiso   1.00
O372   O     0.53823   0.56107   0.25000   0.00000  Uiso   1.00
O373   O     0.46177   0.43893   0.25000   0.00000  Uiso   1.00
O374   O     0.43994   0.50001   0.31613   0.00000  Uiso   1.00
O375   O     0.56006   0.49999   0.18388   0.00000  Uiso   1.00
O376   O     0.51639   0.50000   0.31612   0.00000  Uiso   1.00
O377   O     0.48361   0.50000   0.18388   0.00000  Uiso   1.00
O378   O     0.61242   0.60939   0.19373   0.00000  Uiso   1.00
Zn379  Zn    0.44896   0.50001   0.25000   0.00000  Uiso   1.00
Zn380  Zn    0.55104   0.49999   0.25000   0.00000  Uiso   1.00
C381   C     0.83598   0.57974   0.24435   0.00000  Uiso   1.00
C382   C     0.79901   0.64518   0.23513   0.00000  Uiso   1.00
C383   C     0.82768   0.37516   0.26090   0.00000  Uiso   1.00
C384   C     0.83961   0.62451   0.23750   0.00000  Uiso   1.00
C385   C     0.98666   0.47134   0.22261   0.00000  Uiso   1.00
C386   C     0.68004   0.52872   0.27731   0.00000  Uiso   1.00
C387   C     0.70160   0.47189   0.22241   0.00000  Uiso   1.00
C388   C     0.96518   0.52832   0.27732   0.00000  Uiso   1.00
C389   C     0.80283   0.50048   0.33799   0.00000  Uiso   1.00
C390   C     0.86380   0.50037   0.16207   0.00000  Uiso   1.00
C391   C     0.78373   0.50289   0.38878   0.00000  Uiso   1.00
C392   C     0.83087   0.42013   0.25518   0.00000  Uiso   1.00
C393   C     0.88198   0.50672   0.11218   0.00000  Uiso   1.00
C394   C     0.71962   0.49415   0.46408   0.00000  Uiso   1.00
C395   C     0.93836   0.53824   0.04306   0.00000  Uiso   1.00
C396   C     0.73492   0.49452   0.41577   0.00000  Uiso   1.00
C397   C     0.92705   0.52544   0.08838   0.00000  Uiso   1.00
C398   C     0.81622   0.51293   0.41029   0.00000  Uiso   1.00
C399   C     0.84923   0.50011   0.09030   0.00000  Uiso   1.00
C400   C     0.80145   0.51431   0.45857   0.00000  Uiso   1.00
C401   C     0.85773   0.51610   0.04694   0.00000  Uiso   1.00
C402   C     0.75276   0.50313   0.48559   0.00000  Uiso   1.00
C403   C     0.77222   0.50467   0.05415   0.00000  Uiso   1.00
C404   C     0.90400   0.53364   0.02213   0.00000  Uiso   1.00
C405   C     0.83501   0.52336   0.48016   0.00000  Uiso   1.00
C406   C     0.82155   0.51433   0.02753   0.00000  Uiso   1.00
C407   C     0.92707   0.62828   0.23121   0.00000  Uiso   1.00
C408   C     0.74051   0.37135   0.26599   0.00000  Uiso   1.00
C409   C     0.89800   0.37542   0.28733   0.00000  Uiso   1.00
C410   C     0.76940   0.62388   0.21102   0.00000  Uiso   1.00
C411   C     0.97332   0.43991   0.19302   0.00000  Uiso   1.00
C412   C     0.69343   0.56016   0.30685   0.00000  Uiso   1.00
C413   C     0.73861   0.44403   0.19141   0.00000  Uiso   1.00
C414   C     0.88146   0.54105   0.45604   0.00000  Uiso   1.00
C415   C     0.92848   0.55688   0.30749   0.00000  Uiso   1.00
C416   C     0.73828   0.49990   0.03348   0.00000  Uiso   1.00
C417   C     0.91504   0.54665   0.47709   0.00000  Uiso   1.00
C418   C     0.87753   0.64679   0.24513   0.00000  Uiso   1.00
C419   C     0.78998   0.35291   0.25272   0.00000  Uiso   1.00
C420   C     0.86847   0.35446   0.26295   0.00000  Uiso   1.00
H421   H     0.70099   0.49215   0.05484   0.00000  Uiso   1.00
H422   H     0.89222   0.55236   0.42136   0.00000  Uiso   1.00
H423   H     0.94736   0.63103   0.25368   0.00000  Uiso   1.00
H424   H     0.72104   0.36901   0.24278   0.00000  Uiso   1.00
H425   H     0.88047   0.39820   0.31544   0.00000  Uiso   1.00
H426   H     0.78684   0.60073   0.18329   0.00000  Uiso   1.00
H427   H     0.94687   0.44688   0.17851   0.00000  Uiso   1.00
H428   H     0.71943   0.55299   0.32184   0.00000  Uiso   1.00
H429   H     0.95004   0.56061   0.45774   0.00000  Uiso   1.00
H430   H     0.81652   0.48284   0.10826   0.00000  Uiso   1.00
H431   H     0.85393   0.51729   0.38864   0.00000  Uiso   1.00
H432   H     0.95260   0.53135   0.10519   0.00000  Uiso   1.00
H433   H     0.70922   0.48678   0.39956   0.00000  Uiso   1.00
H434   H     0.68236   0.48558   0.48444   0.00000  Uiso   1.00
H435   H     0.97330   0.55275   0.02489   0.00000  Uiso   1.00
H436   H     0.75844   0.50182   0.09141   0.00000  Uiso   1.00
N437   N     0.71426   0.50001   0.25001   0.00000  Uiso   1.00
N438   N     0.95241   0.49999   0.24999   0.00000  Uiso   1.00
N439   N     0.76803   0.42152   0.16640   0.00000  Uiso   1.00
N440   N     0.89933   0.58001   0.33174   0.00000  Uiso   1.00
O441   O     0.79512   0.56108   0.25001   0.00000  Uiso   1.00
O442   O     0.72095   0.38958   0.30377   0.00000  Uiso   1.00
O443   O     0.94151   0.36901   0.27599   0.00000  Uiso   1.00
O444   O     0.72593   0.63039   0.22223   0.00000  Uiso   1.00
O445   O     0.99157   0.40509   0.18473   0.00000  Uiso   1.00
O446   O     0.67573   0.59519   0.31456   0.00000  Uiso   1.00
O447   O     0.87154   0.43892   0.25000   0.00000  Uiso   1.00
O448   O     0.87157   0.56107   0.25000   0.00000  Uiso   1.00
O449   O     0.79510   0.43893   0.25000   0.00000  Uiso   1.00
O450   O     0.77328   0.50001   0.31613   0.00000  Uiso   1.00
O451   O     0.89339   0.49999   0.18388   0.00000  Uiso   1.00
O452   O     0.84972   0.50000   0.31612   0.00000  Uiso   1.00
O453   O     0.81695   0.50000   0.18388   0.00000  Uiso   1.00
O454   O     0.94575   0.60939   0.19373   0.00000  Uiso   1.00
Zn455  Zn    0.78229   0.50001   0.25000   0.00000  Uiso   1.00
Zn456  Zn    0.88438   0.49999   0.25000   0.00000  Uiso   1.00
C457   C     0.16931   0.91307   0.24435   0.00000  Uiso   1.00
C458   C     0.13234   0.97851   0.23513   0.00000  Uiso   1.00
C459   C     0.16102   0.70850   0.26090   0.00000  Uiso   1.00
C460   C     0.17295   0.95784   0.23750   0.00000  Uiso   1.00
C461   C     0.32000   0.80467   0.22261   0.00000  Uiso   1.00
C462   C     0.01338   0.86206   0.27731   0.00000  Uiso   1.00
C463   C     0.03494   0.80522   0.22241   0.00000  Uiso   1.00
C464   C     0.29851   0.86166   0.27732   0.00000  Uiso   1.00
C465   C     0.13616   0.83381   0.33799   0.00000  Uiso   1.00
C466   C     0.19713   0.83370   0.16207   0.00000  Uiso   1.00
C467   C     0.11706   0.83622   0.38878   0.00000  Uiso   1.00
C468   C     0.16420   0.75346   0.25518   0.00000  Uiso   1.00
C469   C     0.21532   0.84005   0.11218   0.00000  Uiso   1.00
C470   C     0.05295   0.82748   0.46408   0.00000  Uiso   1.00
C471   C     0.27169   0.87158   0.04306   0.00000  Uiso   1.00
C472   C     0.06825   0.82786   0.41577   0.00000  Uiso   1.00
C473   C     0.26038   0.85877   0.08838   0.00000  Uiso   1.00
C474   C     0.14955   0.84627   0.41029   0.00000  Uiso   1.00
C475   C     0.18256   0.83345   0.09030   0.00000  Uiso   1.00
C476   C     0.13478   0.84764   0.45857   0.00000  Uiso   1.00
C477   C     0.19106   0.84943   0.04694   0.00000  Uiso   1.00
C478   C     0.08610   0.83646   0.48559   0.00000  Uiso   1.00
C479   C     0.10555   0.83801   0.05415   0.00000  Uiso   1.00
C480   C     0.23733   0.86698   0.02213   0.00000  Uiso   1.00
C481   C     0.16834   0.85669   0.48016   0.00000  Uiso   1.00
C482   C     0.15489   0.84766   0.02753   0.00000  Uiso   1.00
C483   C     0.26041   0.96162   0.23121   0.00000  Uiso   1.00
C484   C     0.07385   0.70469   0.26599   0.00000  Uiso   1.00
C485   C     0.23134   0.70875   0.28733   0.00000  Uiso   1.00
C486   C     0.10274   0.95722   0.21102   0.00000  Uiso   1.00
C487   C     0.30665   0.77325   0.19302   0.00000  Uiso   1.00
C488   C     0.02676   0.89349   0.30685   0.00000  Uiso   1.00
C489   C     0.07195   0.77736   0.19141   0.00000  Uiso   1.00
C490   C     0.21480   0.87438   0.45604   0.00000  Uiso   1.00
C491   C     0.26181   0.89022   0.30749   0.00000  Uiso   1.00
C492   C     0.07161   0.83323   0.03348   0.00000  Uiso   1.00
C493   C     0.24837   0.87999   0.47709   0.00000  Uiso   1.00
C494   C     0.21087   0.98013   0.24513   0.00000  Uiso   1.00
C495   C     0.12332   0.68625   0.25272   0.00000  Uiso   1.00
C496   C     0.20181   0.68779   0.26295   0.00000  Uiso   1.00
H497   H     0.03432   0.82548   0.05484   0.00000  Uiso   1.00
H498   H     0.22555   0.88569   0.42136   0.00000  Uiso   1.00
H499   H     0.28069   0.96437   0.25368   0.00000  Uiso   1.00
H500   H     0.05437   0.70234   0.24278   0.00000  Uiso   1.00
H501   H     0.21380   0.73153   0.31544   0.00000  Uiso   1.00
H502   H     0.12017   0.93407   0.18329   0.00000  Uiso   1.00
H503   H     0.28021   0.78021   0.17851   0.00000  Uiso   1.00
H504   H     0.05277   0.88633   0.32184   0.00000  Uiso   1.00
H505   H     0.28337   0.89395   0.45774   0.00000  Uiso   1.00
H506   H     0.14986   0.81617   0.10826   0.00000  Uiso   1.00
H507   H     0.18726   0.85063   0.38864   0.00000  Uiso   1.00
H508   H     0.28593   0.86468   0.10519   0.00000  Uiso   1.00
H509   H     0.04256   0.82012   0.39956   0.00000  Uiso   1.00
H510   H     0.01569   0.81891   0.48444   0.00000  Uiso   1.00
H511   H     0.30664   0.88609   0.02489   0.00000  Uiso   1.00
H512   H     0.09177   0.83515   0.09141   0.00000  Uiso   1.00
N513   N     0.04759   0.83334   0.25001   0.00000  Uiso   1.00
N514   N     0.28574   0.83332   0.24999   0.00000  Uiso   1.00
N515   N     0.10136   0.75486   0.16640   0.00000  Uiso   1.00
N516   N     0.23267   0.91335   0.33174   0.00000  Uiso   1.00
O517   O     0.12846   0.89442   0.25001   0.00000  Uiso   1.00
O518   O     0.05428   0.72292   0.30377   0.00000  Uiso   1.00
O519   O     0.27484   0.70235   0.27599   0.00000  Uiso   1.00
O520   O     0.05927   0.96373   0.22223   0.00000  Uiso   1.00
O521   O     0.32491   0.73842   0.18473   0.00000  Uiso   1.00
O522   O     0.00906   0.92853   0.31456   0.00000  Uiso   1.00
O523   O     0.20488   0.77225   0.25000   0.00000  Uiso   1.00
O524   O     0.20490   0.89441   0.25000   0.00000  Uiso   1.00
O525   O     0.12843   0.77226   0.25000   0.00000  Uiso   1.00
O526   O     0.10661   0.83334   0.31613   0.00000  Uiso   1.00
O527   O     0.22672   0.83333   0.18388   0.00000  Uiso   1.00
O528   O     0.18305   0.83333   0.31612   0.00000  Uiso   1.00
O529   O     0.15028   0.83334   0.18388   0.00000  Uiso   1.00
O530   O     0.27908   0.94272   0.19373   0.00000  Uiso   1.00
Zn531  Zn    0.11562   0.83334   0.25000   0.00000  Uiso   1.00
Zn532  Zn    0.21771   0.83333   0.25000   0.00000  Uiso   1.00
C533   C     0.50264   0.91307   0.24435   0.00000  Uiso   1.00
C534   C     0.46568   0.97851   0.23513   0.00000  Uiso   1.00
C535   C     0.49435   0.70850   0.26090   0.00000  Uiso   1.00
C536   C     0.50628   0.95784   0.23750   0.00000  Uiso   1.00
C537   C     0.65333   0.80467   0.22261   0.00000  Uiso   1.00
C538   C     0.34671   0.86206   0.27731   0.00000  Uiso   1.00
C539   C     0.36827   0.80522   0.22241   0.00000  Uiso   1.00
C540   C     0.63184   0.86166   0.27732   0.00000  Uiso   1.00
C541   C     0.46950   0.83381   0.33799   0.00000  Uiso   1.00
C542   C     0.53047   0.83370   0.16207   0.00000  Uiso   1.00
C543   C     0.45040   0.83622   0.38878   0.00000  Uiso   1.00
C544   C     0.49754   0.75346   0.25518   0.00000  Uiso   1.00
C545   C     0.54865   0.84005   0.11218   0.00000  Uiso   1.00
C546   C     0.38628   0.82748   0.46408   0.00000  Uiso   1.00
C547   C     0.60503   0.87158   0.04306   0.00000  Uiso   1.00
C548   C     0.40158   0.82786   0.41577   0.00000  Uiso   1.00
C549   C     0.59372   0.85877   0.08838   0.00000  Uiso   1.00
C550   C     0.48288   0.84627   0.41029   0.00000  Uiso   1.00
C551   C     0.51590   0.83345   0.09030   0.00000  Uiso   1.00
C552   C     0.46811   0.84764   0.45857   0.00000  Uiso   1.00
C553   C     0.52439   0.84943   0.04694   0.00000  Uiso   1.00
C554   C     0.41943   0.83646   0.48559   0.00000  Uiso   1.00
C555   C     0.43888   0.83801   0.05415   0.00000  Uiso   1.00
C556   C     0.57067   0.86698   0.02213   0.00000  Uiso   1.00
C557   C     0.50167   0.85669   0.48016   0.00000  Uiso   1.00
C558   C     0.48822   0.84766   0.02753   0.00000  Uiso   1.00
C559   C     0.59374   0.96162   0.23121   0.00000  Uiso   1.00
C560   C     0.40718   0.70469   0.26599   0.00000  Uiso   1.00
C561   C     0.56467   0.70875   0.28733   0.00000  Uiso   1.00
C562   C     0.43607   0.95722   0.21102   0.00000  Uiso   1.00
C563   C     0.63999   0.77325   0.19302   0.00000  Uiso   1.00
C564   C     0.36009   0.89349   0.30685   0.00000  Uiso   1.00
C565   C     0.40528   0.77736   0.19141   0.00000  Uiso   1.00
C566   C     0.54813   0.87438   0.45604   0.00000  Uiso   1.00
C567   C     0.59514   0.89022   0.30749   0.00000  Uiso   1.00
C568   C     0.40495   0.83323   0.03348   0.00000  Uiso   1.00
C569   C     0.58170   0.87999   0.47709   0.00000  Uiso   1.00
C570   C     0.54420   0.98013   0.24513   0.00000  Uiso   1.00
C571   C     0.45665   0.68625   0.25272   0.00000  Uiso   1.00
C572   C     0.53514   0.68779   0.26295   0.00000  Uiso   1.00
H573   H     0.36765   0.82548   0.05484   0.00000  Uiso   1.00
H574   H     0.55888   0.88569   0.42136   0.00000  Uiso   1.00
H575   H     0.61402   0.96437   0.25368   0.00000  Uiso   1.00
H576   H     0.38770   0.70234   0.24278   0.00000  Uiso   1.00
H577   H     0.54713   0.73153   0.31544   0.00000  Uiso   1.00
H578   H     0.45351   0.93407   0.18329   0.00000  Uiso   1.00
H579   H     0.61354   0.78021   0.17851   0.00000  Uiso   1.00
H580   H     0.38610   0.88633   0.32184   0.00000  Uiso   1.00
H581   H     0.61670   0.89395   0.45774   0.00000  Uiso   1.00
H582   H     0.48319   0.81617   0.10826   0.00000  Uiso   1.00
H583   H     0.52060   0.85063   0.38864   0.00000  Uiso   1.00
H584   H     0.61927   0.86468   0.10519   0.00000  Uiso   1.00
H585   H     0.37589   0.82012   0.39956   0.00000  Uiso   1.00
H586   H     0.34903   0.81891   0.48444   0.00000  Uiso   1.00
H587   H     0.63997   0.88609   0.02489   0.00000  Uiso   1.00
H588   H     0.42510   0.83515   0.09141   0.00000  Uiso   1.00
N589   N     0.38093   0.83334   0.25001   0.00000  Uiso   1.00
N590   N     0.61907   0.83332   0.24999   0.00000  Uiso   1.00
N591   N     0.43469   0.75486   0.16640   0.00000  Uiso   1.00
N592   N     0.56600   0.91335   0.33174   0.00000  Uiso   1.00
O593   O     0.46179   0.89442   0.25001   0.00000  Uiso   1.00
O594   O     0.38762   0.72292   0.30377   0.00000  Uiso   1.00
O595   O     0.60817   0.70235   0.27599   0.00000  Uiso   1.00
O596   O     0.39260   0.96373   0.22223   0.00000  Uiso   1.00
O597   O     0.65824   0.73842   0.18473   0.00000  Uiso   1.00
O598   O     0.34240   0.92853   0.31456   0.00000  Uiso   1.00
O599   O     0.53821   0.77225   0.25000   0.00000  Uiso   1.00
O600   O     0.53823   0.89441   0.25000   0.00000  Uiso   1.00
O601   O     0.46177   0.77226   0.25000   0.00000  Uiso   1.00
O602   O     0.43994   0.83334   0.31613   0.00000  Uiso   1.00
O603   O     0.56006   0.83333   0.18388   0.00000  Uiso   1.00
O604   O     0.51639   0.83333   0.31612   0.00000  Uiso   1.00
O605   O     0.48361   0.83334   0.18388   0.00000  Uiso   1.00
O606   O     0.61242   0.94272   0.19373   0.00000  Uiso   1.00
Zn607  Zn    0.44896   0.83334   0.25000   0.00000  Uiso   1.00
Zn608  Zn    0.55104   0.83333   0.25000   0.00000  Uiso   1.00
C609   C     0.83598   0.91307   0.24435   0.00000  Uiso   1.00
C610   C     0.79901   0.97851   0.23513   0.00000  Uiso   1.00
C611   C     0.82768   0.70850   0.26090   0.00000  Uiso   1.00
C612   C     0.83961   0.95784   0.23750   0.00000  Uiso   1.00
C613   C     0.98666   0.80467   0.22261   0.00000  Uiso   1.00
C614   C     0.68004   0.86206   0.27731   0.00000  Uiso   1.00
C615   C     0.70160   0.80522   0.22241   0.00000  Uiso   1.00
C616   C     0.96518   0.86166   0.27732   0.00000  Uiso   1.00
C617   C     0.80283   0.83381   0.33799   0.00000  Uiso   1.00
C618   C     0.86380   0.83370   0.16207   0.00000  Uiso   1.00
C619   C     0.78373   0.83622   0.38878   0.00000  Uiso   1.00
C620   C     0.83087   0.75346   0.25518   0.00000  Uiso   1.00
C621   C     0.88198   0.84005   0.11218   0.00000  Uiso   1.00
C622   C     0.71962   0.82748   0.46408   0.00000  Uiso   1.00
C623   C     0.93836   0.87158   0.04306   0.00000  Uiso   1.00
C624   C     0.73492   0.82786   0.41577   0.00000  Uiso   1.00
C625   C     0.92705   0.85877   0.08838   0.00000  Uiso   1.00
C626   C     0.81622   0.84627   0.41029   0.00000  Uiso   1.00
C627   C     0.84923   0.83345   0.09030   0.00000  Uiso   1.00
C628   C     0.80145   0.84764   0.45857   0.00000  Uiso   1.00
C629   C     0.85773   0.84943   0.04694   0.00000  Uiso   1.00
C630   C     0.75276   0.83646   0.48559   0.00000  Uiso   1.00
C631   C     0.77222   0.83801   0.05415   0.00000  Uiso   1.00
C632   C     0.90400   0.86698   0.02213   0.00000  Uiso   1.00
C633   C     0.83501   0.85669   0.48016   0.00000  Uiso   1.00
C634   C     0.82155   0.84766   0.02753   0.00000  Uiso   1.00
C635   C     0.92707   0.96162   0.23121   0.00000  Uiso   1.00
C636   C     0.74051   0.70469   0.26599   0.00000  Uiso   1.00
C637   C     0.89800   0.70875   0.28733   0.00000  Uiso   1.00
C638   C     0.76940   0.95722   0.21102   0.00000  Uiso   1.00
C639   C     0.97332   0.77325   0.19302   0.00000  Uiso   1.00
C640   C     0.69343   0.89349   0.30685   0.00000  Uiso   1.00
C641   C     0.73861   0.77736   0.19141   0.00000  Uiso   1.00
C642   C     0.88146   0.87438   0.45604   0.00000  Uiso   1.00
C643   C     0.92848   0.89022   0.30749   0.00000  Uiso   1.00
C644   C     0.73828   0.83323   0.03348   0.00000  Uiso   1.00
C645   C     0.91504   0.87999   0.47709   0.00000  Uiso   1.00
C646   C     0.87753   0.98013   0.24513   0.00000  Uiso   1.00
C647   C     0.78998   0.68625   0.25272   0.00000  Uiso   1.00
C648   C     0.86847   0.68779   0.26295   0.00000  Uiso   1.00
H649   H     0.70099   0.82548   0.05484   0.00000  Uiso   1.00
H650   H     0.89222   0.88569   0.42136   0.00000  Uiso   1.00
H651   H     0.94736   0.96437   0.25368   0.00000  Uiso   1.00
H652   H     0.72104   0.70234   0.24278   0.00000  Uiso   1.00
H653   H     0.88047   0.73153   0.31544   0.00000  Uiso   1.00
H654   H     0.78684   0.93407   0.18329   0.00000  Uiso   1.00
H655   H     0.94687   0.78021   0.17851   0.00000  Uiso   1.00
H656   H     0.71943   0.88633   0.32184   0.00000  Uiso   1.00
H657   H     0.95004   0.89395   0.45774   0.00000  Uiso   1.00
H658   H     0.81652   0.81617   0.10826   0.00000  Uiso   1.00
H659   H     0.85393   0.85063   0.38864   0.00000  Uiso   1.00
H660   H     0.95260   0.86468   0.10519   0.00000  Uiso   1.00
H661   H     0.70922   0.82012   0.39956   0.00000  Uiso   1.00
H662   H     0.68236   0.81891   0.48444   0.00000  Uiso   1.00
H663   H     0.97330   0.88609   0.02489   0.00000  Uiso   1.00
H664   H     0.75844   0.83515   0.09141   0.00000  Uiso   1.00
N665   N     0.71426   0.83334   0.25001   0.00000  Uiso   1.00
N666   N     0.95241   0.83332   0.24999   0.00000  Uiso   1.00
N667   N     0.76803   0.75486   0.16640   0.00000  Uiso   1.00
N668   N     0.89933   0.91335   0.33174   0.00000  Uiso   1.00
O669   O     0.79512   0.89442   0.25001   0.00000  Uiso   1.00
O670   O     0.72095   0.72292   0.30377   0.00000  Uiso   1.00
O671   O     0.94151   0.70235   0.27599   0.00000  Uiso   1.00
O672   O     0.72593   0.96373   0.22223   0.00000  Uiso   1.00
O673   O     0.99157   0.73842   0.18473   0.00000  Uiso   1.00
O674   O     0.67573   0.92853   0.31456   0.00000  Uiso   1.00
O675   O     0.87154   0.77225   0.25000   0.00000  Uiso   1.00
O676   O     0.87157   0.89441   0.25000   0.00000  Uiso   1.00
O677   O     0.79510   0.77226   0.25000   0.00000  Uiso   1.00
O678   O     0.77328   0.83334   0.31613   0.00000  Uiso   1.00
O679   O     0.89339   0.83333   0.18388   0.00000  Uiso   1.00
O680   O     0.84972   0.83333   0.31612   0.00000  Uiso   1.00
O681   O     0.81695   0.83334   0.18388   0.00000  Uiso   1.00
O682   O     0.94575   0.94272   0.19373   0.00000  Uiso   1.00
Zn683  Zn    0.78229   0.83334   0.25000   0.00000  Uiso   1.00
Zn684  Zn    0.88438   0.83333   0.25000   0.00000  Uiso   1.00
C685   C     0.16931   0.24640   0.74435   0.00000  Uiso   1.00
C686   C     0.13234   0.31184   0.73513   0.00000  Uiso   1.00
C687   C     0.16102   0.04183   0.76090   0.00000  Uiso   1.00
C688   C     0.17295   0.29118   0.73750   0.00000  Uiso   1.00
C689   C     0.32000   0.13801   0.72261   0.00000  Uiso   1.00
C690   C     0.01338   0.19539   0.77731   0.00000  Uiso   1.00
C691   C     0.03494   0.13856   0.72241   0.00000  Uiso   1.00
C692   C     0.29851   0.19499   0.77732   0.00000  Uiso   1.00
C693   C     0.13616   0.16715   0.83799   0.00000  Uiso   1.00
C694   C     0.19713   0.16704   0.66207   0.00000  Uiso   1.00
C695   C     0.11706   0.16955   0.88878   0.00000  Uiso   1.00
C696   C     0.16420   0.08679   0.75518   0.00000  Uiso   1.00
C697   C     0.21532   0.17339   0.61218   0.00000  Uiso   1.00
C698   C     0.05295   0.16082   0.96408   0.00000  Uiso   1.00
C699   C     0.27169   0.20491   0.54306   0.00000  Uiso   1.00
C700   C     0.06825   0.16119   0.91577   0.00000  Uiso   1.00
C701   C     0.26038   0.19210   0.58838   0.00000  Uiso   1.00
C702   C     0.14955   0.17960   0.91029   0.00000  Uiso   1.00
C703   C     0.18256   0.16678   0.59030   0.00000  Uiso   1.00
C704   C     0.13478   0.18097   0.95857   0.00000  Uiso   1.00
C705   C     0.19106   0.18277   0.54694   0.00000  Uiso   1.00
C706   C     0.08610   0.16979   0.98559   0.00000  Uiso   1.00
C707   C     0.10555   0.17134   0.55415   0.00000  Uiso   1.00
C708   C     0.23733   0.20031   0.52213   0.00000  Uiso   1.00
C709   C     0.16834   0.19003   0.98016   0.00000  Uiso   1.00
C710   C     0.15489   0.18099   0.52753   0.00000  Uiso   1.00
C711   C     0.26041   0.29495   0.73121   0.00000  Uiso   1.00
C712   C     0.07385   0.03802   0.76599   0.00000  Uiso   1.00
C713   C     0.23134   0.04208   0.78733   0.00000  Uiso   1.00
C714   C     0.10274   0.29055   0.71102   0.00000  Uiso   1.00
C715   C     0.30665   0.10658   0.69302   0.00000  Uiso   1.00
C716   C     0.02676   0.22683   0.80685   0.00000  Uiso   1.00
C717   C     0.07195   0.11069   0.69141   0.00000  Uiso   1.00
C718   C     0.21480   0.20772   0.95604   0.00000  Uiso   1.00
C719   C     0.26181   0.22355   0.80749   0.00000  Uiso   1.00
C720   C     0.07161   0.16657   0.53348   0.00000  Uiso   1.00
C721   C     0.24837   0.21332   0.97709   0.00000  Uiso   1.00
C722   C     0.21087   0.31346   0.74513   0.00000  Uiso   1.00
C723   C     0.12332   0.01958   0.75272   0.00000  Uiso   1.00
C724   C     0.20181   0.02112   0.76295   0.00000  Uiso   1.00
H725   H     0.03432   0.15882   0.55484   0.00000  Uiso   1.00
H726   H     0.22555   0.21903   0.92136   0.00000  Uiso   1.00
H727   H     0.28069   0.29770   0.75368   0.00000  Uiso   1.00
H728   H     0.05437   0.03568   0.74278   0.00000  Uiso   1.00
H729   H     0.21380   0.06487   0.81544   0.00000  Uiso   1.00
H730   H     0.12017   0.26740   0.68329   0.00000  Uiso   1.00
H731   H     0.28021   0.11355   0.67851   0.00000  Uiso   1.00
H732   H     0.05277   0.21966   0.82184   0.00000  Uiso   1.00
H733   H     0.28337   0.22728   0.95774   0.00000  Uiso   1.00
H734   H     0.14986   0.14951   0.60826   0.00000  Uiso   1.00
H735   H     0.18726   0.18396   0.88864   0.00000  Uiso   1.00
H736   H     0.28593   0.19802   0.60519   0.00000  Uiso   1.00
H737   H     0.04256   0.15345   0.89956   0.00000  Uiso   1.00
H738   H     0.01569   0.15224   0.98444   0.00000  Uiso   1.00
H739   H     0.30664   0.21942   0.52489   0.00000  Uiso   1.00
H740   H     0.09177   0.16849   0.59141   0.00000  Uiso   1.00
N741   N     0.04759   0.16668   0.75001   0.00000  Uiso   1.00
N742   N     0.28574   0.16666   0.74999   0.00000  Uiso   1.00
N743   N     0.10136   0.08819   0.66640   0.00000  Uiso   1.00
N744   N     0.23267   0.24668   0.83174   0.00000  Uiso   1.00
O745   O     0.12846   0.22775   0.75001   0.00000  Uiso   1.00
O746   O     0.05428   0.05625   0.80377   0.00000  Uiso   1.00
O747   O     0.27484   0.03568   0.77599   0.00000  Uiso   1.00
O748   O     0.05927   0.29706   0.72223   0.00000  Uiso   1.00
O749   O     0.32491   0.07176   0.68473   0.00000  Uiso   1.00
O750   O     0.00906   0.26186   0.81456   0.00000  Uiso   1.00
O751   O     0.20488   0.10558   0.75000   0.00000  Uiso   1.00
O752   O     0.20490   0.22774   0.75000   0.00000  Uiso   1.00
O753   O     0.12843   0.10559   0.75000   0.00000  Uiso   1.00
O754   O     0.10661   0.16667   0.81613   0.00000  Uiso   1.00
O755   O     0.22672   0.16666   0.68388   0.00000  Uiso   1.00
O756   O     0.18305   0.16666   0.81612   0.00000  Uiso   1.00
O757   O     0.15028   0.16667   0.68388   0.00000  Uiso   1.00
O758   O     0.27908   0.27605   0.69373   0.00000  Uiso   1.00
Zn759  Zn    0.11562   0.16667   0.75000   0.00000  Uiso   1.00
Zn760  Zn    0.21771   0.16666   0.75000   0.00000  Uiso   1.00
C761   C     0.50264   0.24640   0.74435   0.00000  Uiso   1.00
C762   C     0.46568   0.31184   0.73513   0.00000  Uiso   1.00
C763   C     0.49435   0.04183   0.76090   0.00000  Uiso   1.00
C764   C     0.50628   0.29118   0.73750   0.00000  Uiso   1.00
C765   C     0.65333   0.13801   0.72261   0.00000  Uiso   1.00
C766   C     0.34671   0.19539   0.77731   0.00000  Uiso   1.00
C767   C     0.36827   0.13856   0.72241   0.00000  Uiso   1.00
C768   C     0.63184   0.19499   0.77732   0.00000  Uiso   1.00
C769   C     0.46950   0.16715   0.83799   0.00000  Uiso   1.00
C770   C     0.53047   0.16704   0.66207   0.00000  Uiso   1.00
C771   C     0.45040   0.16955   0.88878   0.00000  Uiso   1.00
C772   C     0.49754   0.08679   0.75518   0.00000  Uiso   1.00
C773   C     0.54865   0.17339   0.61218   0.00000  Uiso   1.00
C774   C     0.38628   0.16082   0.96408   0.00000  Uiso   1.00
C775   C     0.60503   0.20491   0.54306   0.00000  Uiso   1.00
C776   C     0.40158   0.16119   0.91577   0.00000  Uiso   1.00
C777   C     0.59372   0.19210   0.58838   0.00000  Uiso   1.00
C778   C     0.48288   0.17960   0.91029   0.00000  Uiso   1.00
C779   C     0.51590   0.16678   0.59030   0.00000  Uiso   1.00
C780   C     0.46811   0.18097   0.95857   0.00000  Uiso   1.00
C781   C     0.52439   0.18277   0.54694   0.00000  Uiso   1.00
C782   C     0.41943   0.16979   0.98559   0.00000  Uiso   1.00
C783   C     0.43888   0.17134   0.55415   0.00000  Uiso   1.00
C784   C     0.57067   0.20031   0.52213   0.00000  Uiso   1.00
C785   C     0.50167   0.19003   0.98016   0.00000  Uiso   1.00
C786   C     0.48822   0.18099   0.52753   0.00000  Uiso   1.00
C787   C     0.59374   0.29495   0.73121   0.00000  Uiso   1.00
C788   C     0.40718   0.03802   0.76599   0.00000  Uiso   1.00
C789   C     0.56467   0.04208   0.78733   0.00000  Uiso   1.00
C790   C     0.43607   0.29055   0.71102   0.00000  Uiso   1.00
C791   C     0.63999   0.10658   0.69302   0.00000  Uiso   1.00
C792   C     0.36009   0.22683   0.80685   0.00000  Uiso   1.00
C793   C     0.40528   0.11069   0.69141   0.00000  Uiso   1.00
C794   C     0.54813   0.20772   0.95604   0.00000  Uiso   1.00
C795   C     0.59514   0.22355   0.80749   0.00000  Uiso   1.00
C796   C     0.40495   0.16657   0.53348   0.00000  Uiso   1.00
C797   C     0.58170   0.21332   0.97709   0.00000  Uiso   1.00
C798   C     0.54420   0.31346   0.74513   0.00000  Uiso   1.00
C799   C     0.45665   0.01958   0.75272   0.00000  Uiso   1.00
C800   C     0.53514   0.02112   0.76295   0.00000  Uiso   1.00
H801   H     0.36765   0.15882   0.55484   0.00000  Uiso   1.00
H802   H     0.55888   0.21903   0.92136   0.00000  Uiso   1.00
H803   H     0.61402   0.29770   0.75368   0.00000  Uiso   1.00
H804   H     0.38770   0.03568   0.74278   0.00000  Uiso   1.00
H805   H     0.54713   0.06487   0.81544   0.00000  Uiso   1.00
H806   H     0.45351   0.26740   0.68329   0.00000  Uiso   1.00
H807   H     0.61354   0.11355   0.67851   0.00000  Uiso   1.00
H808   H     0.38610   0.21966   0.82184   0.00000  Uiso   1.00
H809   H     0.61670   0.22728   0.95774   0.00000  Uiso   1.00
H810   H     0.48319   0.14951   0.60826   0.00000  Uiso   1.00
H811   H     0.52060   0.18396   0.88864   0.00000  Uiso   1.00
H812   H     0.61927   0.19802   0.60519   0.00000  Uiso   1.00
H813   H     0.37589   0.15345   0.89956   0.00000  Uiso   1.00
H814   H     0.34903   0.15224   0.98444   0.00000  Uiso   1.00
H815   H     0.63997   0.21942   0.52489   0.00000  Uiso   1.00
H816   H     0.42510   0.16849   0.59141   0.00000  Uiso   1.00
N817   N     0.38093   0.16668   0.75001   0.00000  Uiso   1.00
N818   N     0.61907   0.16666   0.74999   0.00000  Uiso   1.00
N819   N     0.43469   0.08819   0.66640   0.00000  Uiso   1.00
N820   N     0.56600   0.24668   0.83174   0.00000  Uiso   1.00
O821   O     0.46179   0.22775   0.75001   0.00000  Uiso   1.00
O822   O     0.38762   0.05625   0.80377   0.00000  Uiso   1.00
O823   O     0.60817   0.03568   0.77599   0.00000  Uiso   1.00
O824   O     0.39260   0.29706   0.72223   0.00000  Uiso   1.00
O825   O     0.65824   0.07176   0.68473   0.00000  Uiso   1.00
O826   O     0.34240   0.26186   0.81456   0.00000  Uiso   1.00
O827   O     0.53821   0.10558   0.75000   0.00000  Uiso   1.00
O828   O     0.53823   0.22774   0.75000   0.00000  Uiso   1.00
O829   O     0.46177   0.10559   0.75000   0.00000  Uiso   1.00
O830   O     0.43994   0.16667   0.81613   0.00000  Uiso   1.00
O831   O     0.56006   0.16666   0.68388   0.00000  Uiso   1.00
O832   O     0.51639   0.16666   0.81612   0.00000  Uiso   1.00
O833   O     0.48361   0.16667   0.68388   0.00000  Uiso   1.00
O834   O     0.61242   0.27605   0.69373   0.00000  Uiso   1.00
Zn835  Zn    0.44896   0.16667   0.75000   0.00000  Uiso   1.00
Zn836  Zn    0.55104   0.16666   0.75000   0.00000  Uiso   1.00
C837   C     0.83598   0.24640   0.74435   0.00000  Uiso   1.00
C838   C     0.79901   0.31184   0.73513   0.00000  Uiso   1.00
C839   C     0.82768   0.04183   0.76090   0.00000  Uiso   1.00
C840   C     0.83961   0.29118   0.73750   0.00000  Uiso   1.00
C841   C     0.98666   0.13801   0.72261   0.00000  Uiso   1.00
C842   C     0.68004   0.19539   0.77731   0.00000  Uiso   1.00
C843   C     0.70160   0.13856   0.72241   0.00000  Uiso   1.00
C844   C     0.96518   0.19499   0.77732   0.00000  Uiso   1.00
C845   C     0.80283   0.16715   0.83799   0.00000  Uiso   1.00
C846   C     0.86380   0.16704   0.66207   0.00000  Uiso   1.00
C847   C     0.78373   0.16955   0.88878   0.00000  Uiso   1.00
C848   C     0.83087   0.08679   0.75518   0.00000  Uiso   1.00
C849   C     0.88198   0.17339   0.61218   0.00000  Uiso   1.00
C850   C     0.71962   0.16082   0.96408   0.00000  Uiso   1.00
C851   C     0.93836   0.20491   0.54306   0.00000  Uiso   1.00
C852   C     0.73492   0.16119   0.91577   0.00000  Uiso   1.00
C853   C     0.92705   0.19210   0.58838   0.00000  Uiso   1.00
C854   C     0.81622   0.17960   0.91029   0.00000  Uiso   1.00
C855   C     0.84923   0.16678   0.59030   0.00000  Uiso   1.00
C856   C     0.80145   0.18097   0.95857   0.00000  Uiso   1.00
C857   C     0.85773   0.18277   0.54694   0.00000  Uiso   1.00
C858   C     0.75276   0.16979   0.98559   0.00000  Uiso   1.00
C859   C     0.77222   0.17134   0.55415   0.00000  Uiso   1.00
C860   C     0.90400   0.20031   0.52213   0.00000  Uiso   1.00
C861   C     0.83501   0.19003   0.98016   0.00000  Uiso   1.00
C862   C     0.82155   0.18099   0.52753   0.00000  Uiso   1.00
C863   C     0.92707   0.29495   0.73121   0.00000  Uiso   1.00
C864   C     0.74051   0.03802   0.76599   0.00000  Uiso   1.00
C865   C     0.89800   0.04208   0.78733   0.00000  Uiso   1.00
C866   C     0.76940   0.29055   0.71102   0.00000  Uiso   1.00
C867   C     0.97332   0.10658   0.69302   0.00000  Uiso   1.00
C868   C     0.69343   0.22683   0.80685   0.00000  Uiso   1.00
C869   C     0.73861   0.11069   0.69141   0.00000  Uiso   1.00
C870   C     0.88146   0.20772   0.95604   0.00000  Uiso   1.00
C871   C     0.92848   0.22355   0.80749   0.00000  Uiso   1.00
C872   C     0.73828   0.16657   0.53348   0.00000  Uiso   1.00
C873   C     0.91504   0.21332   0.97709   0.00000  Uiso   1.00
C874   C     0.87753   0.31346   0.74513   0.00000  Uiso   1.00
C875   C     0.78998   0.01958   0.75272   0.00000  Uiso   1.00
C876   C     0.86847   0.02112   0.76295   0.00000  Uiso   1.00
H877   H     0.70099   0.15882   0.55484   0.00000  Uiso   1.00
H878   H     0.89222   0.21903   0.92136   0.00000  Uiso   1.00
H879   H     0.94736   0.29770   0.75368   0.00000  Uiso   1.00
H880   H     0.72104   0.03568   0.74278   0.00000  Uiso   1.00
H881   H     0.88047   0.06487   0.81544   0.00000  Uiso   1.00
H882   H     0.78684   0.26740   0.68329   0.00000  Uiso   1.00
H883   H     0.94687   0.11355   0.67851   0.00000  Uiso   1.00
H884   H     0.71943   0.21966   0.82184   0.00000  Uiso   1.00
H885   H     0.95004   0.22728   0.95774   0.00000  Uiso   1.00
H886   H     0.81652   0.14951   0.60826   0.00000  Uiso   1.00
H887   H     0.85393   0.18396   0.88864   0.00000  Uiso   1.00
H888   H     0.95260   0.19802   0.60519   0.00000  Uiso   1.00
H889   H     0.70922   0.15345   0.89956   0.00000  Uiso   1.00
H890   H     0.68236   0.15224   0.98444   0.00000  Uiso   1.00
H891   H     0.97330   0.21942   0.52489   0.00000  Uiso   1.00
H892   H     0.75844   0.16849   0.59141   0.00000  Uiso   1.00
N893   N     0.71426   0.16668   0.75001   0.00000  Uiso   1.00
N894   N     0.95241   0.16666   0.74999   0.00000  Uiso   1.00
N895   N     0.76803   0.08819   0.66640   0.00000  Uiso   1.00
N896   N     0.89933   0.24668   0.83174   0.00000  Uiso   1.00
O897   O     0.79512   0.22775   0.75001   0.00000  Uiso   1.00
O898   O     0.72095   0.05625   0.80377   0.00000  Uiso   1.00
O899   O     0.94151   0.03568   0.77599   0.00000  Uiso   1.00
O900   O     0.72593   0.29706   0.72223   0.00000  Uiso   1.00
O901   O     0.99157   0.07176   0.68473   0.00000  Uiso   1.00
O902   O     0.67573   0.26186   0.81456   0.00000  Uiso   1.00
O903   O     0.87154   0.10558   0.75000   0.00000  Uiso   1.00
O904   O     0.87157   0.22774   0.75000   0.00000  Uiso   1.00
O905   O     0.79510   0.10559   0.75000   0.00000  Uiso   1.00
O906   O     0.77328   0.16667   0.81613   0.00000  Uiso   1.00
O907   O     0.89339   0.16666   0.68388   0.00000  Uiso   1.00
O908   O     0.84972   0.16666   0.81612   0.00000  Uiso   1.00
O909   O     0.81695   0.16667   0.68388   0.00000  Uiso   1.00
O910   O     0.94575   0.27605   0.69373   0.00000  Uiso   1.00
Zn911  Zn    0.78229   0.16667   0.75000   0.00000  Uiso   1.00
Zn912  Zn    0.88438   0.16666   0.75000   0.00000  Uiso   1.00
C913   C     0.16931   0.57974   0.74435   0.00000  Uiso   1.00
C914   C     0.13234   0.64518   0.73513   0.00000  Uiso   1.00
C915   C     0.16102   0.37516   0.76090   0.00000  Uiso   1.00
C916   C     0.17295   0.62451   0.73750   0.00000  Uiso   1.00
C917   C     0.32000   0.47134   0.72261   0.00000  Uiso   1.00
C918   C     0.01338   0.52872   0.77731   0.00000  Uiso   1.00
C919   C     0.03494   0.47189   0.72241   0.00000  Uiso   1.00
C920   C     0.29851   0.52832   0.77732   0.00000  Uiso   1.00
C921   C     0.13616   0.50048   0.83799   0.00000  Uiso   1.00
C922   C     0.19713   0.50037   0.66207   0.00000  Uiso   1.00
C923   C     0.11706   0.50289   0.88878   0.00000  Uiso   1.00
C924   C     0.16420   0.42013   0.75518   0.00000  Uiso   1.00
C925   C     0.21532   0.50672   0.61218   0.00000  Uiso   1.00
C926   C     0.05295   0.49415   0.96408   0.00000  Uiso   1.00
C927   C     0.27169   0.53824   0.54306   0.00000  Uiso   1.00
C928   C     0.06825   0.49452   0.91577   0.00000  Uiso   1.00
C929   C     0.26038   0.52544   0.58838   0.00000  Uiso   1.00
C930   C     0.14955   0.51293   0.91029   0.00000  Uiso   1.00
C931   C     0.18256   0.50011   0.59030   0.00000  Uiso   1.00
C932   C     0.13478   0.51431   0.95857   0.00000  Uiso   1.00
C933   C     0.19106   0.51610   0.54694   0.00000  Uiso   1.00
C934   C     0.08610   0.50313   0.98559   0.00000  Uiso   1.00
C935   C     0.10555   0.50467   0.55415   0.00000  Uiso   1.00
C936   C     0.23733   0.53364   0.52213   0.00000  Uiso   1.00
C937   C     0.16834   0.52336   0.98016   0.00000  Uiso   1.00
C938   C     0.15489   0.51433   0.52753   0.00000  Uiso   1.00
C939   C     0.26041   0.62828   0.73121   0.00000  Uiso   1.00
C940   C     0.07385   0.37135   0.76599   0.00000  Uiso   1.00
C941   C     0.23134   0.37542   0.78733   0.00000  Uiso   1.00
C942   C     0.10274   0.62388   0.71102   0.00000  Uiso   1.00
C943   C     0.30665   0.43991   0.69302   0.00000  Uiso   1.00
C944   C     0.02676   0.56016   0.80685   0.00000  Uiso   1.00
C945   C     0.07195   0.44403   0.69141   0.00000  Uiso   1.00
C946   C     0.21480   0.54105   0.95604   0.00000  Uiso   1.00
C947   C     0.26181   0.55688   0.80749   0.00000  Uiso   1.00
C948   C     0.07161   0.49990   0.53348   0.00000  Uiso   1.00
C949   C     0.24837   0.54665   0.97709   0.00000  Uiso   1.00
C950   C     0.21087   0.64679   0.74513   0.00000  Uiso   1.00
C951   C     0.12332   0.35291   0.75272   0.00000  Uiso   1.00
C952   C     0.20181   0.35446   0.76295   0.00000  Uiso   1.00
H953   H     0.03432   0.49215   0.55484   0.00000  Uiso   1.00
H954   H     0.22555   0.55236   0.92136   0.00000  Uiso   1.00
H955   H     0.28069   0.63103   0.75368   0.00000  Uiso   1.00
H956   H     0.05437   0.36901   0.74278   0.00000  Uiso   1.00
H957   H     0.21380   0.39820   0.81544   0.00000  Uiso   1.00
H958   H     0.12017   0.60073   0.68329   0.00000  Uiso   1.00
H959   H     0.28021   0.44688   0.67851   0.00000  Uiso   1.00
H960   H     0.05277   0.55299   0.82184   0.00000  Uiso   1.00
H961   H     0.28337   0.56061   0.95774   0.00000  Uiso   1.00
H962   H     0.14986   0.48284   0.60826   0.00000  Uiso   1.00
H963   H     0.18726   0.51729   0.88864   0.00000  Uiso   1.00
H964   H     0.28593   0.53135   0.60519   0.00000  Uiso   1.00
H965   H     0.04256   0.48678   0.89956   0.00000  Uiso   1.00
H966   H     0.01569   0.48558   0.98444   0.00000  Uiso   1.00
H967   H     0.30664   0.55275   0.52489   0.00000  Uiso   1.00
H968   H     0.09177   0.50182   0.59141   0.00000  Uiso   1.00
N969   N     0.04759   0.50001   0.75001   0.00000  Uiso   1.00
N970   N     0.28574   0.49999   0.74999   0.00000  Uiso   1.00
N971   N     0.10136   0.42152   0.66640   0.00000  Uiso   1.00
N972   N     0.23267   0.58001   0.83174   0.00000  Uiso   1.00
O973   O     0.12846   0.56108   0.75001   0.00000  Uiso   1.00
O974   O     0.05428   0.38958   0.80377   0.00000  Uiso   1.00
O975   O     0.27484   0.36901   0.77599   0.00000  Uiso   1.00
O976   O     0.05927   0.63039   0.72223   0.00000  Uiso   1.00
O977   O     0.32491   0.40509   0.68473   0.00000  Uiso   1.00
O978   O     0.00906   0.59519   0.81456   0.00000  Uiso   1.00
O979   O     0.20488   0.43892   0.75000   0.00000  Uiso   1.00
O980   O     0.20490   0.56107   0.75000   0.00000  Uiso   1.00
O981   O     0.12843   0.43893   0.75000   0.00000  Uiso   1.00
O982   O     0.10661   0.50001   0.81613   0.00000  Uiso   1.00
O983   O     0.22672   0.49999   0.68388   0.00000  Uiso   1.00
O984   O     0.18305   0.50000   0.81612   0.00000  Uiso   1.00
O985   O     0.15028   0.50000   0.68388   0.00000  Uiso   1.00
O986   O     0.27908   0.60939   0.69373   0.00000  Uiso   1.00
Zn987  Zn    0.11562   0.50001   0.75000   0.00000  Uiso   1.00
Zn988  Zn    0.21771   0.49999   0.75000   0.00000  Uiso   1.00
C989   C     0.50264   0.57974   0.74435   0.00000  Uiso   1.00
C990   C     0.46568   0.64518   0.73513   0.00000  Uiso   1.00
C991   C     0.49435   0.37516   0.76090   0.00000  Uiso   1.00
C992   C     0.50628   0.62451   0.73750   0.00000  Uiso   1.00
C993   C     0.65333   0.47134   0.72261   0.00000  Uiso   1.00
C994   C     0.34671   0.52872   0.77731   0.00000  Uiso   1.00
C995   C     0.36827   0.47189   0.72241   0.00000  Uiso   1.00
C996   C     0.63184   0.52832   0.77732   0.00000  Uiso   1.00
C997   C     0.46950   0.50048   0.83799   0.00000  Uiso   1.00
C998   C     0.53047   0.50037   0.66207   0.00000  Uiso   1.00
C999   C     0.45040   0.50289   0.88878   0.00000  Uiso   1.00
C1000  C     0.49754   0.42013   0.75518   0.00000  Uiso   1.00
C1001  C     0.54865   0.50672   0.61218   0.00000  Uiso   1.00
C1002  C     0.38628   0.49415   0.96408   0.00000  Uiso   1.00
C1003  C     0.60503   0.53824   0.54306   0.00000  Uiso   1.00
C1004  C     0.40158   0.49452   0.91577   0.00000  Uiso   1.00
C1005  C     0.59372   0.52544   0.58838   0.00000  Uiso   1.00
C1006  C     0.48288   0.51293   0.91029   0.00000  Uiso   1.00
C1007  C     0.51590   0.50011   0.59030   0.00000  Uiso   1.00
C1008  C     0.46811   0.51431   0.95857   0.00000  Uiso   1.00
C1009  C     0.52439   0.51610   0.54694   0.00000  Uiso   1.00
C1010  C     0.41943   0.50313   0.98559   0.00000  Uiso   1.00
C1011  C     0.43888   0.50467   0.55415   0.00000  Uiso   1.00
C1012  C     0.57067   0.53364   0.52213   0.00000  Uiso   1.00
C1013  C     0.50167   0.52336   0.98016   0.00000  Uiso   1.00
C1014  C     0.48822   0.51433   0.52753   0.00000  Uiso   1.00
C1015  C     0.59374   0.62828   0.73121   0.00000  Uiso   1.00
C1016  C     0.40718   0.37135   0.76599   0.00000  Uiso   1.00
C1017  C     0.56467   0.37542   0.78733   0.00000  Uiso   1.00
C1018  C     0.43607   0.62388   0.71102   0.00000  Uiso   1.00
C1019  C     0.63999   0.43991   0.69302   0.00000  Uiso   1.00
C1020  C     0.36009   0.56016   0.80685   0.00000  Uiso   1.00
C1021  C     0.40528   0.44403   0.69141   0.00000  Uiso   1.00
C1022  C     0.54813   0.54105   0.95604   0.00000  Uiso   1.00
C1023  C     0.59514   0.55688   0.80749   0.00000  Uiso   1.00
C1024  C     0.40495   0.49990   0.53348   0.00000  Uiso   1.00
C1025  C     0.58170   0.54665   0.97709   0.00000  Uiso   1.00
C1026  C     0.54420   0.64679   0.74513   0.00000  Uiso   1.00
C1027  C     0.45665   0.35291   0.75272   0.00000  Uiso   1.00
C1028  C     0.53514   0.35446   0.76295   0.00000  Uiso   1.00
H1029  H     0.36765   0.49215   0.55484   0.00000  Uiso   1.00
H1030  H     0.55888   0.55236   0.92136   0.00000  Uiso   1.00
H1031  H     0.61402   0.63103   0.75368   0.00000  Uiso   1.00
H1032  H     0.38770   0.36901   0.74278   0.00000  Uiso   1.00
H1033  H     0.54713   0.39820   0.81544   0.00000  Uiso   1.00
H1034  H     0.45351   0.60073   0.68329   0.00000  Uiso   1.00
H1035  H     0.61354   0.44688   0.67851   0.00000  Uiso   1.00
H1036  H     0.38610   0.55299   0.82184   0.00000  Uiso   1.00
H1037  H     0.61670   0.56061   0.95774   0.00000  Uiso   1.00
H1038  H     0.48319   0.48284   0.60826   0.00000  Uiso   1.00
H1039  H     0.52060   0.51729   0.88864   0.00000  Uiso   1.00
H1040  H     0.61927   0.53135   0.60519   0.00000  Uiso   1.00
H1041  H     0.37589   0.48678   0.89956   0.00000  Uiso   1.00
H1042  H     0.34903   0.48558   0.98444   0.00000  Uiso   1.00
H1043  H     0.63997   0.55275   0.52489   0.00000  Uiso   1.00
H1044  H     0.42510   0.50182   0.59141   0.00000  Uiso   1.00
N1045  N     0.38093   0.50001   0.75001   0.00000  Uiso   1.00
N1046  N     0.61907   0.49999   0.74999   0.00000  Uiso   1.00
N1047  N     0.43469   0.42152   0.66640   0.00000  Uiso   1.00
N1048  N     0.56600   0.58001   0.83174   0.00000  Uiso   1.00
O1049  O     0.46179   0.56108   0.75001   0.00000  Uiso   1.00
O1050  O     0.38762   0.38958   0.80377   0.00000  Uiso   1.00
O1051  O     0.60817   0.36901   0.77599   0.00000  Uiso   1.00
O1052  O     0.39260   0.63039   0.72223   0.00000  Uiso   1.00
O1053  O     0.65824   0.40509   0.68473   0.00000  Uiso   1.00
O1054  O     0.34240   0.59519   0.81456   0.00000  Uiso   1.00
O1055  O     0.53821   0.43892   0.75000   0.00000  Uiso   1.00
O1056  O     0.53823   0.56107   0.75000   0.00000  Uiso   1.00
O1057  O     0.46177   0.43893   0.75000   0.00000  Uiso   1.00
O1058  O     0.43994   0.50001   0.81613   0.00000  Uiso   1.00
O1059  O     0.56006   0.49999   0.68388   0.00000  Uiso   1.00
O1060  O     0.51639   0.50000   0.81612   0.00000  Uiso   1.00
O1061  O     0.48361   0.50000   0.68388   0.00000  Uiso   1.00
O1062  O     0.61242   0.60939   0.69373   0.00000  Uiso   1.00
Zn1063 Zn    0.44896   0.50001   0.75000   0.00000  Uiso   1.00
Zn1064 Zn    0.55104   0.49999   0.75000   0.00000  Uiso   1.00
C1065  C     0.83598   0.57974   0.74435   0.00000  Uiso   1.00
C1066  C     0.79901   0.64518   0.73513   0.00000  Uiso   1.00
C1067  C     0.82768   0.37516   0.76090   0.00000  Uiso   1.00
C1068  C     0.83961   0.62451   0.73750   0.00000  Uiso   1.00
C1069  C     0.98666   0.47134   0.72261   0.00000  Uiso   1.00
C1070  C     0.68004   0.52872   0.77731   0.00000  Uiso   1.00
C1071  C     0.70160   0.47189   0.72241   0.00000  Uiso   1.00
C1072  C     0.96518   0.52832   0.77732   0.00000  Uiso   1.00
C1073  C     0.80283   0.50048   0.83799   0.00000  Uiso   1.00
C1074  C     0.86380   0.50037   0.66207   0.00000  Uiso   1.00
C1075  C     0.78373   0.50289   0.88878   0.00000  Uiso   1.00
C1076  C     0.83087   0.42013   0.75518   0.00000  Uiso   1.00
C1077  C     0.88198   0.50672   0.61218   0.00000  Uiso   1.00
C1078  C     0.71962   0.49415   0.96408   0.00000  Uiso   1.00
C1079  C     0.93836   0.53824   0.54306   0.00000  Uiso   1.00
C1080  C     0.73492   0.49452   0.91577   0.00000  Uiso   1.00
C1081  C     0.92705   0.52544   0.58838   0.00000  Uiso   1.00
C1082  C     0.81622   0.51293   0.91029   0.00000  Uiso   1.00
C1083  C     0.84923   0.50011   0.59030   0.00000  Uiso   1.00
C1084  C     0.80145   0.51431   0.95857   0.00000  Uiso   1.00
C1085  C     0.85773   0.51610   0.54694   0.00000  Uiso   1.00
C1086  C     0.75276   0.50313   0.98559   0.00000  Uiso   1.00
C1087  C     0.77222   0.50467   0.55415   0.00000  Uiso   1.00
C1088  C     0.90400   0.53364   0.52213   0.00000  Uiso   1.00
C1089  C     0.83501   0.52336   0.98016   0.00000  Uiso   1.00
C1090  C     0.82155   0.51433   0.52753   0.00000  Uiso   1.00
C1091  C     0.92707   0.62828   0.73121   0.00000  Uiso   1.00
C1092  C     0.74051   0.37135   0.76599   0.00000  Uiso   1.00
C1093  C     0.89800   0.37542   0.78733   0.00000  Uiso   1.00
C1094  C     0.76940   0.62388   0.71102   0.00000  Uiso   1.00
C1095  C     0.97332   0.43991   0.69302   0.00000  Uiso   1.00
C1096  C     0.69343   0.56016   0.80685   0.00000  Uiso   1.00
C1097  C     0.73861   0.44403   0.69141   0.00000  Uiso   1.00
C1098  C     0.88146   0.54105   0.95604   0.00000  Uiso   1.00
C1099  C     0.92848   0.55688   0.80749   0.00000  Uiso   1.00
C1100  C     0.73828   0.49990   0.53348   0.00000  Uiso   1.00
C1101  C     0.91504   0.54665   0.97709   0.00000  Uiso   1.00
C1102  C     0.87753   0.64679   0.74513   0.00000  Uiso   1.00
C1103  C     0.78998   0.35291   0.75272   0.00000  Uiso   1.00
C1104  C     0.86847   0.35446   0.76295   0.00000  Uiso   1.00
H1105  H     0.70099   0.49215   0.55484   0.00000  Uiso   1.00
H1106  H     0.89222   0.55236   0.92136   0.00000  Uiso   1.00
H1107  H     0.94736   0.63103   0.75368   0.00000  Uiso   1.00
H1108  H     0.72104   0.36901   0.74278   0.00000  Uiso   1.00
H1109  H     0.88047   0.39820   0.81544   0.00000  Uiso   1.00
H1110  H     0.78684   0.60073   0.68329   0.00000  Uiso   1.00
H1111  H     0.94687   0.44688   0.67851   0.00000  Uiso   1.00
H1112  H     0.71943   0.55299   0.82184   0.00000  Uiso   1.00
H1113  H     0.95004   0.56061   0.95774   0.00000  Uiso   1.00
H1114  H     0.81652   0.48284   0.60826   0.00000  Uiso   1.00
H1115  H     0.85393   0.51729   0.88864   0.00000  Uiso   1.00
H1116  H     0.95260   0.53135   0.60519   0.00000  Uiso   1.00
H1117  H     0.70922   0.48678   0.89956   0.00000  Uiso   1.00
H1118  H     0.68236   0.48558   0.98444   0.00000  Uiso   1.00
H1119  H     0.97330   0.55275   0.52489   0.00000  Uiso   1.00
H1120  H     0.75844   0.50182   0.59141   0.00000  Uiso   1.00
N1121  N     0.71426   0.50001   0.75001   0.00000  Uiso   1.00
N1122  N     0.95241   0.49999   0.74999   0.00000  Uiso   1.00
N1123  N     0.76803   0.42152   0.66640   0.00000  Uiso   1.00
N1124  N     0.89933   0.58001   0.83174   0.00000  Uiso   1.00
O1125  O     0.79512   0.56108   0.75001   0.00000  Uiso   1.00
O1126  O     0.72095   0.38958   0.80377   0.00000  Uiso   1.00
O1127  O     0.94151   0.36901   0.77599   0.00000  Uiso   1.00
O1128  O     0.72593   0.63039   0.72223   0.00000  Uiso   1.00
O1129  O     0.99157   0.40509   0.68473   0.00000  Uiso   1.00
O1130  O     0.67573   0.59519   0.81456   0.00000  Uiso   1.00
O1131  O     0.87154   0.43892   0.75000   0.00000  Uiso   1.00
O1132  O     0.87157   0.56107   0.75000   0.00000  Uiso   1.00
O1133  O     0.79510   0.43893   0.75000   0.00000  Uiso   1.00
O1134  O     0.77328   0.50001   0.81613   0.00000  Uiso   1.00
O1135  O     0.89339   0.49999   0.68388   0.00000  Uiso   1.00
O1136  O     0.84972   0.50000   0.81612   0.00000  Uiso   1.00
O1137  O     0.81695   0.50000   0.68388   0.00000  Uiso   1.00
O1138  O     0.94575   0.60939   0.69373   0.00000  Uiso   1.00
Zn1139 Zn    0.78229   0.50001   0.75000   0.00000  Uiso   1.00
Zn1140 Zn    0.88438   0.49999   0.75000   0.00000  Uiso   1.00
C1141  C     0.16931   0.91307   0.74435   0.00000  Uiso   1.00
C1142  C     0.13234   0.97851   0.73513   0.00000  Uiso   1.00
C1143  C     0.16102   0.70850   0.76090   0.00000  Uiso   1.00
C1144  C     0.17295   0.95784   0.73750   0.00000  Uiso   1.00
C1145  C     0.32000   0.80467   0.72261   0.00000  Uiso   1.00
C1146  C     0.01338   0.86206   0.77731   0.00000  Uiso   1.00
C1147  C     0.03494   0.80522   0.72241   0.00000  Uiso   1.00
C1148  C     0.29851   0.86166   0.77732   0.00000  Uiso   1.00
C1149  C     0.13616   0.83381   0.83799   0.00000  Uiso   1.00
C1150  C     0.19713   0.83370   0.66207   0.00000  Uiso   1.00
C1151  C     0.11706   0.83622   0.88878   0.00000  Uiso   1.00
C1152  C     0.16420   0.75346   0.75518   0.00000  Uiso   1.00
C1153  C     0.21532   0.84005   0.61218   0.00000  Uiso   1.00
C1154  C     0.05295   0.82748   0.96408   0.00000  Uiso   1.00
C1155  C     0.27169   0.87158   0.54306   0.00000  Uiso   1.00
C1156  C     0.06825   0.82786   0.91577   0.00000  Uiso   1.00
C1157  C     0.26038   0.85877   0.58838   0.00000  Uiso   1.00
C1158  C     0.14955   0.84627   0.91029   0.00000  Uiso   1.00
C1159  C     0.18256   0.83345   0.59030   0.00000  Uiso   1.00
C1160  C     0.13478   0.84764   0.95857   0.00000  Uiso   1.00
C1161  C     0.19106   0.84943   0.54694   0.00000  Uiso   1.00
C1162  C     0.08610   0.83646   0.98559   0.00000  Uiso   1.00
C1163  C     0.10555   0.83801   0.55415   0.00000  Uiso   1.00
C1164  C     0.23733   0.86698   0.52213   0.00000  Uiso   1.00
C1165  C     0.16834   0.85669   0.98016   0.00000  Uiso   1.00
C1166  C     0.15489   0.84766   0.52753   0.00000  Uiso   1.00
C1167  C     0.26041   0.96162   0.73121   0.00000  Uiso   1.00
C1168  C     0.07385   0.70469   0.76599   0.00000  Uiso   1.00
C1169  C     0.23134   0.70875   0.78733   0.00000  Uiso   1.00
C1170  C     0.10274   0.95722   0.71102   0.00000  Uiso   1.00
C1171  C     0.30665   0.77325   0.69302   0.00000  Uiso   1.00
C1172  C     0.02676   0.89349   0.80685   0.00000  Uiso   1.00
C1173  C     0.07195   0.77736   0.69141   0.00000  Uiso   1.00
C1174  C     0.21480   0.87438   0.95604   0.00000  Uiso   1.00
C1175  C     0.26181   0.89022   0.80749   0.00000  Uiso   1.00
C1176  C     0.07161   0.83323   0.53348   0.00000  Uiso   1.00
C1177  C     0.24837   0.87999   0.97709   0.00000  Uiso   1.00
C1178  C     0.21087   0.98013   0.74513   0.00000  Uiso   1.00
C1179  C     0.12332   0.68625   0.75272   0.00000  Uiso   1.00
C1180  C     0.20181   0.68779   0.76295   0.00000  Uiso   1.00
H1181  H     0.03432   0.82548   0.55484   0.00000  Uiso   1.00
H1182  H     0.22555   0.88569   0.92136   0.00000  Uiso   1.00
H1183  H     0.28069   0.96437   0.75368   0.00000  Uiso   1.00
H1184  H     0.05437   0.70234   0.74278   0.00000  Uiso   1.00
H1185  H     0.21380   0.73153   0.81544   0.00000  Uiso   1.00
H1186  H     0.12017   0.93407   0.68329   0.00000  Uiso   1.00
H1187  H     0.28021   0.78021   0.67851   0.00000  Uiso   1.00
H1188  H     0.05277   0.88633   0.82184   0.00000  Uiso   1.00
H1189  H     0.28337   0.89395   0.95774   0.00000  Uiso   1.00
H1190  H     0.14986   0.81617   0.60826   0.00000  Uiso   1.00
H1191  H     0.18726   0.85063   0.88864   0.00000  Uiso   1.00
H1192  H     0.28593   0.86468   0.60519   0.00000  Uiso   1.00
H1193  H     0.04256   0.82012   0.89956   0.00000  Uiso   1.00
H1194  H     0.01569   0.81891   0.98444   0.00000  Uiso   1.00
H1195  H     0.30664   0.88609   0.52489   0.00000  Uiso   1.00
H1196  H     0.09177   0.83515   0.59141   0.00000  Uiso   1.00
N1197  N     0.04759   0.83334   0.75001   0.00000  Uiso   1.00
N1198  N     0.28574   0.83332   0.74999   0.00000  Uiso   1.00
N1199  N     0.10136   0.75486   0.66640   0.00000  Uiso   1.00
N1200  N     0.23267   0.91335   0.83174   0.00000  Uiso   1.00
O1201  O     0.12846   0.89442   0.75001   0.00000  Uiso   1.00
O1202  O     0.05428   0.72292   0.80377   0.00000  Uiso   1.00
O1203  O     0.27484   0.70235   0.77599   0.00000  Uiso   1.00
O1204  O     0.05927   0.96373   0.72223   0.00000  Uiso   1.00
O1205  O     0.32491   0.73842   0.68473   0.00000  Uiso   1.00
O1206  O     0.00906   0.92853   0.81456   0.00000  Uiso   1.00
O1207  O     0.20488   0.77225   0.75000   0.00000  Uiso   1.00
O1208  O     0.20490   0.89441   0.75000   0.00000  Uiso   1.00
O1209  O     0.12843   0.77226   0.75000   0.00000  Uiso   1.00
O1210  O     0.10661   0.83334   0.81613   0.00000  Uiso   1.00
O1211  O     0.22672   0.83333   0.68388   0.00000  Uiso   1.00
O1212  O     0.18305   0.83333   0.81612   0.00000  Uiso   1.00
O1213  O     0.15028   0.83334   0.68388   0.00000  Uiso   1.00
O1214  O     0.27908   0.94272   0.69373   0.00000  Uiso   1.00
Zn1215 Zn    0.11562   0.83334   0.75000   0.00000  Uiso   1.00
Zn1216 Zn    0.21771   0.83333   0.75000   0.00000  Uiso   1.00
C1217  C     0.50264   0.91307   0.74435   0.00000  Uiso   1.00
C1218  C     0.46568   0.97851   0.73513   0.00000  Uiso   1.00
C1219  C     0.49435   0.70850   0.76090   0.00000  Uiso   1.00
C1220  C     0.50628   0.95784   0.73750   0.00000  Uiso   1.00
C1221  C     0.65333   0.80467   0.72261   0.00000  Uiso   1.00
C1222  C     0.34671   0.86206   0.77731   0.00000  Uiso   1.00
C1223  C     0.36827   0.80522   0.72241   0.00000  Uiso   1.00
C1224  C     0.63184   0.86166   0.77732   0.00000  Uiso   1.00
C1225  C     0.46950   0.83381   0.83799   0.00000  Uiso   1.00
C1226  C     0.53047   0.83370   0.66207   0.00000  Uiso   1.00
C1227  C     0.45040   0.83622   0.88878   0.00000  Uiso   1.00
C1228  C     0.49754   0.75346   0.75518   0.00000  Uiso   1.00
C1229  C     0.54865   0.84005   0.61218   0.00000  Uiso   1.00
C1230  C     0.38628   0.82748   0.96408   0.00000  Uiso   1.00
C1231  C     0.60503   0.87158   0.54306   0.00000  Uiso   1.00
C1232  C     0.40158   0.82786   0.91577   0.00000  Uiso   1.00
C1233  C     0.59372   0.85877   0.58838   0.00000  Uiso   1.00
C1234  C     0.48288   0.84627   0.91029   0.00000  Uiso   1.00
C1235  C     0.51590   0.83345   0.59030   0.00000  Uiso   1.00
C1236  C     0.46811   0.84764   0.95857   0.00000  Uiso   1.00
C1237  C     0.52439   0.84943   0.54694   0.00000  Uiso   1.00
C1238  C     0.41943   0.83646   0.98559   0.00000  Uiso   1.00
C1239  C     0.43888   0.83801   0.55415   0.00000  Uiso   1.00
C1240  C     0.57067   0.86698   0.52213   0.00000  Uiso   1.00
C1241  C     0.50167   0.85669   0.98016   0.00000  Uiso   1.00
C1242  C     0.48822   0.84766   0.52753   0.00000  Uiso   1.00
C1243  C     0.59374   0.96162   0.73121   0.00000  Uiso   1.00
C1244  C     0.40718   0.70469   0.76599   0.00000  Uiso   1.00
C1245  C     0.56467   0.70875   0.78733   0.00000  Uiso   1.00
C1246  C     0.43607   0.95722   0.71102   0.00000  Uiso   1.00
C1247  C     0.63999   0.77325   0.69302   0.00000  Uiso   1.00
C1248  C     0.36009   0.89349   0.80685   0.00000  Uiso   1.00
C1249  C     0.40528   0.77736   0.69141   0.00000  Uiso   1.00
C1250  C     0.54813   0.87438   0.95604   0.00000  Uiso   1.00
C1251  C     0.59514   0.89022   0.80749   0.00000  Uiso   1.00
C1252  C     0.40495   0.83323   0.53348   0.00000  Uiso   1.00
C1253  C     0.58170   0.87999   0.97709   0.00000  Uiso   1.00
C1254  C     0.54420   0.98013   0.74513   0.00000  Uiso   1.00
C1255  C     0.45665   0.68625   0.75272   0.00000  Uiso   1.00
C1256  C     0.53514   0.68779   0.76295   0.00000  Uiso   1.00
H1257  H     0.36765   0.82548   0.55484   0.00000  Uiso   1.00
H1258  H     0.55888   0.88569   0.92136   0.00000  Uiso   1.00
H1259  H     0.61402   0.96437   0.75368   0.00000  Uiso   1.00
H1260  H     0.38770   0.70234   0.74278   0.00000  Uiso   1.00
H1261  H     0.54713   0.73153   0.81544   0.00000  Uiso   1.00
H1262  H     0.45351   0.93407   0.68329   0.00000  Uiso   1.00
H1263  H     0.61354   0.78021   0.67851   0.00000  Uiso   1.00
H1264  H     0.38610   0.88633   0.82184   0.00000  Uiso   1.00
H1265  H     0.61670   0.89395   0.95774   0.00000  Uiso   1.00
H1266  H     0.48319   0.81617   0.60826   0.00000  Uiso   1.00
H1267  H     0.52060   0.85063   0.88864   0.00000  Uiso   1.00
H1268  H     0.61927   0.86468   0.60519   0.00000  Uiso   1.00
H1269  H     0.37589   0.82012   0.89956   0.00000  Uiso   1.00
H1270  H     0.34903   0.81891   0.98444   0.00000  Uiso   1.00
H1271  H     0.63997   0.88609   0.52489   0.00000  Uiso   1.00
H1272  H     0.42510   0.83515   0.59141   0.00000  Uiso   1.00
N1273  N     0.38093   0.83334   0.75001   0.00000  Uiso   1.00
N1274  N     0.61907   0.83332   0.74999   0.00000  Uiso   1.00
N1275  N     0.43469   0.75486   0.66640   0.00000  Uiso   1.00
N1276  N     0.56600   0.91335   0.83174   0.00000  Uiso   1.00
O1277  O     0.46179   0.89442   0.75001   0.00000  Uiso   1.00
O1278  O     0.38762   0.72292   0.80377   0.00000  Uiso   1.00
O1279  O     0.60817   0.70235   0.77599   0.00000  Uiso   1.00
O1280  O     0.39260   0.96373   0.72223   0.00000  Uiso   1.00
O1281  O     0.65824   0.73842   0.68473   0.00000  Uiso   1.00
O1282  O     0.34240   0.92853   0.81456   0.00000  Uiso   1.00
O1283  O     0.53821   0.77225   0.75000   0.00000  Uiso   1.00
O1284  O     0.53823   0.89441   0.75000   0.00000  Uiso   1.00
O1285  O     0.46177   0.77226   0.75000   0.00000  Uiso   1.00
O1286  O     0.43994   0.83334   0.81613   0.00000  Uiso   1.00
O1287  O     0.56006   0.83333   0.68388   0.00000  Uiso   1.00
O1288  O     0.51639   0.83333   0.81612   0.00000  Uiso   1.00
O1289  O     0.48361   0.83334   0.68388   0.00000  Uiso   1.00
O1290  O     0.61242   0.94272   0.69373   0.00000  Uiso   1.00
Zn1291 Zn    0.44896   0.83334   0.75000   0.00000  Uiso   1.00
Zn1292 Zn    0.55104   0.83333   0.75000   0.00000  Uiso   1.00
C1293  C     0.83598   0.91307   0.74435   0.00000  Uiso   1.00
C1294  C     0.79901   0.97851   0.73513   0.00000  Uiso   1.00
C1295  C     0.82768   0.70850   0.76090   0.00000  Uiso   1.00
C1296  C     0.83961   0.95784   0.73750   0.00000  Uiso   1.00
C1297  C     0.98666   0.80467   0.72261   0.00000  Uiso   1.00
C1298  C     0.68004   0.86206   0.77731   0.00000  Uiso   1.00
C1299  C     0.70160   0.80522   0.72241   0.00000  Uiso   1.00
C1300  C     0.96518   0.86166   0.77732   0.00000  Uiso   1.00
C1301  C     0.80283   0.83381   0.83799   0.00000  Uiso   1.00
C1302  C     0.86380   0.83370   0.66207   0.00000  Uiso   1.00
C1303  C     0.78373   0.83622   0.88878   0.00000  Uiso   1.00
C1304  C     0.83087   0.75346   0.75518   0.00000  Uiso   1.00
C1305  C     0.88198   0.84005   0.61218   0.00000  Uiso   1.00
C1306  C     0.71962   0.82748   0.96408   0.00000  Uiso   1.00
C1307  C     0.93836   0.87158   0.54306   0.00000  Uiso   1.00
C1308  C     0.73492   0.82786   0.91577   0.00000  Uiso   1.00
C1309  C     0.92705   0.85877   0.58838   0.00000  Uiso   1.00
C1310  C     0.81622   0.84627   0.91029   0.00000  Uiso   1.00
C1311  C     0.84923   0.83345   0.59030   0.00000  Uiso   1.00
C1312  C     0.80145   0.84764   0.95857   0.00000  Uiso   1.00
C1313  C     0.85773   0.84943   0.54694   0.00000  Uiso   1.00
C1314  C     0.75276   0.83646   0.98559   0.00000  Uiso   1.00
C1315  C     0.77222   0.83801   0.55415   0.00000  Uiso   1.00
C1316  C     0.90400   0.86698   0.52213   0.00000  Uiso   1.00
C1317  C     0.83501   0.85669   0.98016   0.00000  Uiso   1.00
C1318  C     0.82155   0.84766   0.52753   0.00000  Uiso   1.00
C1319  C     0.92707   0.96162   0.73121   0.00000  Uiso   1.00
C1320  C     0.74051   0.70469   0.76599   0.00000  Uiso   1.00
C1321  C     0.89800   0.70875   0.78733   0.00000  Uiso   1.00
C1322  C     0.76940   0.95722   0.71102   0.00000  Uiso   1.00
C1323  C     0.97332   0.77325   0.69302   0.00000  Uiso   1.00
C1324  C     0.69343   0.89349   0.80685   0.00000  Uiso   1.00
C1325  C     0.73861   0.77736   0.69141   0.00000  Uiso   1.00
C1326  C     0.88146   0.87438   0.95604   0.00000  Uiso   1.00
C1327  C     0.92848   0.89022   0.80749   0.00000  Uiso   1.00
C1328  C     0.73828   0.83323   0.53348   0.00000  Uiso   1.00
C1329  C     0.91504   0.87999   0.97709   0.00000  Uiso   1.00
C1330  C     0.87753   0.98013   0.74513   0.00000  Uiso   1.00
C1331  C     0.78998   0.68625   0.75272   0.00000  Uiso   1.00
C1332  C     0.86847   0.68779   0.76295   0.00000  Uiso   1.00
H1333  H     0.70099   0.82548   0.55484   0.00000  Uiso   1.00
H1334  H     0.89222   0.88569   0.92136   0.00000  Uiso   1.00
H1335  H     0.94736   0.96437   0.75368   0.00000  Uiso   1.00
H1336  H     0.72104   0.70234   0.74278   0.00000  Uiso   1.00
H1337  H     0.88047   0.73153   0.81544   0.00000  Uiso   1.00
H1338  H     0.78684   0.93407   0.68329   0.00000  Uiso   1.00
H1339  H     0.94687   0.78021   0.67851   0.00000  Uiso   1.00
H1340  H     0.71943   0.88633   0.82184   0.00000  Uiso   1.00
H1341  H     0.95004   0.89395   0.95774   0.00000  Uiso   1.00
H1342  H     0.81652   0.81617   0.60826   0.00000  Uiso   1.00
H1343  H     0.85393   0.85063   0.88864   0.00000  Uiso   1.00
H1344  H     0.95260   0.86468   0.60519   0.00000  Uiso   1.00
H1345  H     0.70922   0.82012   0.89956   0.00000  Uiso   1.00
H1346  H     0.68236   0.81891   0.98444   0.00000  Uiso   1.00
H1347  H     0.97330   0.88609   0.52489   0.00000  Uiso   1.00
H1348  H     0.75844   0.83515   0.59141   0.00000  Uiso   1.00
N1349  N     0.71426   0.83334   0.75001   0.00000  Uiso   1.00
N1350  N     0.95241   0.83332   0.74999   0.00000  Uiso   1.00
N1351  N     0.76803   0.75486   0.66640   0.00000  Uiso   1.00
N1352  N     0.89933   0.91335   0.83174   0.00000  Uiso   1.00
O1353  O     0.79512   0.89442   0.75001   0.00000  Uiso   1.00
O1354  O     0.72095   0.72292   0.80377   0.00000  Uiso   1.00
O1355  O     0.94151   0.70235   0.77599   0.00000  Uiso   1.00
O1356  O     0.72593   0.96373   0.72223   0.00000  Uiso   1.00
O1357  O     0.99157   0.73842   0.68473   0.00000  Uiso   1.00
O1358  O     0.67573   0.92853   0.81456   0.00000  Uiso   1.00
O1359  O     0.87154   0.77225   0.75000   0.00000  Uiso   1.00
O1360  O     0.87157   0.89441   0.75000   0.00000  Uiso   1.00
O1361  O     0.79510   0.77226   0.75000   0.00000  Uiso   1.00
O1362  O     0.77328   0.83334   0.81613   0.00000  Uiso   1.00
O1363  O     0.89339   0.83333   0.68388   0.00000  Uiso   1.00
O1364  O     0.84972   0.83333   0.81612   0.00000  Uiso   1.00
O1365  O     0.81695   0.83334   0.68388   0.00000  Uiso   1.00
O1366  O     0.94575   0.94272   0.69373   0.00000  Uiso   1.00
Zn1367 Zn    0.78229   0.83334   0.75000   0.00000  Uiso   1.00
Zn1368 Zn    0.88438   0.83333   0.75000   0.00000  Uiso   1.00
loop_
_geom_bond_atom_site_label_1
_geom_bond_atom_site_label_2
_geom_bond_distance
_geom_bond_site_symmetry_2
_ccdc_geom_bond_type
C1     O68     1.292   .     A
C1     O61     1.298   .     A
C1     C4      1.456   .     S
C2     C4      1.409   .     A
C2     C30     1.497   .     S
C2     C267    1.394   .     S
C3     C12     1.456   .     S
C3     C39     1.416   .     A
C3     C40     1.411   .     A
C4     C38     1.414   .     A
C5     N58     1.379   .     A
C5     C31     1.486   .     S
C5     C83     1.430   .     S
C6     C32     1.486   .     S
C6     N57     1.379   .     A
C6     C160    1.430   1_455 S
C7     C33     1.443   .     S
C7     N57     1.365   .     A
C7     C157    1.430   1_455 S
C8     N58     1.365   .     A
C8     C35     1.443   .     S
C8     C82     1.430   .     S
C9     O72     1.296   .     A
C9     O70     1.297   .     A
C9     C11     1.459   .     S
C10    O73     1.295   .     A
C10    O71     1.297   .     A
C10    C13     1.457   .     S
C11    C18     1.394   .     A
C11    C16     1.399   .     A
C12    O67     1.299   .     A
C12    O69     1.292   .     A
C13    C19     1.392   .     A
C13    C17     1.399   .     A
C14    H54     1.083   .     S
C14    C16     1.394   .     A
C14    C22     1.405   .     A
C15    H55     1.084   .     S
C15    C24     1.406   .     A
C15    C17     1.396   .     A
C16    H53     1.083   .     S
C17    H52     1.083   .     S
C18    H51     1.075   .     S
C18    C20     1.393   .     A
C19    C21     1.392   .     A
C19    H50     1.077   .     S
C20    C25     1.418   .     A
C20    C22     1.417   .     A
C21    C26     1.417   .     A
C21    C24     1.416   .     A
C22    C720    1.391   .     S
C23    H56     1.079   .     S
C23    C26     1.418   .     A
C23    C36     1.389   .     A
C24    C721    1.392   1_554 S
C25    C34     1.419   .     A
C25    C710    1.413   .     S
C26    C709    1.413   1_554 S
C27    C38     1.489   .     S
C27    O74     1.221   .     D
C27    H43     1.082   .     S
C28    C39     1.488   .     S
C28    H44     1.082   .     S
C28    O62     1.221   .     D
C29    O63     1.219   .     D
C29    H45     1.086   .     S
C29    C40     1.497   .     S
C30    O64     1.220   .     D
C30    H46     1.086   .     S
C31    O65     1.221   .     D
C31    H47     1.073   .     S
C32    H48     1.073   .     S
C32    O66     1.221   .     D
C33    N59     1.158   .     T
C34    C37     1.390   .     A
C34    H42     1.078   .     S
C35    N60     1.158   .     T
C36    H41     1.084   .     S
C36    C706    1.391   1_554 S
C37    H49     1.084   .     S
C37    C708    1.392   .     S
C38    C268    1.393   .     S
C39    C458    1.394   1_545 S
C40    C494    1.393   1_545 S
N57    Zn75    2.018   .     S
N58    Zn76    2.018   .     S
O61    Zn75    1.989   .     S
O67    Zn76    1.989   .     S
O68    Zn76    1.998   .     S
O69    Zn75    1.998   .     S
O70    Zn75    1.969   .     S
O71    Zn76    1.969   .     S
O72    Zn76    1.917   .     S
O73    Zn75    1.917   .     S
C77    O144    1.292   .     A
C77    O137    1.298   .     A
C77    C80     1.456   .     S
C78    C80     1.409   .     A
C78    C106    1.497   .     S
C78    C343    1.394   .     S
C79    C88     1.456   .     S
C79    C115    1.416   .     A
C79    C116    1.411   .     A
C80    C114    1.414   .     A
C81    N134    1.379   .     A
C81    C107    1.486   .     S
C81    C159    1.430   .     S
C82    C108    1.486   .     S
C82    N133    1.379   .     A
C83    C109    1.443   .     S
C83    N133    1.365   .     A
C84    N134    1.365   .     A
C84    C111    1.443   .     S
C84    C158    1.430   .     S
C85    O148    1.296   .     A
C85    O146    1.297   .     A
C85    C87     1.459   .     S
C86    O149    1.295   .     A
C86    O147    1.297   .     A
C86    C89     1.457   .     S
C87    C94     1.394   .     A
C87    C92     1.399   .     A
C88    O143    1.299   .     A
C88    O145    1.292   .     A
C89    C95     1.392   .     A
C89    C93     1.399   .     A
C90    H130    1.083   .     S
C90    C92     1.394   .     A
C90    C98     1.405   .     A
C91    H131    1.084   .     S
C91    C100    1.406   .     A
C91    C93     1.396   .     A
C92    H129    1.083   .     S
C93    H128    1.083   .     S
C94    H127    1.075   .     S
C94    C96     1.393   .     A
C95    C97     1.392   .     A
C95    H126    1.077   .     S
C96    C101    1.418   .     A
C96    C98     1.417   .     A
C97    C102    1.417   .     A
C97    C100    1.416   .     A
C98    C796    1.391   .     S
C99    H132    1.079   .     S
C99    C102    1.418   .     A
C99    C112    1.389   .     A
C100   C797    1.392   1_554 S
C101   C110    1.419   .     A
C101   C786    1.413   .     S
C102   C785    1.413   1_554 S
C103   C114    1.489   .     S
C103   O150    1.221   .     D
C103   H119    1.082   .     S
C104   C115    1.488   .     S
C104   H120    1.082   .     S
C104   O138    1.221   .     D
C105   O139    1.219   .     D
C105   H121    1.086   .     S
C105   C116    1.497   .     S
C106   O140    1.220   .     D
C106   H122    1.086   .     S
C107   O141    1.221   .     D
C107   H123    1.073   .     S
C108   H124    1.073   .     S
C108   O142    1.221   .     D
C109   N135    1.158   .     T
C110   C113    1.390   .     A
C110   H118    1.078   .     S
C111   N136    1.158   .     T
C112   H117    1.084   .     S
C112   C782    1.391   1_554 S
C113   H125    1.084   .     S
C113   C784    1.392   .     S
C114   C344    1.393   .     S
C115   C534    1.394   1_545 S
C116   C570    1.393   1_545 S
N133   Zn151   2.018   .     S
N134   Zn152   2.018   .     S
O137   Zn151   1.989   .     S
O143   Zn152   1.989   .     S
O144   Zn152   1.998   .     S
O145   Zn151   1.998   .     S
O146   Zn151   1.969   .     S
O147   Zn152   1.969   .     S
O148   Zn152   1.917   .     S
O149   Zn151   1.917   .     S
C153   O220    1.292   .     A
C153   O213    1.298   .     A
C153   C156    1.456   .     S
C154   C156    1.409   .     A
C154   C182    1.497   .     S
C154   C419    1.394   .     S
C155   C164    1.456   .     S
C155   C191    1.416   .     A
C155   C192    1.411   .     A
C156   C190    1.414   .     A
C157   N210    1.379   .     A
C157   C183    1.486   .     S
C157   C7      1.430   1_655 S
C158   C184    1.486   .     S
C158   N209    1.379   .     A
C159   C185    1.443   .     S
C159   N209    1.365   .     A
C160   N210    1.365   .     A
C160   C187    1.443   .     S
C160   C6      1.430   1_655 S
C161   O224    1.296   .     A
C161   O222    1.297   .     A
C161   C163    1.459   .     S
C162   O225    1.295   .     A
C162   O223    1.297   .     A
C162   C165    1.457   .     S
C163   C170    1.394   .     A
C163   C168    1.399   .     A
C164   O219    1.299   .     A
C164   O221    1.292   .     A
C165   C171    1.392   .     A
C165   C169    1.399   .     A
C166   H206    1.083   .     S
C166   C168    1.394   .     A
C166   C174    1.405   .     A
C167   H207    1.084   .     S
C167   C176    1.406   .     A
C167   C169    1.396   .     A
C168   H205    1.083   .     S
C169   H204    1.083   .     S
C170   H203    1.075   .     S
C170   C172    1.393   .     A
C171   C173    1.392   .     A
C171   H202    1.077   .     S
C172   C177    1.418   .     A
C172   C174    1.417   .     A
C173   C178    1.417   .     A
C173   C176    1.416   .     A
C174   C872    1.391   .     S
C175   H208    1.079   .     S
C175   C178    1.418   .     A
C175   C188    1.389   .     A
C176   C873    1.392   1_554 S
C177   C186    1.419   .     A
C177   C862    1.413   .     S
C178   C861    1.413   1_554 S
C179   C190    1.489   .     S
C179   O226    1.221   .     D
C179   H195    1.082   .     S
C180   C191    1.488   .     S
C180   H196    1.082   .     S
C180   O214    1.221   .     D
C181   O215    1.219   .     D
C181   H197    1.086   .     S
C181   C192    1.497   .     S
C182   O216    1.220   .     D
C182   H198    1.086   .     S
C183   O217    1.221   .     D
C183   H199    1.073   .     S
C184   H200    1.073   .     S
C184   O218    1.221   .     D
C185   N211    1.158   .     T
C186   C189    1.390   .     A
C186   H194    1.078   .     S
C187   N212    1.158   .     T
C188   H193    1.084   .     S
C188   C858    1.391   1_554 S
C189   H201    1.084   .     S
C189   C860    1.392   .     S
C190   C420    1.393   .     S
C191   C610    1.394   1_545 S
C192   C646    1.393   1_545 S
N209   Zn227   2.018   .     S
N210   Zn228   2.018   .     S
O213   Zn227   1.989   .     S
O219   Zn228   1.989   .     S
O220   Zn228   1.998   .     S
O221   Zn227   1.998   .     S
O222   Zn227   1.969   .     S
O223   Zn228   1.969   .     S
O224   Zn228   1.917   .     S
O225   Zn227   1.917   .     S
C229   O296    1.292   .     A
C229   O289    1.298   .     A
C229   C232    1.456   .     S
C230   C232    1.409   .     A
C230   C258    1.497   .     S
C230   C495    1.394   .     S
C231   C240    1.456   .     S
C231   C267    1.416   .     A
C231   C268    1.411   .     A
C232   C266    1.414   .     A
C233   N286    1.379   .     A
C233   C259    1.486   .     S
C233   C311    1.430   .     S
C234   C260    1.486   .     S
C234   N285    1.379   .     A
C234   C388    1.430   1_455 S
C235   C261    1.443   .     S
C235   N285    1.365   .     A
C235   C385    1.430   1_455 S
C236   N286    1.365   .     A
C236   C263    1.443   .     S
C236   C310    1.430   .     S
C237   O300    1.296   .     A
C237   O298    1.297   .     A
C237   C239    1.459   .     S
C238   O301    1.295   .     A
C238   O299    1.297   .     A
C238   C241    1.457   .     S
C239   C246    1.394   .     A
C239   C244    1.399   .     A
C240   O295    1.299   .     A
C240   O297    1.292   .     A
C241   C247    1.392   .     A
C241   C245    1.399   .     A
C242   H282    1.083   .     S
C242   C244    1.394   .     A
C242   C250    1.405   .     A
C243   H283    1.084   .     S
C243   C252    1.406   .     A
C243   C245    1.396   .     A
C244   H281    1.083   .     S
C245   H280    1.083   .     S
C246   H279    1.075   .     S
C246   C248    1.393   .     A
C247   C249    1.392   .     A
C247   H278    1.077   .     S
C248   C253    1.418   .     A
C248   C250    1.417   .     A
C249   C254    1.417   .     A
C249   C252    1.416   .     A
C250   C948    1.391   .     S
C251   H284    1.079   .     S
C251   C254    1.418   .     A
C251   C264    1.389   .     A
C252   C949    1.392   1_554 S
C253   C262    1.419   .     A
C253   C938    1.413   .     S
C254   C937    1.413   1_554 S
C255   C266    1.489   .     S
C255   O302    1.221   .     D
C255   H271    1.082   .     S
C256   C267    1.488   .     S
C256   H272    1.082   .     S
C256   O290    1.221   .     D
C257   O291    1.219   .     D
C257   H273    1.086   .     S
C257   C268    1.497   .     S
C258   O292    1.220   .     D
C258   H274    1.086   .     S
C259   O293    1.221   .     D
C259   H275    1.073   .     S
C260   H276    1.073   .     S
C260   O294    1.221   .     D
C261   N287    1.158   .     T
C262   C265    1.390   .     A
C262   H270    1.078   .     S
C263   N288    1.158   .     T
C264   H269    1.084   .     S
C264   C934    1.391   1_554 S
C265   H277    1.084   .     S
C265   C936    1.392   .     S
C266   C496    1.393   .     S
N285   Zn303   2.018   .     S
N286   Zn304   2.018   .     S
O289   Zn303   1.989   .     S
O295   Zn304   1.989   .     S
O296   Zn304   1.998   .     S
O297   Zn303   1.998   .     S
O298   Zn303   1.969   .     S
O299   Zn304   1.969   .     S
O300   Zn304   1.917   .     S
O301   Zn303   1.917   .     S
C305   O372    1.292   .     A
C305   O365    1.298   .     A
C305   C308    1.456   .     S
C306   C308    1.409   .     A
C306   C334    1.497   .     S
C306   C571    1.394   .     S
C307   C316    1.456   .     S
C307   C343    1.416   .     A
C307   C344    1.411   .     A
C308   C342    1.414   .     A
C309   N362    1.379   .     A
C309   C335    1.486   .     S
C309   C387    1.430   .     S
C310   C336    1.486   .     S
C310   N361    1.379   .     A
C311   C337    1.443   .     S
C311   N361    1.365   .     A
C312   N362    1.365   .     A
C312   C339    1.443   .     S
C312   C386    1.430   .     S
C313   O376    1.296   .     A
C313   O374    1.297   .     A
C313   C315    1.459   .     S
C314   O377    1.295   .     A
C314   O375    1.297   .     A
C314   C317    1.457   .     S
C315   C322    1.394   .     A
C315   C320    1.399   .     A
C316   O371    1.299   .     A
C316   O373    1.292   .     A
C317   C323    1.392   .     A
C317   C321    1.399   .     A
C318   H358    1.083   .     S
C318   C320    1.394   .     A
C318   C326    1.405   .     A
C319   H359    1.084   .     S
C319   C328    1.406   .     A
C319   C321    1.396   .     A
C320   H357    1.083   .     S
C321   H356    1.083   .     S
C322   H355    1.075   .     S
C322   C324    1.393   .     A
C323   C325    1.392   .     A
C323   H354    1.077   .     S
C324   C329    1.418   .     A
C324   C326    1.417   .     A
C325   C330    1.417   .     A
C325   C328    1.416   .     A
C326   C1024   1.391   .     S
C327   H360    1.079   .     S
C327   C330    1.418   .     A
C327   C340    1.389   .     A
C328   C1025   1.392   1_554 S
C329   C338    1.419   .     A
C329   C1014   1.413   .     S
C330   C1013   1.413   1_554 S
C331   C342    1.489   .     S
C331   O378    1.221   .     D
C331   H347    1.082   .     S
C332   C343    1.488   .     S
C332   H348    1.082   .     S
C332   O366    1.221   .     D
C333   O367    1.219   .     D
C333   H349    1.086   .     S
C333   C344    1.497   .     S
C334   O368    1.220   .     D
C334   H350    1.086   .     S
C335   O369    1.221   .     D
C335   H351    1.073   .     S
C336   H352    1.073   .     S
C336   O370    1.221   .     D
C337   N363    1.158   .     T
C338   C341    1.390   .     A
C338   H346    1.078   .     S
C339   N364    1.158   .     T
C340   H345    1.084   .     S
C340   C1010   1.391   1_554 S
C341   H353    1.084   .     S
C341   C1012   1.392   .     S
C342   C572    1.393   .     S
N361   Zn379   2.018   .     S
N362   Zn380   2.018   .     S
O365   Zn379   1.989   .     S
O371   Zn380   1.989   .     S
O372   Zn380   1.998   .     S
O373   Zn379   1.998   .     S
O374   Zn379   1.969   .     S
O375   Zn380   1.969   .     S
O376   Zn380   1.917   .     S
O377   Zn379   1.917   .     S
C381   O448    1.292   .     A
C381   O441    1.298   .     A
C381   C384    1.456   .     S
C382   C384    1.409   .     A
C382   C410    1.497   .     S
C382   C647    1.394   .     S
C383   C392    1.456   .     S
C383   C419    1.416   .     A
C383   C420    1.411   .     A
C384   C418    1.414   .     A
C385   N438    1.379   .     A
C385   C411    1.486   .     S
C385   C235    1.430   1_655 S
C386   C412    1.486   .     S
C386   N437    1.379   .     A
C387   C413    1.443   .     S
C387   N437    1.365   .     A
C388   N438    1.365   .     A
C388   C415    1.443   .     S
C388   C234    1.430   1_655 S
C389   O452    1.296   .     A
C389   O450    1.297   .     A
C389   C391    1.459   .     S
C390   O453    1.295   .     A
C390   O451    1.297   .     A
C390   C393    1.457   .     S
C391   C398    1.394   .     A
C391   C396    1.399   .     A
C392   O447    1.299   .     A
C392   O449    1.292   .     A
C393   C399    1.392   .     A
C393   C397    1.399   .     A
C394   H434    1.083   .     S
C394   C396    1.394   .     A
C394   C402    1.405   .     A
C395   H435    1.084   .     S
C395   C404    1.406   .     A
C395   C397    1.396   .     A
C396   H433    1.083   .     S
C397   H432    1.083   .     S
C398   H431    1.075   .     S
C398   C400    1.393   .     A
C399   C401    1.392   .     A
C399   H430    1.077   .     S
C400   C405    1.418   .     A
C400   C402    1.417   .     A
C401   C406    1.417   .     A
C401   C404    1.416   .     A
C402   C1100   1.391   .     S
C403   H436    1.079   .     S
C403   C406    1.418   .     A
C403   C416    1.389   .     A
C404   C1101   1.392   1_554 S
C405   C414    1.419   .     A
C405   C1090   1.413   .     S
C406   C1089   1.413   1_554 S
C407   C418    1.489   .     S
C407   O454    1.221   .     D
C407   H423    1.082   .     S
C408   C419    1.488   .     S
C408   H424    1.082   .     S
C408   O442    1.221   .     D
C409   O443    1.219   .     D
C409   H425    1.086   .     S
C409   C420    1.497   .     S
C410   O444    1.220   .     D
C410   H426    1.086   .     S
C411   O445    1.221   .     D
C411   H427    1.073   .     S
C412   H428    1.073   .     S
C412   O446    1.221   .     D
C413   N439    1.158   .     T
C414   C417    1.390   .     A
C414   H422    1.078   .     S
C415   N440    1.158   .     T
C416   H421    1.084   .     S
C416   C1086   1.391   1_554 S
C417   H429    1.084   .     S
C417   C1088   1.392   .     S
C418   C648    1.393   .     S
N437   Zn455   2.018   .     S
N438   Zn456   2.018   .     S
O441   Zn455   1.989   .     S
O447   Zn456   1.989   .     S
O448   Zn456   1.998   .     S
O449   Zn455   1.998   .     S
O450   Zn455   1.969   .     S
O451   Zn456   1.969   .     S
O452   Zn456   1.917   .     S
O453   Zn455   1.917   .     S
C457   O524    1.292   .     A
C457   O517    1.298   .     A
C457   C460    1.456   .     S
C458   C460    1.409   .     A
C458   C486    1.497   .     S
C458   C39     1.394   1_565 S
C459   C468    1.456   .     S
C459   C495    1.416   .     A
C459   C496    1.411   .     A
C460   C494    1.414   .     A
C461   N514    1.379   .     A
C461   C487    1.486   .     S
C461   C539    1.430   .     S
C462   C488    1.486   .     S
C462   N513    1.379   .     A
C462   C616    1.430   1_455 S
C463   C489    1.443   .     S
C463   N513    1.365   .     A
C463   C613    1.430   1_455 S
C464   N514    1.365   .     A
C464   C491    1.443   .     S
C464   C538    1.430   .     S
C465   O528    1.296   .     A
C465   O526    1.297   .     A
C465   C467    1.459   .     S
C466   O529    1.295   .     A
C466   O527    1.297   .     A
C466   C469    1.457   .     S
C467   C474    1.394   .     A
C467   C472    1.399   .     A
C468   O523    1.299   .     A
C468   O525    1.292   .     A
C469   C475    1.392   .     A
C469   C473    1.399   .     A
C470   H510    1.083   .     S
C470   C472    1.394   .     A
C470   C478    1.405   .     A
C471   H511    1.084   .     S
C471   C480    1.406   .     A
C471   C473    1.396   .     A
C472   H509    1.083   .     S
C473   H508    1.083   .     S
C474   H507    1.075   .     S
C474   C476    1.393   .     A
C475   C477    1.392   .     A
C475   H506    1.077   .     S
C476   C481    1.418   .     A
C476   C478    1.417   .     A
C477   C482    1.417   .     A
C477   C480    1.416   .     A
C478   C1176   1.391   .     S
C479   H512    1.079   .     S
C479   C482    1.418   .     A
C479   C492    1.389   .     A
C480   C1177   1.392   1_554 S
C481   C490    1.419   .     A
C481   C1166   1.413   .     S
C482   C1165   1.413   1_554 S
C483   C494    1.489   .     S
C483   O530    1.221   .     D
C483   H499    1.082   .     S
C484   C495    1.488   .     S
C484   H500    1.082   .     S
C484   O518    1.221   .     D
C485   O519    1.219   .     D
C485   H501    1.086   .     S
C485   C496    1.497   .     S
C486   O520    1.220   .     D
C486   H502    1.086   .     S
C487   O521    1.221   .     D
C487   H503    1.073   .     S
C488   H504    1.073   .     S
C488   O522    1.221   .     D
C489   N515    1.158   .     T
C490   C493    1.390   .     A
C490   H498    1.078   .     S
C491   N516    1.158   .     T
C492   H497    1.084   .     S
C492   C1162   1.391   1_554 S
C493   H505    1.084   .     S
C493   C1164   1.392   .     S
C494   C40     1.393   1_565 S
N513   Zn531   2.018   .     S
N514   Zn532   2.018   .     S
O517   Zn531   1.989   .     S
O523   Zn532   1.989   .     S
O524   Zn532   1.998   .     S
O525   Zn531   1.998   .     S
O526   Zn531   1.969   .     S
O527   Zn532   1.969   .     S
O528   Zn532   1.917   .     S
O529   Zn531   1.917   .     S
C533   O600    1.292   .     A
C533   O593    1.298   .     A
C533   C536    1.456   .     S
C534   C536    1.409   .     A
C534   C562    1.497   .     S
C534   C115    1.394   1_565 S
C535   C544    1.456   .     S
C535   C571    1.416   .     A
C535   C572    1.411   .     A
C536   C570    1.414   .     A
C537   N590    1.379   .     A
C537   C563    1.486   .     S
C537   C615    1.430   .     S
C538   C564    1.486   .     S
C538   N589    1.379   .     A
C539   C565    1.443   .     S
C539   N589    1.365   .     A
C540   N590    1.365   .     A
C540   C567    1.443   .     S
C540   C614    1.430   .     S
C541   O604    1.296   .     A
C541   O602    1.297   .     A
C541   C543    1.459   .     S
C542   O605    1.295   .     A
C542   O603    1.297   .     A
C542   C545    1.457   .     S
C543   C550    1.394   .     A
C543   C548    1.399   .     A
C544   O599    1.299   .     A
C544   O601    1.292   .     A
C545   C551    1.392   .     A
C545   C549    1.399   .     A
C546   H586    1.083   .     S
C546   C548    1.394   .     A
C546   C554    1.405   .     A
C547   H587    1.084   .     S
C547   C556    1.406   .     A
C547   C549    1.396   .     A
C548   H585    1.083   .     S
C549   H584    1.083   .     S
C550   H583    1.075   .     S
C550   C552    1.393   .     A
C551   C553    1.392   .     A
C551   H582    1.077   .     S
C552   C557    1.418   .     A
C552   C554    1.417   .     A
C553   C558    1.417   .     A
C553   C556    1.416   .     A
C554   C1252   1.391   .     S
C555   H588    1.079   .     S
C555   C558    1.418   .     A
C555   C568    1.389   .     A
C556   C1253   1.392   1_554 S
C557   C566    1.419   .     A
C557   C1242   1.413   .     S
C558   C1241   1.413   1_554 S
C559   C570    1.489   .     S
C559   O606    1.221   .     D
C559   H575    1.082   .     S
C560   C571    1.488   .     S
C560   H576    1.082   .     S
C560   O594    1.221   .     D
C561   O595    1.219   .     D
C561   H577    1.086   .     S
C561   C572    1.497   .     S
C562   O596    1.220   .     D
C562   H578    1.086   .     S
C563   O597    1.221   .     D
C563   H579    1.073   .     S
C564   H580    1.073   .     S
C564   O598    1.221   .     D
C565   N591    1.158   .     T
C566   C569    1.390   .     A
C566   H574    1.078   .     S
C567   N592    1.158   .     T
C568   H573    1.084   .     S
C568   C1238   1.391   1_554 S
C569   H581    1.084   .     S
C569   C1240   1.392   .     S
C570   C116    1.393   1_565 S
N589   Zn607   2.018   .     S
N590   Zn608   2.018   .     S
O593   Zn607   1.989   .     S
O599   Zn608   1.989   .     S
O600   Zn608   1.998   .     S
O601   Zn607   1.998   .     S
O602   Zn607   1.969   .     S
O603   Zn608   1.969   .     S
O604   Zn608   1.917   .     S
O605   Zn607   1.917   .     S
C609   O676    1.292   .     A
C609   O669    1.298   .     A
C609   C612    1.456   .     S
C610   C612    1.409   .     A
C610   C638    1.497   .     S
C610   C191    1.394   1_565 S
C611   C620    1.456   .     S
C611   C647    1.416   .     A
C611   C648    1.411   .     A
C612   C646    1.414   .     A
C613   N666    1.379   .     A
C613   C639    1.486   .     S
C613   C463    1.430   1_655 S
C614   C640    1.486   .     S
C614   N665    1.379   .     A
C615   C641    1.443   .     S
C615   N665    1.365   .     A
C616   N666    1.365   .     A
C616   C643    1.443   .     S
C616   C462    1.430   1_655 S
C617   O680    1.296   .     A
C617   O678    1.297   .     A
C617   C619    1.459   .     S
C618   O681    1.295   .     A
C618   O679    1.297   .     A
C618   C621    1.457   .     S
C619   C626    1.394   .     A
C619   C624    1.399   .     A
C620   O675    1.299   .     A
C620   O677    1.292   .     A
C621   C627    1.392   .     A
C621   C625    1.399   .     A
C622   H662    1.083   .     S
C622   C624    1.394   .     A
C622   C630    1.405   .     A
C623   H663    1.084   .     S
C623   C632    1.406   .     A
C623   C625    1.396   .     A
C624   H661    1.083   .     S
C625   H660    1.083   .     S
C626   H659    1.075   .     S
C626   C628    1.393   .     A
C627   C629    1.392   .     A
C627   H658    1.077   .     S
C628   C633    1.418   .     A
C628   C630    1.417   .     A
C629   C634    1.417   .     A
C629   C632    1.416   .     A
C630   C1328   1.391   .     S
C631   H664    1.079   .     S
C631   C634    1.418   .     A
C631   C644    1.389   .     A
C632   C1329   1.392   1_554 S
C633   C642    1.419   .     A
C633   C1318   1.413   .     S
C634   C1317   1.413   1_554 S
C635   C646    1.489   .     S
C635   O682    1.221   .     D
C635   H651    1.082   .     S
C636   C647    1.488   .     S
C636   H652    1.082   .     S
C636   O670    1.221   .     D
C637   O671    1.219   .     D
C637   H653    1.086   .     S
C637   C648    1.497   .     S
C638   O672    1.220   .     D
C638   H654    1.086   .     S
C639   O673    1.221   .     D
C639   H655    1.073   .     S
C640   H656    1.073   .     S
C640   O674    1.221   .     D
C641   N667    1.158   .     T
C642   C645    1.390   .     A
C642   H650    1.078   .     S
C643   N668    1.158   .     T
C644   H649    1.084   .     S
C644   C1314   1.391   1_554 S
C645   H657    1.084   .     S
C645   C1316   1.392   .     S
C646   C192    1.393   1_565 S
N665   Zn683   2.018   .     S
N666   Zn684   2.018   .     S
O669   Zn683   1.989   .     S
O675   Zn684   1.989   .     S
O676   Zn684   1.998   .     S
O677   Zn683   1.998   .     S
O678   Zn683   1.969   .     S
O679   Zn684   1.969   .     S
O680   Zn684   1.917   .     S
O681   Zn683   1.917   .     S
C685   O752    1.292   .     A
C685   O745    1.298   .     A
C685   C688    1.456   .     S
C686   C688    1.409   .     A
C686   C714    1.497   .     S
C686   C951    1.394   .     S
C687   C696    1.456   .     S
C687   C723    1.416   .     A
C687   C724    1.411   .     A
C688   C722    1.414   .     A
C689   N742    1.379   .     A
C689   C715    1.486   .     S
C689   C767    1.430   .     S
C690   C716    1.486   .     S
C690   N741    1.379   .     A
C690   C844    1.430   1_455 S
C691   C717    1.443   .     S
C691   N741    1.365   .     A
C691   C841    1.430   1_455 S
C692   N742    1.365   .     A
C692   C719    1.443   .     S
C692   C766    1.430   .     S
C693   O756    1.296   .     A
C693   O754    1.297   .     A
C693   C695    1.459   .     S
C694   O757    1.295   .     A
C694   O755    1.297   .     A
C694   C697    1.457   .     S
C695   C702    1.394   .     A
C695   C700    1.399   .     A
C696   O751    1.299   .     A
C696   O753    1.292   .     A
C697   C703    1.392   .     A
C697   C701    1.399   .     A
C698   H738    1.083   .     S
C698   C700    1.394   .     A
C698   C706    1.405   .     A
C699   H739    1.084   .     S
C699   C708    1.406   .     A
C699   C701    1.396   .     A
C700   H737    1.083   .     S
C701   H736    1.083   .     S
C702   H735    1.075   .     S
C702   C704    1.393   .     A
C703   C705    1.392   .     A
C703   H734    1.077   .     S
C704   C709    1.418   .     A
C704   C706    1.417   .     A
C705   C710    1.417   .     A
C705   C708    1.416   .     A
C706   C36     1.391   1_556 S
C707   H740    1.079   .     S
C707   C710    1.418   .     A
C707   C720    1.389   .     A
C709   C718    1.419   .     A
C709   C26     1.413   1_556 S
C711   C722    1.489   .     S
C711   O758    1.221   .     D
C711   H727    1.082   .     S
C712   C723    1.488   .     S
C712   H728    1.082   .     S
C712   O746    1.221   .     D
C713   O747    1.219   .     D
C713   H729    1.086   .     S
C713   C724    1.497   .     S
C714   O748    1.220   .     D
C714   H730    1.086   .     S
C715   O749    1.221   .     D
C715   H731    1.073   .     S
C716   H732    1.073   .     S
C716   O750    1.221   .     D
C717   N743    1.158   .     T
C718   C721    1.390   .     A
C718   H726    1.078   .     S
C719   N744    1.158   .     T
C720   H725    1.084   .     S
C721   H733    1.084   .     S
C721   C24     1.392   1_556 S
C722   C952    1.393   .     S
C723   C1142   1.394   1_545 S
C724   C1178   1.393   1_545 S
N741   Zn759   2.018   .     S
N742   Zn760   2.018   .     S
O745   Zn759   1.989   .     S
O751   Zn760   1.989   .     S
O752   Zn760   1.998   .     S
O753   Zn759   1.998   .     S
O754   Zn759   1.969   .     S
O755   Zn760   1.969   .     S
O756   Zn760   1.917   .     S
O757   Zn759   1.917   .     S
C761   O828    1.292   .     A
C761   O821    1.298   .     A
C761   C764    1.456   .     S
C762   C764    1.409   .     A
C762   C790    1.497   .     S
C762   C1027   1.394   .     S
C763   C772    1.456   .     S
C763   C799    1.416   .     A
C763   C800    1.411   .     A
C764   C798    1.414   .     A
C765   N818    1.379   .     A
C765   C791    1.486   .     S
C765   C843    1.430   .     S
C766   C792    1.486   .     S
C766   N817    1.379   .     A
C767   C793    1.443   .     S
C767   N817    1.365   .     A
C768   N818    1.365   .     A
C768   C795    1.443   .     S
C768   C842    1.430   .     S
C769   O832    1.296   .     A
C769   O830    1.297   .     A
C769   C771    1.459   .     S
C770   O833    1.295   .     A
C770   O831    1.297   .     A
C770   C773    1.457   .     S
C771   C778    1.394   .     A
C771   C776    1.399   .     A
C772   O827    1.299   .     A
C772   O829    1.292   .     A
C773   C779    1.392   .     A
C773   C777    1.399   .     A
C774   H814    1.083   .     S
C774   C776    1.394   .     A
C774   C782    1.405   .     A
C775   H815    1.084   .     S
C775   C784    1.406   .     A
C775   C777    1.396   .     A
C776   H813    1.083   .     S
C777   H812    1.083   .     S
C778   H811    1.075   .     S
C778   C780    1.393   .     A
C779   C781    1.392   .     A
C779   H810    1.077   .     S
C780   C785    1.418   .     A
C780   C782    1.417   .     A
C781   C786    1.417   .     A
C781   C784    1.416   .     A
C782   C112    1.391   1_556 S
C783   H816    1.079   .     S
C783   C786    1.418   .     A
C783   C796    1.389   .     A
C785   C794    1.419   .     A
C785   C102    1.413   1_556 S
C787   C798    1.489   .     S
C787   O834    1.221   .     D
C787   H803    1.082   .     S
C788   C799    1.488   .     S
C788   H804    1.082   .     S
C788   O822    1.221   .     D
C789   O823    1.219   .     D
C789   H805    1.086   .     S
C789   C800    1.497   .     S
C790   O824    1.220   .     D
C790   H806    1.086   .     S
C791   O825    1.221   .     D
C791   H807    1.073   .     S
C792   H808    1.073   .     S
C792   O826    1.221   .     D
C793   N819    1.158   .     T
C794   C797    1.390   .     A
C794   H802    1.078   .     S
C795   N820    1.158   .     T
C796   H801    1.084   .     S
C797   H809    1.084   .     S
C797   C100    1.392   1_556 S
C798   C1028   1.393   .     S
C799   C1218   1.394   1_545 S
C800   C1254   1.393   1_545 S
N817   Zn835   2.018   .     S
N818   Zn836   2.018   .     S
O821   Zn835   1.989   .     S
O827   Zn836   1.989   .     S
O828   Zn836   1.998   .     S
O829   Zn835   1.998   .     S
O830   Zn835   1.969   .     S
O831   Zn836   1.969   .     S
O832   Zn836   1.917   .     S
O833   Zn835   1.917   .     S
C837   O904    1.292   .     A
C837   O897    1.298   .     A
C837   C840    1.456   .     S
C838   C840    1.409   .     A
C838   C866    1.497   .     S
C838   C1103   1.394   .     S
C839   C848    1.456   .     S
C839   C875    1.416   .     A
C839   C876    1.411   .     A
C840   C874    1.414   .     A
C841   N894    1.379   .     A
C841   C867    1.486   .     S
C841   C691    1.430   1_655 S
C842   C868    1.486   .     S
C842   N893    1.379   .     A
C843   C869    1.443   .     S
C843   N893    1.365   .     A
C844   N894    1.365   .     A
C844   C871    1.443   .     S
C844   C690    1.430   1_655 S
C845   O908    1.296   .     A
C845   O906    1.297   .     A
C845   C847    1.459   .     S
C846   O909    1.295   .     A
C846   O907    1.297   .     A
C846   C849    1.457   .     S
C847   C854    1.394   .     A
C847   C852    1.399   .     A
C848   O903    1.299   .     A
C848   O905    1.292   .     A
C849   C855    1.392   .     A
C849   C853    1.399   .     A
C850   H890    1.083   .     S
C850   C852    1.394   .     A
C850   C858    1.405   .     A
C851   H891    1.084   .     S
C851   C860    1.406   .     A
C851   C853    1.396   .     A
C852   H889    1.083   .     S
C853   H888    1.083   .     S
C854   H887    1.075   .     S
C854   C856    1.393   .     A
C855   C857    1.392   .     A
C855   H886    1.077   .     S
C856   C861    1.418   .     A
C856   C858    1.417   .     A
C857   C862    1.417   .     A
C857   C860    1.416   .     A
C858   C188    1.391   1_556 S
C859   H892    1.079   .     S
C859   C862    1.418   .     A
C859   C872    1.389   .     A
C861   C870    1.419   .     A
C861   C178    1.413   1_556 S
C863   C874    1.489   .     S
C863   O910    1.221   .     D
C863   H879    1.082   .     S
C864   C875    1.488   .     S
C864   H880    1.082   .     S
C864   O898    1.221   .     D
C865   O899    1.219   .     D
C865   H881    1.086   .     S
C865   C876    1.497   .     S
C866   O900    1.220   .     D
C866   H882    1.086   .     S
C867   O901    1.221   .     D
C867   H883    1.073   .     S
C868   H884    1.073   .     S
C868   O902    1.221   .     D
C869   N895    1.158   .     T
C870   C873    1.390   .     A
C870   H878    1.078   .     S
C871   N896    1.158   .     T
C872   H877    1.084   .     S
C873   H885    1.084   .     S
C873   C176    1.392   1_556 S
C874   C1104   1.393   .     S
C875   C1294   1.394   1_545 S
C876   C1330   1.393   1_545 S
N893   Zn911   2.018   .     S
N894   Zn912   2.018   .     S
O897   Zn911   1.989   .     S
O903   Zn912   1.989   .     S
O904   Zn912   1.998   .     S
O905   Zn911   1.998   .     S
O906   Zn911   1.969   .     S
O907   Zn912   1.969   .     S
O908   Zn912   1.917   .     S
O909   Zn911   1.917   .     S
C913   O980    1.292   .     A
C913   O973    1.298   .     A
C913   C916    1.456   .     S
C914   C916    1.409   .     A
C914   C942    1.497   .     S
C914   C1179   1.394   .     S
C915   C924    1.456   .     S
C915   C951    1.416   .     A
C915   C952    1.411   .     A
C916   C950    1.414   .     A
C917   N970    1.379   .     A
C917   C943    1.486   .     S
C917   C995    1.430   .     S
C918   C944    1.486   .     S
C918   N969    1.379   .     A
C918   C1072   1.430   1_455 S
C919   C945    1.443   .     S
C919   N969    1.365   .     A
C919   C1069   1.430   1_455 S
C920   N970    1.365   .     A
C920   C947    1.443   .     S
C920   C994    1.430   .     S
C921   O984    1.296   .     A
C921   O982    1.297   .     A
C921   C923    1.459   .     S
C922   O985    1.295   .     A
C922   O983    1.297   .     A
C922   C925    1.457   .     S
C923   C930    1.394   .     A
C923   C928    1.399   .     A
C924   O979    1.299   .     A
C924   O981    1.292   .     A
C925   C931    1.392   .     A
C925   C929    1.399   .     A
C926   H966    1.083   .     S
C926   C928    1.394   .     A
C926   C934    1.405   .     A
C927   H967    1.084   .     S
C927   C936    1.406   .     A
C927   C929    1.396   .     A
C928   H965    1.083   .     S
C929   H964    1.083   .     S
C930   H963    1.075   .     S
C930   C932    1.393   .     A
C931   C933    1.392   .     A
C931   H962    1.077   .     S
C932   C937    1.418   .     A
C932   C934    1.417   .     A
C933   C938    1.417   .     A
C933   C936    1.416   .     A
C934   C264    1.391   1_556 S
C935   H968    1.079   .     S
C935   C938    1.418   .     A
C935   C948    1.389   .     A
C937   C946    1.419   .     A
C937   C254    1.413   1_556 S
C939   C950    1.489   .     S
C939   O986    1.221   .     D
C939   H955    1.082   .     S
C940   C951    1.488   .     S
C940   H956    1.082   .     S
C940   O974    1.221   .     D
C941   O975    1.219   .     D
C941   H957    1.086   .     S
C941   C952    1.497   .     S
C942   O976    1.220   .     D
C942   H958    1.086   .     S
C943   O977    1.221   .     D
C943   H959    1.073   .     S
C944   H960    1.073   .     S
C944   O978    1.221   .     D
C945   N971    1.158   .     T
C946   C949    1.390   .     A
C946   H954    1.078   .     S
C947   N972    1.158   .     T
C948   H953    1.084   .     S
C949   H961    1.084   .     S
C949   C252    1.392   1_556 S
C950   C1180   1.393   .     S
N969   Zn987   2.018   .     S
N970   Zn988   2.018   .     S
O973   Zn987   1.989   .     S
O979   Zn988   1.989   .     S
O980   Zn988   1.998   .     S
O981   Zn987   1.998   .     S
O982   Zn987   1.969   .     S
O983   Zn988   1.969   .     S
O984   Zn988   1.917   .     S
O985   Zn987   1.917   .     S
C989   O1056   1.292   .     A
C989   O1049   1.298   .     A
C989   C992    1.456   .     S
C990   C992    1.409   .     A
C990   C1018   1.497   .     S
C990   C1255   1.394   .     S
C991   C1000   1.456   .     S
C991   C1027   1.416   .     A
C991   C1028   1.411   .     A
C992   C1026   1.414   .     A
C993   N1046   1.379   .     A
C993   C1019   1.486   .     S
C993   C1071   1.430   .     S
C994   C1020   1.486   .     S
C994   N1045   1.379   .     A
C995   C1021   1.443   .     S
C995   N1045   1.365   .     A
C996   N1046   1.365   .     A
C996   C1023   1.443   .     S
C996   C1070   1.430   .     S
C997   O1060   1.296   .     A
C997   O1058   1.297   .     A
C997   C999    1.459   .     S
C998   O1061   1.295   .     A
C998   O1059   1.297   .     A
C998   C1001   1.457   .     S
C999   C1006   1.394   .     A
C999   C1004   1.399   .     A
C1000  O1055   1.299   .     A
C1000  O1057   1.292   .     A
C1001  C1007   1.392   .     A
C1001  C1005   1.399   .     A
C1002  H1042   1.083   .     S
C1002  C1004   1.394   .     A
C1002  C1010   1.405   .     A
C1003  H1043   1.084   .     S
C1003  C1012   1.406   .     A
C1003  C1005   1.396   .     A
C1004  H1041   1.083   .     S
C1005  H1040   1.083   .     S
C1006  H1039   1.075   .     S
C1006  C1008   1.393   .     A
C1007  C1009   1.392   .     A
C1007  H1038   1.077   .     S
C1008  C1013   1.418   .     A
C1008  C1010   1.417   .     A
C1009  C1014   1.417   .     A
C1009  C1012   1.416   .     A
C1010  C340    1.391   1_556 S
C1011  H1044   1.079   .     S
C1011  C1014   1.418   .     A
C1011  C1024   1.389   .     A
C1013  C1022   1.419   .     A
C1013  C330    1.413   1_556 S
C1015  C1026   1.489   .     S
C1015  O1062   1.221   .     D
C1015  H1031   1.082   .     S
C1016  C1027   1.488   .     S
C1016  H1032   1.082   .     S
C1016  O1050   1.221   .     D
C1017  O1051   1.219   .     D
C1017  H1033   1.086   .     S
C1017  C1028   1.497   .     S
C1018  O1052   1.220   .     D
C1018  H1034   1.086   .     S
C1019  O1053   1.221   .     D
C1019  H1035   1.073   .     S
C1020  H1036   1.073   .     S
C1020  O1054   1.221   .     D
C1021  N1047   1.158   .     T
C1022  C1025   1.390   .     A
C1022  H1030   1.078   .     S
C1023  N1048   1.158   .     T
C1024  H1029   1.084   .     S
C1025  H1037   1.084   .     S
C1025  C328    1.392   1_556 S
C1026  C1256   1.393   .     S
N1045  Zn1063  2.018   .     S
N1046  Zn1064  2.018   .     S
O1049  Zn1063  1.989   .     S
O1055  Zn1064  1.989   .     S
O1056  Zn1064  1.998   .     S
O1057  Zn1063  1.998   .     S
O1058  Zn1063  1.969   .     S
O1059  Zn1064  1.969   .     S
O1060  Zn1064  1.917   .     S
O1061  Zn1063  1.917   .     S
C1065  O1132   1.292   .     A
C1065  O1125   1.298   .     A
C1065  C1068   1.456   .     S
C1066  C1068   1.409   .     A
C1066  C1094   1.497   .     S
C1066  C1331   1.394   .     S
C1067  C1076   1.456   .     S
C1067  C1103   1.416   .     A
C1067  C1104   1.411   .     A
C1068  C1102   1.414   .     A
C1069  N1122   1.379   .     A
C1069  C1095   1.486   .     S
C1069  C919    1.430   1_655 S
C1070  C1096   1.486   .     S
C1070  N1121   1.379   .     A
C1071  C1097   1.443   .     S
C1071  N1121   1.365   .     A
C1072  N1122   1.365   .     A
C1072  C1099   1.443   .     S
C1072  C918    1.430   1_655 S
C1073  O1136   1.296   .     A
C1073  O1134   1.297   .     A
C1073  C1075   1.459   .     S
C1074  O1137   1.295   .     A
C1074  O1135   1.297   .     A
C1074  C1077   1.457   .     S
C1075  C1082   1.394   .     A
C1075  C1080   1.399   .     A
C1076  O1131   1.299   .     A
C1076  O1133   1.292   .     A
C1077  C1083   1.392   .     A
C1077  C1081   1.399   .     A
C1078  H1118   1.083   .     S
C1078  C1080   1.394   .     A
C1078  C1086   1.405   .     A
C1079  H1119   1.084   .     S
C1079  C1088   1.406   .     A
C1079  C1081   1.396   .     A
C1080  H1117   1.083   .     S
C1081  H1116   1.083   .     S
C1082  H1115   1.075   .     S
C1082  C1084   1.393   .     A
C1083  C1085   1.392   .     A
C1083  H1114   1.077   .     S
C1084  C1089   1.418   .     A
C1084  C1086   1.417   .     A
C1085  C1090   1.417   .     A
C1085  C1088   1.416   .     A
C1086  C416    1.391   1_556 S
C1087  H1120   1.079   .     S
C1087  C1090   1.418   .     A
C1087  C1100   1.389   .     A
C1089  C1098   1.419   .     A
C1089  C406    1.413   1_556 S
C1091  C1102   1.489   .     S
C1091  O1138   1.221   .     D
C1091  H1107   1.082   .     S
C1092  C1103   1.488   .     S
C1092  H1108   1.082   .     S
C1092  O1126   1.221   .     D
C1093  O1127   1.219   .     D
C1093  H1109   1.086   .     S
C1093  C1104   1.497   .     S
C1094  O1128   1.220   .     D
C1094  H1110   1.086   .     S
C1095  O1129   1.221   .     D
C1095  H1111   1.073   .     S
C1096  H1112   1.073   .     S
C1096  O1130   1.221   .     D
C1097  N1123   1.158   .     T
C1098  C1101   1.390   .     A
C1098  H1106   1.078   .     S
C1099  N1124   1.158   .     T
C1100  H1105   1.084   .     S
C1101  H1113   1.084   .     S
C1101  C404    1.392   1_556 S
C1102  C1332   1.393   .     S
N1121  Zn1139  2.018   .     S
N1122  Zn1140  2.018   .     S
O1125  Zn1139  1.989   .     S
O1131  Zn1140  1.989   .     S
O1132  Zn1140  1.998   .     S
O1133  Zn1139  1.998   .     S
O1134  Zn1139  1.969   .     S
O1135  Zn1140  1.969   .     S
O1136  Zn1140  1.917   .     S
O1137  Zn1139  1.917   .     S
C1141  O1208   1.292   .     A
C1141  O1201   1.298   .     A
C1141  C1144   1.456   .     S
C1142  C1144   1.409   .     A
C1142  C1170   1.497   .     S
C1142  C723    1.394   1_565 S
C1143  C1152   1.456   .     S
C1143  C1179   1.416   .     A
C1143  C1180   1.411   .     A
C1144  C1178   1.414   .     A
C1145  N1198   1.379   .     A
C1145  C1171   1.486   .     S
C1145  C1223   1.430   .     S
C1146  C1172   1.486   .     S
C1146  N1197   1.379   .     A
C1146  C1300   1.430   1_455 S
C1147  C1173   1.443   .     S
C1147  N1197   1.365   .     A
C1147  C1297   1.430   1_455 S
C1148  N1198   1.365   .     A
C1148  C1175   1.443   .     S
C1148  C1222   1.430   .     S
C1149  O1212   1.296   .     A
C1149  O1210   1.297   .     A
C1149  C1151   1.459   .     S
C1150  O1213   1.295   .     A
C1150  O1211   1.297   .     A
C1150  C1153   1.457   .     S
C1151  C1158   1.394   .     A
C1151  C1156   1.399   .     A
C1152  O1207   1.299   .     A
C1152  O1209   1.292   .     A
C1153  C1159   1.392   .     A
C1153  C1157   1.399   .     A
C1154  H1194   1.083   .     S
C1154  C1156   1.394   .     A
C1154  C1162   1.405   .     A
C1155  H1195   1.084   .     S
C1155  C1164   1.406   .     A
C1155  C1157   1.396   .     A
C1156  H1193   1.083   .     S
C1157  H1192   1.083   .     S
C1158  H1191   1.075   .     S
C1158  C1160   1.393   .     A
C1159  C1161   1.392   .     A
C1159  H1190   1.077   .     S
C1160  C1165   1.418   .     A
C1160  C1162   1.417   .     A
C1161  C1166   1.417   .     A
C1161  C1164   1.416   .     A
C1162  C492    1.391   1_556 S
C1163  H1196   1.079   .     S
C1163  C1166   1.418   .     A
C1163  C1176   1.389   .     A
C1165  C1174   1.419   .     A
C1165  C482    1.413   1_556 S
C1167  C1178   1.489   .     S
C1167  O1214   1.221   .     D
C1167  H1183   1.082   .     S
C1168  C1179   1.488   .     S
C1168  H1184   1.082   .     S
C1168  O1202   1.221   .     D
C1169  O1203   1.219   .     D
C1169  H1185   1.086   .     S
C1169  C1180   1.497   .     S
C1170  O1204   1.220   .     D
C1170  H1186   1.086   .     S
C1171  O1205   1.221   .     D
C1171  H1187   1.073   .     S
C1172  H1188   1.073   .     S
C1172  O1206   1.221   .     D
C1173  N1199   1.158   .     T
C1174  C1177   1.390   .     A
C1174  H1182   1.078   .     S
C1175  N1200   1.158   .     T
C1176  H1181   1.084   .     S
C1177  H1189   1.084   .     S
C1177  C480    1.392   1_556 S
C1178  C724    1.393   1_565 S
N1197  Zn1215  2.018   .     S
N1198  Zn1216  2.018   .     S
O1201  Zn1215  1.989   .     S
O1207  Zn1216  1.989   .     S
O1208  Zn1216  1.998   .     S
O1209  Zn1215  1.998   .     S
O1210  Zn1215  1.969   .     S
O1211  Zn1216  1.969   .     S
O1212  Zn1216  1.917   .     S
O1213  Zn1215  1.917   .     S
C1217  O1284   1.292   .     A
C1217  O1277   1.298   .     A
C1217  C1220   1.456   .     S
C1218  C1220   1.409   .     A
C1218  C1246   1.497   .     S
C1218  C799    1.394   1_565 S
C1219  C1228   1.456   .     S
C1219  C1255   1.416   .     A
C1219  C1256   1.411   .     A
C1220  C1254   1.414   .     A
C1221  N1274   1.379   .     A
C1221  C1247   1.486   .     S
C1221  C1299   1.430   .     S
C1222  C1248   1.486   .     S
C1222  N1273   1.379   .     A
C1223  C1249   1.443   .     S
C1223  N1273   1.365   .     A
C1224  N1274   1.365   .     A
C1224  C1251   1.443   .     S
C1224  C1298   1.430   .     S
C1225  O1288   1.296   .     A
C1225  O1286   1.297   .     A
C1225  C1227   1.459   .     S
C1226  O1289   1.295   .     A
C1226  O1287   1.297   .     A
C1226  C1229   1.457   .     S
C1227  C1234   1.394   .     A
C1227  C1232   1.399   .     A
C1228  O1283   1.299   .     A
C1228  O1285   1.292   .     A
C1229  C1235   1.392   .     A
C1229  C1233   1.399   .     A
C1230  H1270   1.083   .     S
C1230  C1232   1.394   .     A
C1230  C1238   1.405   .     A
C1231  H1271   1.084   .     S
C1231  C1240   1.406   .     A
C1231  C1233   1.396   .     A
C1232  H1269   1.083   .     S
C1233  H1268   1.083   .     S
C1234  H1267   1.075   .     S
C1234  C1236   1.393   .     A
C1235  C1237   1.392   .     A
C1235  H1266   1.077   .     S
C1236  C1241   1.418   .     A
C1236  C1238   1.417   .     A
C1237  C1242   1.417   .     A
C1237  C1240   1.416   .     A
C1238  C568    1.391   1_556 S
C1239  H1272   1.079   .     S
C1239  C1242   1.418   .     A
C1239  C1252   1.389   .     A
C1241  C1250   1.419   .     A
C1241  C558    1.413   1_556 S
C1243  C1254   1.489   .     S
C1243  O1290   1.221   .     D
C1243  H1259   1.082   .     S
C1244  C1255   1.488   .     S
C1244  H1260   1.082   .     S
C1244  O1278   1.221   .     D
C1245  O1279   1.219   .     D
C1245  H1261   1.086   .     S
C1245  C1256   1.497   .     S
C1246  O1280   1.220   .     D
C1246  H1262   1.086   .     S
C1247  O1281   1.221   .     D
C1247  H1263   1.073   .     S
C1248  H1264   1.073   .     S
C1248  O1282   1.221   .     D
C1249  N1275   1.158   .     T
C1250  C1253   1.390   .     A
C1250  H1258   1.078   .     S
C1251  N1276   1.158   .     T
C1252  H1257   1.084   .     S
C1253  H1265   1.084   .     S
C1253  C556    1.392   1_556 S
C1254  C800    1.393   1_565 S
N1273  Zn1291  2.018   .     S
N1274  Zn1292  2.018   .     S
O1277  Zn1291  1.989   .     S
O1283  Zn1292  1.989   .     S
O1284  Zn1292  1.998   .     S
O1285  Zn1291  1.998   .     S
O1286  Zn1291  1.969   .     S
O1287  Zn1292  1.969   .     S
O1288  Zn1292  1.917   .     S
O1289  Zn1291  1.917   .     S
C1293  O1360   1.292   .     A
C1293  O1353   1.298   .     A
C1293  C1296   1.456   .     S
C1294  C1296   1.409   .     A
C1294  C1322   1.497   .     S
C1294  C875    1.394   1_565 S
C1295  C1304   1.456   .     S
C1295  C1331   1.416   .     A
C1295  C1332   1.411   .     A
C1296  C1330   1.414   .     A
C1297  N1350   1.379   .     A
C1297  C1323   1.486   .     S
C1297  C1147   1.430   1_655 S
C1298  C1324   1.486   .     S
C1298  N1349   1.379   .     A
C1299  C1325   1.443   .     S
C1299  N1349   1.365   .     A
C1300  N1350   1.365   .     A
C1300  C1327   1.443   .     S
C1300  C1146   1.430   1_655 S
C1301  O1364   1.296   .     A
C1301  O1362   1.297   .     A
C1301  C1303   1.459   .     S
C1302  O1365   1.295   .     A
C1302  O1363   1.297   .     A
C1302  C1305   1.457   .     S
C1303  C1310   1.394   .     A
C1303  C1308   1.399   .     A
C1304  O1359   1.299   .     A
C1304  O1361   1.292   .     A
C1305  C1311   1.392   .     A
C1305  C1309   1.399   .     A
C1306  H1346   1.083   .     S
C1306  C1308   1.394   .     A
C1306  C1314   1.405   .     A
C1307  H1347   1.084   .     S
C1307  C1316   1.406   .     A
C1307  C1309   1.396   .     A
C1308  H1345   1.083   .     S
C1309  H1344   1.083   .     S
C1310  H1343   1.075   .     S
C1310  C1312   1.393   .     A
C1311  C1313   1.392   .     A
C1311  H1342   1.077   .     S
C1312  C1317   1.418   .     A
C1312  C1314   1.417   .     A
C1313  C1318   1.417   .     A
C1313  C1316   1.416   .     A
C1314  C644    1.391   1_556 S
C1315  H1348   1.079   .     S
C1315  C1318   1.418   .     A
C1315  C1328   1.389   .     A
C1317  C1326   1.419   .     A
C1317  C634    1.413   1_556 S
C1319  C1330   1.489   .     S
C1319  O1366   1.221   .     D
C1319  H1335   1.082   .     S
C1320  C1331   1.488   .     S
C1320  H1336   1.082   .     S
C1320  O1354   1.221   .     D
C1321  O1355   1.219   .     D
C1321  H1337   1.086   .     S
C1321  C1332   1.497   .     S
C1322  O1356   1.220   .     D
C1322  H1338   1.086   .     S
C1323  O1357   1.221   .     D
C1323  H1339   1.073   .     S
C1324  H1340   1.073   .     S
C1324  O1358   1.221   .     D
C1325  N1351   1.158   .     T
C1326  C1329   1.390   .     A
C1326  H1334   1.078   .     S
C1327  N1352   1.158   .     T
C1328  H1333   1.084   .     S
C1329  H1341   1.084   .     S
C1329  C632    1.392   1_556 S
C1330  C876    1.393   1_565 S
N1349  Zn1367  2.018   .     S
N1350  Zn1368  2.018   .     S
O1353  Zn1367  1.989   .     S
O1359  Zn1368  1.989   .     S
O1360  Zn1368  1.998   .     S
O1361  Zn1367  1.998   .     S
O1362  Zn1367  1.969   .     S
O1363  Zn1368  1.969   .     S
O1364  Zn1368  1.917   .     S
O1365  Zn1367  1.917   .     S
