data_str_m2_o1_o16_pcu_sym.60
_audit_creation_date              2020-01-03
_audit_creation_method            'Materials Studio'
_symmetry_space_group_name_H-M    'P1'
_symmetry_Int_Tables_number       1
_symmetry_cell_setting            triclinic
loop_
_symmetry_equiv_pos_as_xyz
  x,y,z
_cell_length_a                    28.6428
_cell_length_b                    32.4631
_cell_length_c                    26.9708
_cell_angle_alpha                 88.8337
_cell_angle_beta                  73.3553
_cell_angle_gamma                 89.8096
loop_
_atom_site_label
_atom_site_type_symbol
_atom_site_fract_x
_atom_site_fract_y
_atom_site_fract_z
_atom_site_U_iso_or_equiv
_atom_site_adp_type
_atom_site_occupancy
C1     C     0.16686   0.24578   0.24915   0.00000  Uiso   1.00
C2     C     0.12799   0.15124   0.40628   0.00000  Uiso   1.00
C3     C     0.17124   0.31030   0.29380   0.00000  Uiso   1.00
C4     C     0.14125   0.16188   0.34972   0.00000  Uiso   1.00
C5     C     0.17105   0.02025   0.29443   0.00000  Uiso   1.00
C6     C     0.16592   0.04281   0.25102   0.00000  Uiso   1.00
C7     C     0.16037   0.02279   0.20728   0.00000  Uiso   1.00
C8     C     0.16084   0.31309   0.20603   0.00000  Uiso   1.00
C9     C     0.16703   0.29041   0.24916   0.00000  Uiso   1.00
C10    C     0.30017   0.19311   0.28025   0.00000  Uiso   1.00
C11    C     0.01639   0.19307   0.28056   0.00000  Uiso   1.00
C12    C     0.14685   0.15544   0.48962   0.00000  Uiso   1.00
C13    C     0.03326   0.14057   0.21927   0.00000  Uiso   1.00
C14    C     0.31692   0.14033   0.21936   0.00000  Uiso   1.00
C15    C     0.16648   0.08751   0.25059   0.00000  Uiso   1.00
C16    C     0.19256   0.16891   0.15036   0.00000  Uiso   1.00
C17    C     0.26026   0.19750   0.01155   0.00000  Uiso   1.00
C18    C     0.20683   0.17433   0.09403   0.00000  Uiso   1.00
C19    C     0.07987   0.13938   0.43270   0.00000  Uiso   1.00
C20    C     0.06448   0.13761   0.48690   0.00000  Uiso   1.00
C21    C     0.09637   0.14950   0.01533   0.00000  Uiso   1.00
C22    C     0.27917   0.22101   0.09097   0.00000  Uiso   1.00
C23    C     0.16298   0.15301   0.43478   0.00000  Uiso   1.00
C24    C     0.17619   0.04157   0.34061   0.00000  Uiso   1.00
C25    C     0.15490   0.29313   0.15887   0.00000  Uiso   1.00
C26    C     0.17269   0.28541   0.34069   0.00000  Uiso   1.00
C27    C     0.18230   0.16512   0.01567   0.00000  Uiso   1.00
C28    C     0.22847   0.18027   0.48678   0.00000  Uiso   1.00
C29    C     0.24425   0.17380   0.43399   0.00000  Uiso   1.00
C30    C     0.21405   0.15311   0.41065   0.00000  Uiso   1.00
C31    C     0.17510   0.15809   0.06855   0.00000  Uiso   1.00
C32    C     0.24845   0.19705   0.06568   0.00000  Uiso   1.00
Cu33   Cu    0.11978   0.16666   0.25000   0.00000  Uiso   1.00
Cu34   Cu    0.21355   0.16667   0.25000   0.00000  Uiso   1.00
H35    H     0.27469   0.21412   0.30464   0.00000  Uiso   1.00
H36    H     0.13742   0.30963   0.13369   0.00000  Uiso   1.00
H37    H     0.02434   0.25098   0.30249   0.00000  Uiso   1.00
H38    H     0.01167   0.21540   0.35107   0.00000  Uiso   1.00
H39    H     0.31026   0.08243   0.19643   0.00000  Uiso   1.00
H40    H     0.31988   0.11889   0.14887   0.00000  Uiso   1.00
H41    H     0.03542   0.09770   0.41427   0.00000  Uiso   1.00
H42    H     0.01629   0.14714   0.41565   0.00000  Uiso   1.00
H43    H     0.06056   0.13077   0.08840   0.00000  Uiso   1.00
H44    H     0.05034   0.18075   0.07403   0.00000  Uiso   1.00
H45    H     0.33107   0.14755   0.03707   0.00000  Uiso   1.00
H46    H     0.05877   0.11970   0.19468   0.00000  Uiso   1.00
H47    H     0.01740   0.09828   0.03545   0.00000  Uiso   1.00
H48    H     0.27303   0.12978   0.35578   0.00000  Uiso   1.00
H49    H     0.23178   0.09520   0.38785   0.00000  Uiso   1.00
H50    H     0.19172   0.25624   0.33689   0.00000  Uiso   1.00
H51    H     0.28176   0.17966   0.41265   0.00000  Uiso   1.00
H52    H     0.29425   0.21120   0.48852   0.00000  Uiso   1.00
H53    H     0.14625   0.13804   0.09039   0.00000  Uiso   1.00
H54    H     0.26755   0.22644   0.13214   0.00000  Uiso   1.00
H55    H     0.20278   0.03094   0.35963   0.00000  Uiso   1.00
H56    H     0.12458   0.06359   0.17302   0.00000  Uiso   1.00
H57    H     0.18643   0.06581   0.15006   0.00000  Uiso   1.00
N58    N     0.04931   0.16666   0.24998   0.00000  Uiso   1.00
N59    N     0.28402   0.16669   0.24999   0.00000  Uiso   1.00
N60    N     0.15642   0.04604   0.16266   0.00000  Uiso   1.00
N61    N     0.03212   0.22106   0.31276   0.00000  Uiso   1.00
N62    N     0.30099   0.11226   0.18741   0.00000  Uiso   1.00
N63    N     0.04671   0.12811   0.40426   0.00000  Uiso   1.00
N64    N     0.07667   0.15769   0.06934   0.00000  Uiso   1.00
N65    N     0.01566   0.12437   0.01270   0.00000  Uiso   1.00
N66    N     0.23556   0.12452   0.37049   0.00000  Uiso   1.00
O67    O     0.12708   0.22678   0.25000   0.00000  Uiso   1.00
O68    O     0.14897   0.06967   0.35931   0.00000  Uiso   1.00
O69    O     0.17051   0.25875   0.14651   0.00000  Uiso   1.00
O70    O     0.15103   0.29654   0.38419   0.00000  Uiso   1.00
O71    O     0.20627   0.22679   0.25000   0.00000  Uiso   1.00
O72    O     0.10775   0.16665   0.32549   0.00000  Uiso   1.00
O73    O     0.18694   0.16666   0.32549   0.00000  Uiso   1.00
O74    O     0.12706   0.10654   0.24999   0.00000  Uiso   1.00
O75    O     0.20625   0.10655   0.24999   0.00000  Uiso   1.00
O76    O     0.14640   0.16667   0.17451   0.00000  Uiso   1.00
O77    O     0.22559   0.16668   0.17451   0.00000  Uiso   1.00
O78    O     0.31765   0.23639   0.06552   0.00000  Uiso   1.00
C79    C     0.50020   0.24578   0.24915   0.00000  Uiso   1.00
C80    C     0.46132   0.15124   0.40628   0.00000  Uiso   1.00
C81    C     0.50458   0.31030   0.29380   0.00000  Uiso   1.00
C82    C     0.47458   0.16188   0.34972   0.00000  Uiso   1.00
C83    C     0.50439   0.02025   0.29443   0.00000  Uiso   1.00
C84    C     0.49925   0.04281   0.25102   0.00000  Uiso   1.00
C85    C     0.49370   0.02279   0.20728   0.00000  Uiso   1.00
C86    C     0.49418   0.31309   0.20603   0.00000  Uiso   1.00
C87    C     0.50036   0.29041   0.24916   0.00000  Uiso   1.00
C88    C     0.63351   0.19311   0.28025   0.00000  Uiso   1.00
C89    C     0.34972   0.19307   0.28056   0.00000  Uiso   1.00
C90    C     0.48018   0.15544   0.48962   0.00000  Uiso   1.00
C91    C     0.36659   0.14057   0.21927   0.00000  Uiso   1.00
C92    C     0.65025   0.14033   0.21936   0.00000  Uiso   1.00
C93    C     0.49981   0.08751   0.25059   0.00000  Uiso   1.00
C94    C     0.52590   0.16891   0.15036   0.00000  Uiso   1.00
C95    C     0.59360   0.19750   0.01155   0.00000  Uiso   1.00
C96    C     0.54017   0.17433   0.09403   0.00000  Uiso   1.00
C97    C     0.41320   0.13938   0.43270   0.00000  Uiso   1.00
C98    C     0.39781   0.13761   0.48690   0.00000  Uiso   1.00
C99    C     0.42971   0.14950   0.01533   0.00000  Uiso   1.00
C100   C     0.61250   0.22101   0.09097   0.00000  Uiso   1.00
C101   C     0.49632   0.15301   0.43478   0.00000  Uiso   1.00
C102   C     0.50953   0.04157   0.34061   0.00000  Uiso   1.00
C103   C     0.48823   0.29313   0.15887   0.00000  Uiso   1.00
C104   C     0.50602   0.28541   0.34069   0.00000  Uiso   1.00
C105   C     0.51564   0.16512   0.01567   0.00000  Uiso   1.00
C106   C     0.56180   0.18027   0.48678   0.00000  Uiso   1.00
C107   C     0.57759   0.17380   0.43399   0.00000  Uiso   1.00
C108   C     0.54738   0.15311   0.41065   0.00000  Uiso   1.00
C109   C     0.50843   0.15809   0.06855   0.00000  Uiso   1.00
C110   C     0.58178   0.19705   0.06568   0.00000  Uiso   1.00
Cu111  Cu    0.45311   0.16666   0.25000   0.00000  Uiso   1.00
Cu112  Cu    0.54689   0.16667   0.25000   0.00000  Uiso   1.00
H113   H     0.60802   0.21412   0.30464   0.00000  Uiso   1.00
H114   H     0.47075   0.30963   0.13369   0.00000  Uiso   1.00
H115   H     0.35767   0.25098   0.30249   0.00000  Uiso   1.00
H116   H     0.34500   0.21540   0.35107   0.00000  Uiso   1.00
H117   H     0.64359   0.08243   0.19643   0.00000  Uiso   1.00
H118   H     0.65321   0.11889   0.14887   0.00000  Uiso   1.00
H119   H     0.36875   0.09770   0.41427   0.00000  Uiso   1.00
H120   H     0.34962   0.14714   0.41565   0.00000  Uiso   1.00
H121   H     0.39389   0.13077   0.08840   0.00000  Uiso   1.00
H122   H     0.38368   0.18075   0.07403   0.00000  Uiso   1.00
H123   H     0.66440   0.14755   0.03707   0.00000  Uiso   1.00
H124   H     0.39210   0.11970   0.19468   0.00000  Uiso   1.00
H125   H     0.35073   0.09828   0.03545   0.00000  Uiso   1.00
H126   H     0.60637   0.12978   0.35578   0.00000  Uiso   1.00
H127   H     0.56511   0.09520   0.38785   0.00000  Uiso   1.00
H128   H     0.52505   0.25624   0.33689   0.00000  Uiso   1.00
H129   H     0.61509   0.17966   0.41265   0.00000  Uiso   1.00
H130   H     0.62758   0.21120   0.48852   0.00000  Uiso   1.00
H131   H     0.47959   0.13804   0.09039   0.00000  Uiso   1.00
H132   H     0.60088   0.22644   0.13214   0.00000  Uiso   1.00
H133   H     0.53612   0.03094   0.35963   0.00000  Uiso   1.00
H134   H     0.45792   0.06359   0.17302   0.00000  Uiso   1.00
H135   H     0.51976   0.06581   0.15006   0.00000  Uiso   1.00
N136   N     0.38265   0.16666   0.24998   0.00000  Uiso   1.00
N137   N     0.61735   0.16669   0.24999   0.00000  Uiso   1.00
N138   N     0.48975   0.04604   0.16266   0.00000  Uiso   1.00
N139   N     0.36545   0.22106   0.31276   0.00000  Uiso   1.00
N140   N     0.63433   0.11226   0.18741   0.00000  Uiso   1.00
N141   N     0.38004   0.12811   0.40426   0.00000  Uiso   1.00
N142   N     0.41000   0.15769   0.06934   0.00000  Uiso   1.00
N143   N     0.34899   0.12437   0.01270   0.00000  Uiso   1.00
N144   N     0.56889   0.12452   0.37049   0.00000  Uiso   1.00
O145   O     0.46042   0.22678   0.25000   0.00000  Uiso   1.00
O146   O     0.48230   0.06967   0.35931   0.00000  Uiso   1.00
O147   O     0.50385   0.25875   0.14651   0.00000  Uiso   1.00
O148   O     0.48437   0.29654   0.38419   0.00000  Uiso   1.00
O149   O     0.53961   0.22679   0.25000   0.00000  Uiso   1.00
O150   O     0.44108   0.16665   0.32549   0.00000  Uiso   1.00
O151   O     0.52027   0.16666   0.32549   0.00000  Uiso   1.00
O152   O     0.46039   0.10654   0.24999   0.00000  Uiso   1.00
O153   O     0.53958   0.10655   0.24999   0.00000  Uiso   1.00
O154   O     0.47973   0.16667   0.17451   0.00000  Uiso   1.00
O155   O     0.55892   0.16668   0.17451   0.00000  Uiso   1.00
O156   O     0.65098   0.23639   0.06552   0.00000  Uiso   1.00
C157   C     0.83353   0.24578   0.24915   0.00000  Uiso   1.00
C158   C     0.79465   0.15124   0.40628   0.00000  Uiso   1.00
C159   C     0.83791   0.31030   0.29380   0.00000  Uiso   1.00
C160   C     0.80792   0.16188   0.34972   0.00000  Uiso   1.00
C161   C     0.83772   0.02025   0.29443   0.00000  Uiso   1.00
C162   C     0.83258   0.04281   0.25102   0.00000  Uiso   1.00
C163   C     0.82704   0.02279   0.20728   0.00000  Uiso   1.00
C164   C     0.82751   0.31309   0.20603   0.00000  Uiso   1.00
C165   C     0.83370   0.29041   0.24916   0.00000  Uiso   1.00
C166   C     0.96684   0.19311   0.28025   0.00000  Uiso   1.00
C167   C     0.68305   0.19307   0.28056   0.00000  Uiso   1.00
C168   C     0.81352   0.15544   0.48962   0.00000  Uiso   1.00
C169   C     0.69993   0.14057   0.21927   0.00000  Uiso   1.00
C170   C     0.98358   0.14033   0.21936   0.00000  Uiso   1.00
C171   C     0.83315   0.08751   0.25059   0.00000  Uiso   1.00
C172   C     0.85923   0.16891   0.15036   0.00000  Uiso   1.00
C173   C     0.92693   0.19750   0.01155   0.00000  Uiso   1.00
C174   C     0.87350   0.17433   0.09403   0.00000  Uiso   1.00
C175   C     0.74653   0.13938   0.43270   0.00000  Uiso   1.00
C176   C     0.73115   0.13761   0.48690   0.00000  Uiso   1.00
C177   C     0.76304   0.14950   0.01533   0.00000  Uiso   1.00
C178   C     0.94584   0.22101   0.09097   0.00000  Uiso   1.00
C179   C     0.82965   0.15301   0.43478   0.00000  Uiso   1.00
C180   C     0.84286   0.04157   0.34061   0.00000  Uiso   1.00
C181   C     0.82156   0.29313   0.15887   0.00000  Uiso   1.00
C182   C     0.83935   0.28541   0.34069   0.00000  Uiso   1.00
C183   C     0.84897   0.16512   0.01567   0.00000  Uiso   1.00
C184   C     0.89514   0.18027   0.48678   0.00000  Uiso   1.00
C185   C     0.91092   0.17380   0.43399   0.00000  Uiso   1.00
C186   C     0.88071   0.15311   0.41065   0.00000  Uiso   1.00
C187   C     0.84177   0.15809   0.06855   0.00000  Uiso   1.00
C188   C     0.91511   0.19705   0.06568   0.00000  Uiso   1.00
Cu189  Cu    0.78645   0.16666   0.25000   0.00000  Uiso   1.00
Cu190  Cu    0.88022   0.16667   0.25000   0.00000  Uiso   1.00
H191   H     0.94136   0.21412   0.30464   0.00000  Uiso   1.00
H192   H     0.80409   0.30963   0.13369   0.00000  Uiso   1.00
H193   H     0.69101   0.25098   0.30249   0.00000  Uiso   1.00
H194   H     0.67834   0.21540   0.35107   0.00000  Uiso   1.00
H195   H     0.97693   0.08243   0.19643   0.00000  Uiso   1.00
H196   H     0.98654   0.11889   0.14887   0.00000  Uiso   1.00
H197   H     0.70208   0.09770   0.41427   0.00000  Uiso   1.00
H198   H     0.68295   0.14714   0.41565   0.00000  Uiso   1.00
H199   H     0.72722   0.13077   0.08840   0.00000  Uiso   1.00
H200   H     0.71701   0.18075   0.07403   0.00000  Uiso   1.00
H201   H     0.99773   0.14755   0.03707   0.00000  Uiso   1.00
H202   H     0.72544   0.11970   0.19468   0.00000  Uiso   1.00
H203   H     0.68406   0.09828   0.03545   0.00000  Uiso   1.00
H204   H     0.93970   0.12978   0.35578   0.00000  Uiso   1.00
H205   H     0.89845   0.09520   0.38785   0.00000  Uiso   1.00
H206   H     0.85839   0.25624   0.33689   0.00000  Uiso   1.00
H207   H     0.94842   0.17966   0.41265   0.00000  Uiso   1.00
H208   H     0.96091   0.21120   0.48852   0.00000  Uiso   1.00
H209   H     0.81292   0.13804   0.09039   0.00000  Uiso   1.00
H210   H     0.93421   0.22644   0.13214   0.00000  Uiso   1.00
H211   H     0.86945   0.03094   0.35963   0.00000  Uiso   1.00
H212   H     0.79125   0.06359   0.17302   0.00000  Uiso   1.00
H213   H     0.85310   0.06581   0.15006   0.00000  Uiso   1.00
N214   N     0.71598   0.16666   0.24998   0.00000  Uiso   1.00
N215   N     0.95069   0.16669   0.24999   0.00000  Uiso   1.00
N216   N     0.82308   0.04604   0.16266   0.00000  Uiso   1.00
N217   N     0.69879   0.22106   0.31276   0.00000  Uiso   1.00
N218   N     0.96766   0.11226   0.18741   0.00000  Uiso   1.00
N219   N     0.71338   0.12811   0.40426   0.00000  Uiso   1.00
N220   N     0.74333   0.15769   0.06934   0.00000  Uiso   1.00
N221   N     0.68232   0.12437   0.01270   0.00000  Uiso   1.00
N222   N     0.90222   0.12452   0.37049   0.00000  Uiso   1.00
O223   O     0.79375   0.22678   0.25000   0.00000  Uiso   1.00
O224   O     0.81563   0.06967   0.35931   0.00000  Uiso   1.00
O225   O     0.83718   0.25875   0.14651   0.00000  Uiso   1.00
O226   O     0.81770   0.29654   0.38419   0.00000  Uiso   1.00
O227   O     0.87294   0.22679   0.25000   0.00000  Uiso   1.00
O228   O     0.77441   0.16665   0.32549   0.00000  Uiso   1.00
O229   O     0.85360   0.16666   0.32549   0.00000  Uiso   1.00
O230   O     0.79373   0.10654   0.24999   0.00000  Uiso   1.00
O231   O     0.87292   0.10655   0.24999   0.00000  Uiso   1.00
O232   O     0.81306   0.16667   0.17451   0.00000  Uiso   1.00
O233   O     0.89225   0.16668   0.17451   0.00000  Uiso   1.00
O234   O     0.98432   0.23639   0.06552   0.00000  Uiso   1.00
C235   C     0.16686   0.57911   0.24915   0.00000  Uiso   1.00
C236   C     0.12799   0.48457   0.40628   0.00000  Uiso   1.00
C237   C     0.17124   0.64363   0.29380   0.00000  Uiso   1.00
C238   C     0.14125   0.49521   0.34972   0.00000  Uiso   1.00
C239   C     0.17105   0.35359   0.29443   0.00000  Uiso   1.00
C240   C     0.16592   0.37614   0.25102   0.00000  Uiso   1.00
C241   C     0.16037   0.35613   0.20728   0.00000  Uiso   1.00
C242   C     0.16084   0.64643   0.20603   0.00000  Uiso   1.00
C243   C     0.16703   0.62374   0.24916   0.00000  Uiso   1.00
C244   C     0.30017   0.52644   0.28025   0.00000  Uiso   1.00
C245   C     0.01639   0.52641   0.28056   0.00000  Uiso   1.00
C246   C     0.14685   0.48877   0.48962   0.00000  Uiso   1.00
C247   C     0.03326   0.47391   0.21927   0.00000  Uiso   1.00
C248   C     0.31692   0.47366   0.21936   0.00000  Uiso   1.00
C249   C     0.16648   0.42084   0.25059   0.00000  Uiso   1.00
C250   C     0.19256   0.50224   0.15036   0.00000  Uiso   1.00
C251   C     0.26026   0.53083   0.01155   0.00000  Uiso   1.00
C252   C     0.20683   0.50767   0.09403   0.00000  Uiso   1.00
C253   C     0.07987   0.47271   0.43270   0.00000  Uiso   1.00
C254   C     0.06448   0.47094   0.48690   0.00000  Uiso   1.00
C255   C     0.09637   0.48283   0.01533   0.00000  Uiso   1.00
C256   C     0.27917   0.55434   0.09097   0.00000  Uiso   1.00
C257   C     0.16298   0.48635   0.43478   0.00000  Uiso   1.00
C258   C     0.17619   0.37491   0.34061   0.00000  Uiso   1.00
C259   C     0.15490   0.62646   0.15887   0.00000  Uiso   1.00
C260   C     0.17269   0.61874   0.34069   0.00000  Uiso   1.00
C261   C     0.18230   0.49845   0.01567   0.00000  Uiso   1.00
C262   C     0.22847   0.51360   0.48678   0.00000  Uiso   1.00
C263   C     0.24425   0.50714   0.43399   0.00000  Uiso   1.00
C264   C     0.21405   0.48644   0.41065   0.00000  Uiso   1.00
C265   C     0.17510   0.49142   0.06855   0.00000  Uiso   1.00
C266   C     0.24845   0.53038   0.06568   0.00000  Uiso   1.00
Cu267  Cu    0.11978   0.49999   0.25000   0.00000  Uiso   1.00
Cu268  Cu    0.21355   0.50001   0.25000   0.00000  Uiso   1.00
H269   H     0.27469   0.54745   0.30464   0.00000  Uiso   1.00
H270   H     0.13742   0.64297   0.13369   0.00000  Uiso   1.00
H271   H     0.02434   0.58431   0.30249   0.00000  Uiso   1.00
H272   H     0.01167   0.54874   0.35107   0.00000  Uiso   1.00
H273   H     0.31026   0.41577   0.19643   0.00000  Uiso   1.00
H274   H     0.31988   0.45223   0.14887   0.00000  Uiso   1.00
H275   H     0.03542   0.43104   0.41427   0.00000  Uiso   1.00
H276   H     0.01629   0.48047   0.41565   0.00000  Uiso   1.00
H277   H     0.06056   0.46411   0.08840   0.00000  Uiso   1.00
H278   H     0.05034   0.51408   0.07403   0.00000  Uiso   1.00
H279   H     0.33107   0.48088   0.03707   0.00000  Uiso   1.00
H280   H     0.05877   0.45303   0.19468   0.00000  Uiso   1.00
H281   H     0.01740   0.43161   0.03545   0.00000  Uiso   1.00
H282   H     0.27303   0.46311   0.35578   0.00000  Uiso   1.00
H283   H     0.23178   0.42853   0.38785   0.00000  Uiso   1.00
H284   H     0.19172   0.58958   0.33689   0.00000  Uiso   1.00
H285   H     0.28176   0.51299   0.41265   0.00000  Uiso   1.00
H286   H     0.29425   0.54453   0.48852   0.00000  Uiso   1.00
H287   H     0.14625   0.47138   0.09039   0.00000  Uiso   1.00
H288   H     0.26755   0.55977   0.13214   0.00000  Uiso   1.00
H289   H     0.20278   0.36427   0.35963   0.00000  Uiso   1.00
H290   H     0.12458   0.39692   0.17302   0.00000  Uiso   1.00
H291   H     0.18643   0.39914   0.15006   0.00000  Uiso   1.00
N292   N     0.04931   0.49999   0.24998   0.00000  Uiso   1.00
N293   N     0.28402   0.50002   0.24999   0.00000  Uiso   1.00
N294   N     0.15642   0.37937   0.16266   0.00000  Uiso   1.00
N295   N     0.03212   0.55439   0.31276   0.00000  Uiso   1.00
N296   N     0.30099   0.44560   0.18741   0.00000  Uiso   1.00
N297   N     0.04671   0.46145   0.40426   0.00000  Uiso   1.00
N298   N     0.07667   0.49103   0.06934   0.00000  Uiso   1.00
N299   N     0.01566   0.45770   0.01270   0.00000  Uiso   1.00
N300   N     0.23556   0.45785   0.37049   0.00000  Uiso   1.00
O301   O     0.12708   0.56011   0.25000   0.00000  Uiso   1.00
O302   O     0.14897   0.40300   0.35931   0.00000  Uiso   1.00
O303   O     0.17051   0.59209   0.14651   0.00000  Uiso   1.00
O304   O     0.15103   0.62987   0.38419   0.00000  Uiso   1.00
O305   O     0.20627   0.56012   0.25000   0.00000  Uiso   1.00
O306   O     0.10775   0.49998   0.32549   0.00000  Uiso   1.00
O307   O     0.18694   0.49999   0.32549   0.00000  Uiso   1.00
O308   O     0.12706   0.43988   0.24999   0.00000  Uiso   1.00
O309   O     0.20625   0.43989   0.24999   0.00000  Uiso   1.00
O310   O     0.14640   0.50001   0.17451   0.00000  Uiso   1.00
O311   O     0.22559   0.50002   0.17451   0.00000  Uiso   1.00
O312   O     0.31765   0.56972   0.06552   0.00000  Uiso   1.00
C313   C     0.50020   0.57911   0.24915   0.00000  Uiso   1.00
C314   C     0.46132   0.48457   0.40628   0.00000  Uiso   1.00
C315   C     0.50458   0.64363   0.29380   0.00000  Uiso   1.00
C316   C     0.47458   0.49521   0.34972   0.00000  Uiso   1.00
C317   C     0.50439   0.35359   0.29443   0.00000  Uiso   1.00
C318   C     0.49925   0.37614   0.25102   0.00000  Uiso   1.00
C319   C     0.49370   0.35613   0.20728   0.00000  Uiso   1.00
C320   C     0.49418   0.64643   0.20603   0.00000  Uiso   1.00
C321   C     0.50036   0.62374   0.24916   0.00000  Uiso   1.00
C322   C     0.63351   0.52644   0.28025   0.00000  Uiso   1.00
C323   C     0.34972   0.52641   0.28056   0.00000  Uiso   1.00
C324   C     0.48018   0.48877   0.48962   0.00000  Uiso   1.00
C325   C     0.36659   0.47391   0.21927   0.00000  Uiso   1.00
C326   C     0.65025   0.47366   0.21936   0.00000  Uiso   1.00
C327   C     0.49981   0.42084   0.25059   0.00000  Uiso   1.00
C328   C     0.52590   0.50224   0.15036   0.00000  Uiso   1.00
C329   C     0.59360   0.53083   0.01155   0.00000  Uiso   1.00
C330   C     0.54017   0.50767   0.09403   0.00000  Uiso   1.00
C331   C     0.41320   0.47271   0.43270   0.00000  Uiso   1.00
C332   C     0.39781   0.47094   0.48690   0.00000  Uiso   1.00
C333   C     0.42971   0.48283   0.01533   0.00000  Uiso   1.00
C334   C     0.61250   0.55434   0.09097   0.00000  Uiso   1.00
C335   C     0.49632   0.48635   0.43478   0.00000  Uiso   1.00
C336   C     0.50953   0.37491   0.34061   0.00000  Uiso   1.00
C337   C     0.48823   0.62646   0.15887   0.00000  Uiso   1.00
C338   C     0.50602   0.61874   0.34069   0.00000  Uiso   1.00
C339   C     0.51564   0.49845   0.01567   0.00000  Uiso   1.00
C340   C     0.56180   0.51360   0.48678   0.00000  Uiso   1.00
C341   C     0.57759   0.50714   0.43399   0.00000  Uiso   1.00
C342   C     0.54738   0.48644   0.41065   0.00000  Uiso   1.00
C343   C     0.50843   0.49142   0.06855   0.00000  Uiso   1.00
C344   C     0.58178   0.53038   0.06568   0.00000  Uiso   1.00
Cu345  Cu    0.45311   0.49999   0.25000   0.00000  Uiso   1.00
Cu346  Cu    0.54689   0.50001   0.25000   0.00000  Uiso   1.00
H347   H     0.60802   0.54745   0.30464   0.00000  Uiso   1.00
H348   H     0.47075   0.64297   0.13369   0.00000  Uiso   1.00
H349   H     0.35767   0.58431   0.30249   0.00000  Uiso   1.00
H350   H     0.34500   0.54874   0.35107   0.00000  Uiso   1.00
H351   H     0.64359   0.41577   0.19643   0.00000  Uiso   1.00
H352   H     0.65321   0.45223   0.14887   0.00000  Uiso   1.00
H353   H     0.36875   0.43104   0.41427   0.00000  Uiso   1.00
H354   H     0.34962   0.48047   0.41565   0.00000  Uiso   1.00
H355   H     0.39389   0.46411   0.08840   0.00000  Uiso   1.00
H356   H     0.38368   0.51408   0.07403   0.00000  Uiso   1.00
H357   H     0.66440   0.48088   0.03707   0.00000  Uiso   1.00
H358   H     0.39210   0.45303   0.19468   0.00000  Uiso   1.00
H359   H     0.35073   0.43161   0.03545   0.00000  Uiso   1.00
H360   H     0.60637   0.46311   0.35578   0.00000  Uiso   1.00
H361   H     0.56511   0.42853   0.38785   0.00000  Uiso   1.00
H362   H     0.52505   0.58958   0.33689   0.00000  Uiso   1.00
H363   H     0.61509   0.51299   0.41265   0.00000  Uiso   1.00
H364   H     0.62758   0.54453   0.48852   0.00000  Uiso   1.00
H365   H     0.47959   0.47138   0.09039   0.00000  Uiso   1.00
H366   H     0.60088   0.55977   0.13214   0.00000  Uiso   1.00
H367   H     0.53612   0.36427   0.35963   0.00000  Uiso   1.00
H368   H     0.45792   0.39692   0.17302   0.00000  Uiso   1.00
H369   H     0.51976   0.39914   0.15006   0.00000  Uiso   1.00
N370   N     0.38265   0.49999   0.24998   0.00000  Uiso   1.00
N371   N     0.61735   0.50002   0.24999   0.00000  Uiso   1.00
N372   N     0.48975   0.37937   0.16266   0.00000  Uiso   1.00
N373   N     0.36545   0.55439   0.31276   0.00000  Uiso   1.00
N374   N     0.63433   0.44560   0.18741   0.00000  Uiso   1.00
N375   N     0.38004   0.46145   0.40426   0.00000  Uiso   1.00
N376   N     0.41000   0.49103   0.06934   0.00000  Uiso   1.00
N377   N     0.34899   0.45770   0.01270   0.00000  Uiso   1.00
N378   N     0.56889   0.45785   0.37049   0.00000  Uiso   1.00
O379   O     0.46042   0.56011   0.25000   0.00000  Uiso   1.00
O380   O     0.48230   0.40300   0.35931   0.00000  Uiso   1.00
O381   O     0.50385   0.59209   0.14651   0.00000  Uiso   1.00
O382   O     0.48437   0.62987   0.38419   0.00000  Uiso   1.00
O383   O     0.53961   0.56012   0.25000   0.00000  Uiso   1.00
O384   O     0.44108   0.49998   0.32549   0.00000  Uiso   1.00
O385   O     0.52027   0.49999   0.32549   0.00000  Uiso   1.00
O386   O     0.46039   0.43988   0.24999   0.00000  Uiso   1.00
O387   O     0.53958   0.43989   0.24999   0.00000  Uiso   1.00
O388   O     0.47973   0.50001   0.17451   0.00000  Uiso   1.00
O389   O     0.55892   0.50002   0.17451   0.00000  Uiso   1.00
O390   O     0.65098   0.56972   0.06552   0.00000  Uiso   1.00
C391   C     0.83353   0.57911   0.24915   0.00000  Uiso   1.00
C392   C     0.79465   0.48457   0.40628   0.00000  Uiso   1.00
C393   C     0.83791   0.64363   0.29380   0.00000  Uiso   1.00
C394   C     0.80792   0.49521   0.34972   0.00000  Uiso   1.00
C395   C     0.83772   0.35359   0.29443   0.00000  Uiso   1.00
C396   C     0.83258   0.37614   0.25102   0.00000  Uiso   1.00
C397   C     0.82704   0.35613   0.20728   0.00000  Uiso   1.00
C398   C     0.82751   0.64643   0.20603   0.00000  Uiso   1.00
C399   C     0.83370   0.62374   0.24916   0.00000  Uiso   1.00
C400   C     0.96684   0.52644   0.28025   0.00000  Uiso   1.00
C401   C     0.68305   0.52641   0.28056   0.00000  Uiso   1.00
C402   C     0.81352   0.48877   0.48962   0.00000  Uiso   1.00
C403   C     0.69993   0.47391   0.21927   0.00000  Uiso   1.00
C404   C     0.98358   0.47366   0.21936   0.00000  Uiso   1.00
C405   C     0.83315   0.42084   0.25059   0.00000  Uiso   1.00
C406   C     0.85923   0.50224   0.15036   0.00000  Uiso   1.00
C407   C     0.92693   0.53083   0.01155   0.00000  Uiso   1.00
C408   C     0.87350   0.50767   0.09403   0.00000  Uiso   1.00
C409   C     0.74653   0.47271   0.43270   0.00000  Uiso   1.00
C410   C     0.73115   0.47094   0.48690   0.00000  Uiso   1.00
C411   C     0.76304   0.48283   0.01533   0.00000  Uiso   1.00
C412   C     0.94584   0.55434   0.09097   0.00000  Uiso   1.00
C413   C     0.82965   0.48635   0.43478   0.00000  Uiso   1.00
C414   C     0.84286   0.37491   0.34061   0.00000  Uiso   1.00
C415   C     0.82156   0.62646   0.15887   0.00000  Uiso   1.00
C416   C     0.83935   0.61874   0.34069   0.00000  Uiso   1.00
C417   C     0.84897   0.49845   0.01567   0.00000  Uiso   1.00
C418   C     0.89514   0.51360   0.48678   0.00000  Uiso   1.00
C419   C     0.91092   0.50714   0.43399   0.00000  Uiso   1.00
C420   C     0.88071   0.48644   0.41065   0.00000  Uiso   1.00
C421   C     0.84177   0.49142   0.06855   0.00000  Uiso   1.00
C422   C     0.91511   0.53038   0.06568   0.00000  Uiso   1.00
Cu423  Cu    0.78645   0.49999   0.25000   0.00000  Uiso   1.00
Cu424  Cu    0.88022   0.50001   0.25000   0.00000  Uiso   1.00
H425   H     0.94136   0.54745   0.30464   0.00000  Uiso   1.00
H426   H     0.80409   0.64297   0.13369   0.00000  Uiso   1.00
H427   H     0.69101   0.58431   0.30249   0.00000  Uiso   1.00
H428   H     0.67834   0.54874   0.35107   0.00000  Uiso   1.00
H429   H     0.97693   0.41577   0.19643   0.00000  Uiso   1.00
H430   H     0.98654   0.45223   0.14887   0.00000  Uiso   1.00
H431   H     0.70208   0.43104   0.41427   0.00000  Uiso   1.00
H432   H     0.68295   0.48047   0.41565   0.00000  Uiso   1.00
H433   H     0.72722   0.46411   0.08840   0.00000  Uiso   1.00
H434   H     0.71701   0.51408   0.07403   0.00000  Uiso   1.00
H435   H     0.99773   0.48088   0.03707   0.00000  Uiso   1.00
H436   H     0.72544   0.45303   0.19468   0.00000  Uiso   1.00
H437   H     0.68406   0.43161   0.03545   0.00000  Uiso   1.00
H438   H     0.93970   0.46311   0.35578   0.00000  Uiso   1.00
H439   H     0.89845   0.42853   0.38785   0.00000  Uiso   1.00
H440   H     0.85839   0.58958   0.33689   0.00000  Uiso   1.00
H441   H     0.94842   0.51299   0.41265   0.00000  Uiso   1.00
H442   H     0.96091   0.54453   0.48852   0.00000  Uiso   1.00
H443   H     0.81292   0.47138   0.09039   0.00000  Uiso   1.00
H444   H     0.93421   0.55977   0.13214   0.00000  Uiso   1.00
H445   H     0.86945   0.36427   0.35963   0.00000  Uiso   1.00
H446   H     0.79125   0.39692   0.17302   0.00000  Uiso   1.00
H447   H     0.85310   0.39914   0.15006   0.00000  Uiso   1.00
N448   N     0.71598   0.49999   0.24998   0.00000  Uiso   1.00
N449   N     0.95069   0.50002   0.24999   0.00000  Uiso   1.00
N450   N     0.82308   0.37937   0.16266   0.00000  Uiso   1.00
N451   N     0.69879   0.55439   0.31276   0.00000  Uiso   1.00
N452   N     0.96766   0.44560   0.18741   0.00000  Uiso   1.00
N453   N     0.71338   0.46145   0.40426   0.00000  Uiso   1.00
N454   N     0.74333   0.49103   0.06934   0.00000  Uiso   1.00
N455   N     0.68232   0.45770   0.01270   0.00000  Uiso   1.00
N456   N     0.90222   0.45785   0.37049   0.00000  Uiso   1.00
O457   O     0.79375   0.56011   0.25000   0.00000  Uiso   1.00
O458   O     0.81563   0.40300   0.35931   0.00000  Uiso   1.00
O459   O     0.83718   0.59209   0.14651   0.00000  Uiso   1.00
O460   O     0.81770   0.62987   0.38419   0.00000  Uiso   1.00
O461   O     0.87294   0.56012   0.25000   0.00000  Uiso   1.00
O462   O     0.77441   0.49998   0.32549   0.00000  Uiso   1.00
O463   O     0.85360   0.49999   0.32549   0.00000  Uiso   1.00
O464   O     0.79373   0.43988   0.24999   0.00000  Uiso   1.00
O465   O     0.87292   0.43989   0.24999   0.00000  Uiso   1.00
O466   O     0.81306   0.50001   0.17451   0.00000  Uiso   1.00
O467   O     0.89225   0.50002   0.17451   0.00000  Uiso   1.00
O468   O     0.98432   0.56972   0.06552   0.00000  Uiso   1.00
C469   C     0.16686   0.91244   0.24915   0.00000  Uiso   1.00
C470   C     0.12799   0.81790   0.40628   0.00000  Uiso   1.00
C471   C     0.17124   0.97697   0.29380   0.00000  Uiso   1.00
C472   C     0.14125   0.82854   0.34972   0.00000  Uiso   1.00
C473   C     0.17105   0.68692   0.29443   0.00000  Uiso   1.00
C474   C     0.16592   0.70947   0.25102   0.00000  Uiso   1.00
C475   C     0.16037   0.68946   0.20728   0.00000  Uiso   1.00
C476   C     0.16084   0.97976   0.20603   0.00000  Uiso   1.00
C477   C     0.16703   0.95707   0.24916   0.00000  Uiso   1.00
C478   C     0.30017   0.85977   0.28025   0.00000  Uiso   1.00
C479   C     0.01639   0.85974   0.28056   0.00000  Uiso   1.00
C480   C     0.14685   0.82210   0.48962   0.00000  Uiso   1.00
C481   C     0.03326   0.80724   0.21927   0.00000  Uiso   1.00
C482   C     0.31692   0.80700   0.21936   0.00000  Uiso   1.00
C483   C     0.16648   0.75418   0.25059   0.00000  Uiso   1.00
C484   C     0.19256   0.83557   0.15036   0.00000  Uiso   1.00
C485   C     0.26026   0.86416   0.01155   0.00000  Uiso   1.00
C486   C     0.20683   0.84100   0.09403   0.00000  Uiso   1.00
C487   C     0.07987   0.80605   0.43270   0.00000  Uiso   1.00
C488   C     0.06448   0.80427   0.48690   0.00000  Uiso   1.00
C489   C     0.09637   0.81617   0.01533   0.00000  Uiso   1.00
C490   C     0.27917   0.88768   0.09097   0.00000  Uiso   1.00
C491   C     0.16298   0.81968   0.43478   0.00000  Uiso   1.00
C492   C     0.17619   0.70824   0.34061   0.00000  Uiso   1.00
C493   C     0.15490   0.95980   0.15887   0.00000  Uiso   1.00
C494   C     0.17269   0.95208   0.34069   0.00000  Uiso   1.00
C495   C     0.18230   0.83179   0.01567   0.00000  Uiso   1.00
C496   C     0.22847   0.84693   0.48678   0.00000  Uiso   1.00
C497   C     0.24425   0.84047   0.43399   0.00000  Uiso   1.00
C498   C     0.21405   0.81977   0.41065   0.00000  Uiso   1.00
C499   C     0.17510   0.82476   0.06855   0.00000  Uiso   1.00
C500   C     0.24845   0.86372   0.06568   0.00000  Uiso   1.00
Cu501  Cu    0.11978   0.83333   0.25000   0.00000  Uiso   1.00
Cu502  Cu    0.21355   0.83334   0.25000   0.00000  Uiso   1.00
H503   H     0.27469   0.88079   0.30464   0.00000  Uiso   1.00
H504   H     0.13742   0.97630   0.13369   0.00000  Uiso   1.00
H505   H     0.02434   0.91765   0.30249   0.00000  Uiso   1.00
H506   H     0.01167   0.88207   0.35107   0.00000  Uiso   1.00
H507   H     0.31026   0.74910   0.19643   0.00000  Uiso   1.00
H508   H     0.31988   0.78556   0.14887   0.00000  Uiso   1.00
H509   H     0.03542   0.76437   0.41427   0.00000  Uiso   1.00
H510   H     0.01629   0.81380   0.41565   0.00000  Uiso   1.00
H511   H     0.06056   0.79744   0.08840   0.00000  Uiso   1.00
H512   H     0.05034   0.84741   0.07403   0.00000  Uiso   1.00
H513   H     0.33107   0.81422   0.03707   0.00000  Uiso   1.00
H514   H     0.05877   0.78637   0.19468   0.00000  Uiso   1.00
H515   H     0.01740   0.76494   0.03545   0.00000  Uiso   1.00
H516   H     0.27303   0.79644   0.35578   0.00000  Uiso   1.00
H517   H     0.23178   0.76186   0.38785   0.00000  Uiso   1.00
H518   H     0.19172   0.92291   0.33689   0.00000  Uiso   1.00
H519   H     0.28176   0.84633   0.41265   0.00000  Uiso   1.00
H520   H     0.29425   0.87787   0.48852   0.00000  Uiso   1.00
H521   H     0.14625   0.80471   0.09039   0.00000  Uiso   1.00
H522   H     0.26755   0.89311   0.13214   0.00000  Uiso   1.00
H523   H     0.20278   0.69760   0.35963   0.00000  Uiso   1.00
H524   H     0.12458   0.73025   0.17302   0.00000  Uiso   1.00
H525   H     0.18643   0.73248   0.15006   0.00000  Uiso   1.00
N526   N     0.04931   0.83332   0.24998   0.00000  Uiso   1.00
N527   N     0.28402   0.83335   0.24999   0.00000  Uiso   1.00
N528   N     0.15642   0.71271   0.16266   0.00000  Uiso   1.00
N529   N     0.03212   0.88772   0.31276   0.00000  Uiso   1.00
N530   N     0.30099   0.77893   0.18741   0.00000  Uiso   1.00
N531   N     0.04671   0.79478   0.40426   0.00000  Uiso   1.00
N532   N     0.07667   0.82436   0.06934   0.00000  Uiso   1.00
N533   N     0.01566   0.79103   0.01270   0.00000  Uiso   1.00
N534   N     0.23556   0.79119   0.37049   0.00000  Uiso   1.00
O535   O     0.12708   0.89345   0.25000   0.00000  Uiso   1.00
O536   O     0.14897   0.73634   0.35931   0.00000  Uiso   1.00
O537   O     0.17051   0.92542   0.14651   0.00000  Uiso   1.00
O538   O     0.15103   0.96320   0.38419   0.00000  Uiso   1.00
O539   O     0.20627   0.89346   0.25000   0.00000  Uiso   1.00
O540   O     0.10775   0.83332   0.32549   0.00000  Uiso   1.00
O541   O     0.18694   0.83333   0.32549   0.00000  Uiso   1.00
O542   O     0.12706   0.77321   0.24999   0.00000  Uiso   1.00
O543   O     0.20625   0.77322   0.24999   0.00000  Uiso   1.00
O544   O     0.14640   0.83334   0.17451   0.00000  Uiso   1.00
O545   O     0.22559   0.83335   0.17451   0.00000  Uiso   1.00
O546   O     0.31765   0.90306   0.06552   0.00000  Uiso   1.00
C547   C     0.50020   0.91244   0.24915   0.00000  Uiso   1.00
C548   C     0.46132   0.81790   0.40628   0.00000  Uiso   1.00
C549   C     0.50458   0.97697   0.29380   0.00000  Uiso   1.00
C550   C     0.47458   0.82854   0.34972   0.00000  Uiso   1.00
C551   C     0.50439   0.68692   0.29443   0.00000  Uiso   1.00
C552   C     0.49925   0.70947   0.25102   0.00000  Uiso   1.00
C553   C     0.49370   0.68946   0.20728   0.00000  Uiso   1.00
C554   C     0.49418   0.97976   0.20603   0.00000  Uiso   1.00
C555   C     0.50036   0.95707   0.24916   0.00000  Uiso   1.00
C556   C     0.63351   0.85977   0.28025   0.00000  Uiso   1.00
C557   C     0.34972   0.85974   0.28056   0.00000  Uiso   1.00
C558   C     0.48018   0.82210   0.48962   0.00000  Uiso   1.00
C559   C     0.36659   0.80724   0.21927   0.00000  Uiso   1.00
C560   C     0.65025   0.80700   0.21936   0.00000  Uiso   1.00
C561   C     0.49981   0.75418   0.25059   0.00000  Uiso   1.00
C562   C     0.52590   0.83557   0.15036   0.00000  Uiso   1.00
C563   C     0.59360   0.86416   0.01155   0.00000  Uiso   1.00
C564   C     0.54017   0.84100   0.09403   0.00000  Uiso   1.00
C565   C     0.41320   0.80605   0.43270   0.00000  Uiso   1.00
C566   C     0.39781   0.80427   0.48690   0.00000  Uiso   1.00
C567   C     0.42971   0.81617   0.01533   0.00000  Uiso   1.00
C568   C     0.61250   0.88768   0.09097   0.00000  Uiso   1.00
C569   C     0.49632   0.81968   0.43478   0.00000  Uiso   1.00
C570   C     0.50953   0.70824   0.34061   0.00000  Uiso   1.00
C571   C     0.48823   0.95980   0.15887   0.00000  Uiso   1.00
C572   C     0.50602   0.95208   0.34069   0.00000  Uiso   1.00
C573   C     0.51564   0.83179   0.01567   0.00000  Uiso   1.00
C574   C     0.56180   0.84693   0.48678   0.00000  Uiso   1.00
C575   C     0.57759   0.84047   0.43399   0.00000  Uiso   1.00
C576   C     0.54738   0.81977   0.41065   0.00000  Uiso   1.00
C577   C     0.50843   0.82476   0.06855   0.00000  Uiso   1.00
C578   C     0.58178   0.86372   0.06568   0.00000  Uiso   1.00
Cu579  Cu    0.45311   0.83333   0.25000   0.00000  Uiso   1.00
Cu580  Cu    0.54689   0.83334   0.25000   0.00000  Uiso   1.00
H581   H     0.60802   0.88079   0.30464   0.00000  Uiso   1.00
H582   H     0.47075   0.97630   0.13369   0.00000  Uiso   1.00
H583   H     0.35767   0.91765   0.30249   0.00000  Uiso   1.00
H584   H     0.34500   0.88207   0.35107   0.00000  Uiso   1.00
H585   H     0.64359   0.74910   0.19643   0.00000  Uiso   1.00
H586   H     0.65321   0.78556   0.14887   0.00000  Uiso   1.00
H587   H     0.36875   0.76437   0.41427   0.00000  Uiso   1.00
H588   H     0.34962   0.81380   0.41565   0.00000  Uiso   1.00
H589   H     0.39389   0.79744   0.08840   0.00000  Uiso   1.00
H590   H     0.38368   0.84741   0.07403   0.00000  Uiso   1.00
H591   H     0.66440   0.81422   0.03707   0.00000  Uiso   1.00
H592   H     0.39210   0.78637   0.19468   0.00000  Uiso   1.00
H593   H     0.35073   0.76494   0.03545   0.00000  Uiso   1.00
H594   H     0.60637   0.79644   0.35578   0.00000  Uiso   1.00
H595   H     0.56511   0.76186   0.38785   0.00000  Uiso   1.00
H596   H     0.52505   0.92291   0.33689   0.00000  Uiso   1.00
H597   H     0.61509   0.84633   0.41265   0.00000  Uiso   1.00
H598   H     0.62758   0.87787   0.48852   0.00000  Uiso   1.00
H599   H     0.47959   0.80471   0.09039   0.00000  Uiso   1.00
H600   H     0.60088   0.89311   0.13214   0.00000  Uiso   1.00
H601   H     0.53612   0.69760   0.35963   0.00000  Uiso   1.00
H602   H     0.45792   0.73025   0.17302   0.00000  Uiso   1.00
H603   H     0.51976   0.73248   0.15006   0.00000  Uiso   1.00
N604   N     0.38265   0.83332   0.24998   0.00000  Uiso   1.00
N605   N     0.61735   0.83335   0.24999   0.00000  Uiso   1.00
N606   N     0.48975   0.71271   0.16266   0.00000  Uiso   1.00
N607   N     0.36545   0.88772   0.31276   0.00000  Uiso   1.00
N608   N     0.63433   0.77893   0.18741   0.00000  Uiso   1.00
N609   N     0.38004   0.79478   0.40426   0.00000  Uiso   1.00
N610   N     0.41000   0.82436   0.06934   0.00000  Uiso   1.00
N611   N     0.34899   0.79103   0.01270   0.00000  Uiso   1.00
N612   N     0.56889   0.79119   0.37049   0.00000  Uiso   1.00
O613   O     0.46042   0.89345   0.25000   0.00000  Uiso   1.00
O614   O     0.48230   0.73634   0.35931   0.00000  Uiso   1.00
O615   O     0.50385   0.92542   0.14651   0.00000  Uiso   1.00
O616   O     0.48437   0.96320   0.38419   0.00000  Uiso   1.00
O617   O     0.53961   0.89346   0.25000   0.00000  Uiso   1.00
O618   O     0.44108   0.83332   0.32549   0.00000  Uiso   1.00
O619   O     0.52027   0.83333   0.32549   0.00000  Uiso   1.00
O620   O     0.46039   0.77321   0.24999   0.00000  Uiso   1.00
O621   O     0.53958   0.77322   0.24999   0.00000  Uiso   1.00
O622   O     0.47973   0.83334   0.17451   0.00000  Uiso   1.00
O623   O     0.55892   0.83335   0.17451   0.00000  Uiso   1.00
O624   O     0.65098   0.90306   0.06552   0.00000  Uiso   1.00
C625   C     0.83353   0.91244   0.24915   0.00000  Uiso   1.00
C626   C     0.79465   0.81790   0.40628   0.00000  Uiso   1.00
C627   C     0.83791   0.97697   0.29380   0.00000  Uiso   1.00
C628   C     0.80792   0.82854   0.34972   0.00000  Uiso   1.00
C629   C     0.83772   0.68692   0.29443   0.00000  Uiso   1.00
C630   C     0.83258   0.70947   0.25102   0.00000  Uiso   1.00
C631   C     0.82704   0.68946   0.20728   0.00000  Uiso   1.00
C632   C     0.82751   0.97976   0.20603   0.00000  Uiso   1.00
C633   C     0.83370   0.95707   0.24916   0.00000  Uiso   1.00
C634   C     0.96684   0.85977   0.28025   0.00000  Uiso   1.00
C635   C     0.68305   0.85974   0.28056   0.00000  Uiso   1.00
C636   C     0.81352   0.82210   0.48962   0.00000  Uiso   1.00
C637   C     0.69993   0.80724   0.21927   0.00000  Uiso   1.00
C638   C     0.98358   0.80700   0.21936   0.00000  Uiso   1.00
C639   C     0.83315   0.75418   0.25059   0.00000  Uiso   1.00
C640   C     0.85923   0.83557   0.15036   0.00000  Uiso   1.00
C641   C     0.92693   0.86416   0.01155   0.00000  Uiso   1.00
C642   C     0.87350   0.84100   0.09403   0.00000  Uiso   1.00
C643   C     0.74653   0.80605   0.43270   0.00000  Uiso   1.00
C644   C     0.73115   0.80427   0.48690   0.00000  Uiso   1.00
C645   C     0.76304   0.81617   0.01533   0.00000  Uiso   1.00
C646   C     0.94584   0.88768   0.09097   0.00000  Uiso   1.00
C647   C     0.82965   0.81968   0.43478   0.00000  Uiso   1.00
C648   C     0.84286   0.70824   0.34061   0.00000  Uiso   1.00
C649   C     0.82156   0.95980   0.15887   0.00000  Uiso   1.00
C650   C     0.83935   0.95208   0.34069   0.00000  Uiso   1.00
C651   C     0.84897   0.83179   0.01567   0.00000  Uiso   1.00
C652   C     0.89514   0.84693   0.48678   0.00000  Uiso   1.00
C653   C     0.91092   0.84047   0.43399   0.00000  Uiso   1.00
C654   C     0.88071   0.81977   0.41065   0.00000  Uiso   1.00
C655   C     0.84177   0.82476   0.06855   0.00000  Uiso   1.00
C656   C     0.91511   0.86372   0.06568   0.00000  Uiso   1.00
Cu657  Cu    0.78645   0.83333   0.25000   0.00000  Uiso   1.00
Cu658  Cu    0.88022   0.83334   0.25000   0.00000  Uiso   1.00
H659   H     0.94136   0.88079   0.30464   0.00000  Uiso   1.00
H660   H     0.80409   0.97630   0.13369   0.00000  Uiso   1.00
H661   H     0.69101   0.91765   0.30249   0.00000  Uiso   1.00
H662   H     0.67834   0.88207   0.35107   0.00000  Uiso   1.00
H663   H     0.97693   0.74910   0.19643   0.00000  Uiso   1.00
H664   H     0.98654   0.78556   0.14887   0.00000  Uiso   1.00
H665   H     0.70208   0.76437   0.41427   0.00000  Uiso   1.00
H666   H     0.68295   0.81380   0.41565   0.00000  Uiso   1.00
H667   H     0.72722   0.79744   0.08840   0.00000  Uiso   1.00
H668   H     0.71701   0.84741   0.07403   0.00000  Uiso   1.00
H669   H     0.99773   0.81422   0.03707   0.00000  Uiso   1.00
H670   H     0.72544   0.78637   0.19468   0.00000  Uiso   1.00
H671   H     0.68406   0.76494   0.03545   0.00000  Uiso   1.00
H672   H     0.93970   0.79644   0.35578   0.00000  Uiso   1.00
H673   H     0.89845   0.76186   0.38785   0.00000  Uiso   1.00
H674   H     0.85839   0.92291   0.33689   0.00000  Uiso   1.00
H675   H     0.94842   0.84633   0.41265   0.00000  Uiso   1.00
H676   H     0.96091   0.87787   0.48852   0.00000  Uiso   1.00
H677   H     0.81292   0.80471   0.09039   0.00000  Uiso   1.00
H678   H     0.93421   0.89311   0.13214   0.00000  Uiso   1.00
H679   H     0.86945   0.69760   0.35963   0.00000  Uiso   1.00
H680   H     0.79125   0.73025   0.17302   0.00000  Uiso   1.00
H681   H     0.85310   0.73248   0.15006   0.00000  Uiso   1.00
N682   N     0.71598   0.83332   0.24998   0.00000  Uiso   1.00
N683   N     0.95069   0.83335   0.24999   0.00000  Uiso   1.00
N684   N     0.82308   0.71271   0.16266   0.00000  Uiso   1.00
N685   N     0.69879   0.88772   0.31276   0.00000  Uiso   1.00
N686   N     0.96766   0.77893   0.18741   0.00000  Uiso   1.00
N687   N     0.71338   0.79478   0.40426   0.00000  Uiso   1.00
N688   N     0.74333   0.82436   0.06934   0.00000  Uiso   1.00
N689   N     0.68232   0.79103   0.01270   0.00000  Uiso   1.00
N690   N     0.90222   0.79119   0.37049   0.00000  Uiso   1.00
O691   O     0.79375   0.89345   0.25000   0.00000  Uiso   1.00
O692   O     0.81563   0.73634   0.35931   0.00000  Uiso   1.00
O693   O     0.83718   0.92542   0.14651   0.00000  Uiso   1.00
O694   O     0.81770   0.96320   0.38419   0.00000  Uiso   1.00
O695   O     0.87294   0.89346   0.25000   0.00000  Uiso   1.00
O696   O     0.77441   0.83332   0.32549   0.00000  Uiso   1.00
O697   O     0.85360   0.83333   0.32549   0.00000  Uiso   1.00
O698   O     0.79373   0.77321   0.24999   0.00000  Uiso   1.00
O699   O     0.87292   0.77322   0.24999   0.00000  Uiso   1.00
O700   O     0.81306   0.83334   0.17451   0.00000  Uiso   1.00
O701   O     0.89225   0.83335   0.17451   0.00000  Uiso   1.00
O702   O     0.98432   0.90306   0.06552   0.00000  Uiso   1.00
C703   C     0.16686   0.24578   0.74915   0.00000  Uiso   1.00
C704   C     0.12799   0.15124   0.90628   0.00000  Uiso   1.00
C705   C     0.17124   0.31030   0.79380   0.00000  Uiso   1.00
C706   C     0.14125   0.16188   0.84972   0.00000  Uiso   1.00
C707   C     0.17105   0.02025   0.79443   0.00000  Uiso   1.00
C708   C     0.16592   0.04281   0.75102   0.00000  Uiso   1.00
C709   C     0.16037   0.02279   0.70728   0.00000  Uiso   1.00
C710   C     0.16084   0.31309   0.70603   0.00000  Uiso   1.00
C711   C     0.16703   0.29041   0.74916   0.00000  Uiso   1.00
C712   C     0.30017   0.19311   0.78025   0.00000  Uiso   1.00
C713   C     0.01639   0.19307   0.78056   0.00000  Uiso   1.00
C714   C     0.14685   0.15544   0.98962   0.00000  Uiso   1.00
C715   C     0.03326   0.14057   0.71927   0.00000  Uiso   1.00
C716   C     0.31692   0.14033   0.71936   0.00000  Uiso   1.00
C717   C     0.16648   0.08751   0.75059   0.00000  Uiso   1.00
C718   C     0.19256   0.16891   0.65036   0.00000  Uiso   1.00
C719   C     0.26026   0.19750   0.51155   0.00000  Uiso   1.00
C720   C     0.20683   0.17433   0.59403   0.00000  Uiso   1.00
C721   C     0.07987   0.13938   0.93270   0.00000  Uiso   1.00
C722   C     0.06448   0.13761   0.98690   0.00000  Uiso   1.00
C723   C     0.09637   0.14950   0.51533   0.00000  Uiso   1.00
C724   C     0.27917   0.22101   0.59097   0.00000  Uiso   1.00
C725   C     0.16298   0.15301   0.93478   0.00000  Uiso   1.00
C726   C     0.17619   0.04157   0.84061   0.00000  Uiso   1.00
C727   C     0.15490   0.29313   0.65887   0.00000  Uiso   1.00
C728   C     0.17269   0.28541   0.84069   0.00000  Uiso   1.00
C729   C     0.18230   0.16512   0.51567   0.00000  Uiso   1.00
C730   C     0.22847   0.18027   0.98678   0.00000  Uiso   1.00
C731   C     0.24425   0.17380   0.93399   0.00000  Uiso   1.00
C732   C     0.21405   0.15311   0.91065   0.00000  Uiso   1.00
C733   C     0.17510   0.15809   0.56855   0.00000  Uiso   1.00
C734   C     0.24845   0.19705   0.56568   0.00000  Uiso   1.00
Cu735  Cu    0.11978   0.16666   0.75000   0.00000  Uiso   1.00
Cu736  Cu    0.21355   0.16667   0.75000   0.00000  Uiso   1.00
H737   H     0.27469   0.21412   0.80464   0.00000  Uiso   1.00
H738   H     0.13742   0.30963   0.63369   0.00000  Uiso   1.00
H739   H     0.02434   0.25098   0.80249   0.00000  Uiso   1.00
H740   H     0.01167   0.21540   0.85107   0.00000  Uiso   1.00
H741   H     0.31026   0.08243   0.69643   0.00000  Uiso   1.00
H742   H     0.31988   0.11889   0.64887   0.00000  Uiso   1.00
H743   H     0.03542   0.09770   0.91427   0.00000  Uiso   1.00
H744   H     0.01629   0.14714   0.91565   0.00000  Uiso   1.00
H745   H     0.06056   0.13077   0.58840   0.00000  Uiso   1.00
H746   H     0.05034   0.18075   0.57403   0.00000  Uiso   1.00
H747   H     0.33107   0.14755   0.53707   0.00000  Uiso   1.00
H748   H     0.05877   0.11970   0.69468   0.00000  Uiso   1.00
H749   H     0.01740   0.09828   0.53545   0.00000  Uiso   1.00
H750   H     0.27303   0.12978   0.85578   0.00000  Uiso   1.00
H751   H     0.23178   0.09520   0.88785   0.00000  Uiso   1.00
H752   H     0.19172   0.25624   0.83689   0.00000  Uiso   1.00
H753   H     0.28176   0.17966   0.91265   0.00000  Uiso   1.00
H754   H     0.29425   0.21120   0.98852   0.00000  Uiso   1.00
H755   H     0.14625   0.13804   0.59039   0.00000  Uiso   1.00
H756   H     0.26755   0.22644   0.63214   0.00000  Uiso   1.00
H757   H     0.20278   0.03094   0.85963   0.00000  Uiso   1.00
H758   H     0.12458   0.06359   0.67302   0.00000  Uiso   1.00
H759   H     0.18643   0.06581   0.65006   0.00000  Uiso   1.00
N760   N     0.04931   0.16666   0.74998   0.00000  Uiso   1.00
N761   N     0.28402   0.16669   0.74999   0.00000  Uiso   1.00
N762   N     0.15642   0.04604   0.66266   0.00000  Uiso   1.00
N763   N     0.03212   0.22106   0.81276   0.00000  Uiso   1.00
N764   N     0.30099   0.11226   0.68741   0.00000  Uiso   1.00
N765   N     0.04671   0.12811   0.90426   0.00000  Uiso   1.00
N766   N     0.07667   0.15769   0.56934   0.00000  Uiso   1.00
N767   N     0.01566   0.12437   0.51270   0.00000  Uiso   1.00
N768   N     0.23556   0.12452   0.87049   0.00000  Uiso   1.00
O769   O     0.12708   0.22678   0.75000   0.00000  Uiso   1.00
O770   O     0.14897   0.06967   0.85931   0.00000  Uiso   1.00
O771   O     0.17051   0.25875   0.64651   0.00000  Uiso   1.00
O772   O     0.15103   0.29654   0.88419   0.00000  Uiso   1.00
O773   O     0.20627   0.22679   0.75000   0.00000  Uiso   1.00
O774   O     0.10775   0.16665   0.82549   0.00000  Uiso   1.00
O775   O     0.18694   0.16666   0.82549   0.00000  Uiso   1.00
O776   O     0.12706   0.10654   0.74999   0.00000  Uiso   1.00
O777   O     0.20625   0.10655   0.74999   0.00000  Uiso   1.00
O778   O     0.14640   0.16667   0.67451   0.00000  Uiso   1.00
O779   O     0.22559   0.16668   0.67451   0.00000  Uiso   1.00
O780   O     0.31765   0.23639   0.56552   0.00000  Uiso   1.00
C781   C     0.50020   0.24578   0.74915   0.00000  Uiso   1.00
C782   C     0.46132   0.15124   0.90628   0.00000  Uiso   1.00
C783   C     0.50458   0.31030   0.79380   0.00000  Uiso   1.00
C784   C     0.47458   0.16188   0.84972   0.00000  Uiso   1.00
C785   C     0.50439   0.02025   0.79443   0.00000  Uiso   1.00
C786   C     0.49925   0.04281   0.75102   0.00000  Uiso   1.00
C787   C     0.49370   0.02279   0.70728   0.00000  Uiso   1.00
C788   C     0.49418   0.31309   0.70603   0.00000  Uiso   1.00
C789   C     0.50036   0.29041   0.74916   0.00000  Uiso   1.00
C790   C     0.63351   0.19311   0.78025   0.00000  Uiso   1.00
C791   C     0.34972   0.19307   0.78056   0.00000  Uiso   1.00
C792   C     0.48018   0.15544   0.98962   0.00000  Uiso   1.00
C793   C     0.36659   0.14057   0.71927   0.00000  Uiso   1.00
C794   C     0.65025   0.14033   0.71936   0.00000  Uiso   1.00
C795   C     0.49981   0.08751   0.75059   0.00000  Uiso   1.00
C796   C     0.52590   0.16891   0.65036   0.00000  Uiso   1.00
C797   C     0.59360   0.19750   0.51155   0.00000  Uiso   1.00
C798   C     0.54017   0.17433   0.59403   0.00000  Uiso   1.00
C799   C     0.41320   0.13938   0.93270   0.00000  Uiso   1.00
C800   C     0.39781   0.13761   0.98690   0.00000  Uiso   1.00
C801   C     0.42971   0.14950   0.51533   0.00000  Uiso   1.00
C802   C     0.61250   0.22101   0.59097   0.00000  Uiso   1.00
C803   C     0.49632   0.15301   0.93478   0.00000  Uiso   1.00
C804   C     0.50953   0.04157   0.84061   0.00000  Uiso   1.00
C805   C     0.48823   0.29313   0.65887   0.00000  Uiso   1.00
C806   C     0.50602   0.28541   0.84069   0.00000  Uiso   1.00
C807   C     0.51564   0.16512   0.51567   0.00000  Uiso   1.00
C808   C     0.56180   0.18027   0.98678   0.00000  Uiso   1.00
C809   C     0.57759   0.17380   0.93399   0.00000  Uiso   1.00
C810   C     0.54738   0.15311   0.91065   0.00000  Uiso   1.00
C811   C     0.50843   0.15809   0.56855   0.00000  Uiso   1.00
C812   C     0.58178   0.19705   0.56568   0.00000  Uiso   1.00
Cu813  Cu    0.45311   0.16666   0.75000   0.00000  Uiso   1.00
Cu814  Cu    0.54689   0.16667   0.75000   0.00000  Uiso   1.00
H815   H     0.60802   0.21412   0.80464   0.00000  Uiso   1.00
H816   H     0.47075   0.30963   0.63369   0.00000  Uiso   1.00
H817   H     0.35767   0.25098   0.80249   0.00000  Uiso   1.00
H818   H     0.34500   0.21540   0.85107   0.00000  Uiso   1.00
H819   H     0.64359   0.08243   0.69643   0.00000  Uiso   1.00
H820   H     0.65321   0.11889   0.64887   0.00000  Uiso   1.00
H821   H     0.36875   0.09770   0.91427   0.00000  Uiso   1.00
H822   H     0.34962   0.14714   0.91565   0.00000  Uiso   1.00
H823   H     0.39389   0.13077   0.58840   0.00000  Uiso   1.00
H824   H     0.38368   0.18075   0.57403   0.00000  Uiso   1.00
H825   H     0.66440   0.14755   0.53707   0.00000  Uiso   1.00
H826   H     0.39210   0.11970   0.69468   0.00000  Uiso   1.00
H827   H     0.35073   0.09828   0.53545   0.00000  Uiso   1.00
H828   H     0.60637   0.12978   0.85578   0.00000  Uiso   1.00
H829   H     0.56511   0.09520   0.88785   0.00000  Uiso   1.00
H830   H     0.52505   0.25624   0.83689   0.00000  Uiso   1.00
H831   H     0.61509   0.17966   0.91265   0.00000  Uiso   1.00
H832   H     0.62758   0.21120   0.98852   0.00000  Uiso   1.00
H833   H     0.47959   0.13804   0.59039   0.00000  Uiso   1.00
H834   H     0.60088   0.22644   0.63214   0.00000  Uiso   1.00
H835   H     0.53612   0.03094   0.85963   0.00000  Uiso   1.00
H836   H     0.45792   0.06359   0.67302   0.00000  Uiso   1.00
H837   H     0.51976   0.06581   0.65006   0.00000  Uiso   1.00
N838   N     0.38265   0.16666   0.74998   0.00000  Uiso   1.00
N839   N     0.61735   0.16669   0.74999   0.00000  Uiso   1.00
N840   N     0.48975   0.04604   0.66266   0.00000  Uiso   1.00
N841   N     0.36545   0.22106   0.81276   0.00000  Uiso   1.00
N842   N     0.63433   0.11226   0.68741   0.00000  Uiso   1.00
N843   N     0.38004   0.12811   0.90426   0.00000  Uiso   1.00
N844   N     0.41000   0.15769   0.56934   0.00000  Uiso   1.00
N845   N     0.34899   0.12437   0.51270   0.00000  Uiso   1.00
N846   N     0.56889   0.12452   0.87049   0.00000  Uiso   1.00
O847   O     0.46042   0.22678   0.75000   0.00000  Uiso   1.00
O848   O     0.48230   0.06967   0.85931   0.00000  Uiso   1.00
O849   O     0.50385   0.25875   0.64651   0.00000  Uiso   1.00
O850   O     0.48437   0.29654   0.88419   0.00000  Uiso   1.00
O851   O     0.53961   0.22679   0.75000   0.00000  Uiso   1.00
O852   O     0.44108   0.16665   0.82549   0.00000  Uiso   1.00
O853   O     0.52027   0.16666   0.82549   0.00000  Uiso   1.00
O854   O     0.46039   0.10654   0.74999   0.00000  Uiso   1.00
O855   O     0.53958   0.10655   0.74999   0.00000  Uiso   1.00
O856   O     0.47973   0.16667   0.67451   0.00000  Uiso   1.00
O857   O     0.55892   0.16668   0.67451   0.00000  Uiso   1.00
O858   O     0.65098   0.23639   0.56552   0.00000  Uiso   1.00
C859   C     0.83353   0.24578   0.74915   0.00000  Uiso   1.00
C860   C     0.79465   0.15124   0.90628   0.00000  Uiso   1.00
C861   C     0.83791   0.31030   0.79380   0.00000  Uiso   1.00
C862   C     0.80792   0.16188   0.84972   0.00000  Uiso   1.00
C863   C     0.83772   0.02025   0.79443   0.00000  Uiso   1.00
C864   C     0.83258   0.04281   0.75102   0.00000  Uiso   1.00
C865   C     0.82704   0.02279   0.70728   0.00000  Uiso   1.00
C866   C     0.82751   0.31309   0.70603   0.00000  Uiso   1.00
C867   C     0.83370   0.29041   0.74916   0.00000  Uiso   1.00
C868   C     0.96684   0.19311   0.78025   0.00000  Uiso   1.00
C869   C     0.68305   0.19307   0.78056   0.00000  Uiso   1.00
C870   C     0.81352   0.15544   0.98962   0.00000  Uiso   1.00
C871   C     0.69993   0.14057   0.71927   0.00000  Uiso   1.00
C872   C     0.98358   0.14033   0.71936   0.00000  Uiso   1.00
C873   C     0.83315   0.08751   0.75059   0.00000  Uiso   1.00
C874   C     0.85923   0.16891   0.65036   0.00000  Uiso   1.00
C875   C     0.92693   0.19750   0.51155   0.00000  Uiso   1.00
C876   C     0.87350   0.17433   0.59403   0.00000  Uiso   1.00
C877   C     0.74653   0.13938   0.93270   0.00000  Uiso   1.00
C878   C     0.73115   0.13761   0.98690   0.00000  Uiso   1.00
C879   C     0.76304   0.14950   0.51533   0.00000  Uiso   1.00
C880   C     0.94584   0.22101   0.59097   0.00000  Uiso   1.00
C881   C     0.82965   0.15301   0.93478   0.00000  Uiso   1.00
C882   C     0.84286   0.04157   0.84061   0.00000  Uiso   1.00
C883   C     0.82156   0.29313   0.65887   0.00000  Uiso   1.00
C884   C     0.83935   0.28541   0.84069   0.00000  Uiso   1.00
C885   C     0.84897   0.16512   0.51567   0.00000  Uiso   1.00
C886   C     0.89514   0.18027   0.98678   0.00000  Uiso   1.00
C887   C     0.91092   0.17380   0.93399   0.00000  Uiso   1.00
C888   C     0.88071   0.15311   0.91065   0.00000  Uiso   1.00
C889   C     0.84177   0.15809   0.56855   0.00000  Uiso   1.00
C890   C     0.91511   0.19705   0.56568   0.00000  Uiso   1.00
Cu891  Cu    0.78645   0.16666   0.75000   0.00000  Uiso   1.00
Cu892  Cu    0.88022   0.16667   0.75000   0.00000  Uiso   1.00
H893   H     0.94136   0.21412   0.80464   0.00000  Uiso   1.00
H894   H     0.80409   0.30963   0.63369   0.00000  Uiso   1.00
H895   H     0.69101   0.25098   0.80249   0.00000  Uiso   1.00
H896   H     0.67834   0.21540   0.85107   0.00000  Uiso   1.00
H897   H     0.97693   0.08243   0.69643   0.00000  Uiso   1.00
H898   H     0.98654   0.11889   0.64887   0.00000  Uiso   1.00
H899   H     0.70208   0.09770   0.91427   0.00000  Uiso   1.00
H900   H     0.68295   0.14714   0.91565   0.00000  Uiso   1.00
H901   H     0.72722   0.13077   0.58840   0.00000  Uiso   1.00
H902   H     0.71701   0.18075   0.57403   0.00000  Uiso   1.00
H903   H     0.99773   0.14755   0.53707   0.00000  Uiso   1.00
H904   H     0.72544   0.11970   0.69468   0.00000  Uiso   1.00
H905   H     0.68406   0.09828   0.53545   0.00000  Uiso   1.00
H906   H     0.93970   0.12978   0.85578   0.00000  Uiso   1.00
H907   H     0.89845   0.09520   0.88785   0.00000  Uiso   1.00
H908   H     0.85839   0.25624   0.83689   0.00000  Uiso   1.00
H909   H     0.94842   0.17966   0.91265   0.00000  Uiso   1.00
H910   H     0.96091   0.21120   0.98852   0.00000  Uiso   1.00
H911   H     0.81292   0.13804   0.59039   0.00000  Uiso   1.00
H912   H     0.93421   0.22644   0.63214   0.00000  Uiso   1.00
H913   H     0.86945   0.03094   0.85963   0.00000  Uiso   1.00
H914   H     0.79125   0.06359   0.67302   0.00000  Uiso   1.00
H915   H     0.85310   0.06581   0.65006   0.00000  Uiso   1.00
N916   N     0.71598   0.16666   0.74998   0.00000  Uiso   1.00
N917   N     0.95069   0.16669   0.74999   0.00000  Uiso   1.00
N918   N     0.82308   0.04604   0.66266   0.00000  Uiso   1.00
N919   N     0.69879   0.22106   0.81276   0.00000  Uiso   1.00
N920   N     0.96766   0.11226   0.68741   0.00000  Uiso   1.00
N921   N     0.71338   0.12811   0.90426   0.00000  Uiso   1.00
N922   N     0.74333   0.15769   0.56934   0.00000  Uiso   1.00
N923   N     0.68232   0.12437   0.51270   0.00000  Uiso   1.00
N924   N     0.90222   0.12452   0.87049   0.00000  Uiso   1.00
O925   O     0.79375   0.22678   0.75000   0.00000  Uiso   1.00
O926   O     0.81563   0.06967   0.85931   0.00000  Uiso   1.00
O927   O     0.83718   0.25875   0.64651   0.00000  Uiso   1.00
O928   O     0.81770   0.29654   0.88419   0.00000  Uiso   1.00
O929   O     0.87294   0.22679   0.75000   0.00000  Uiso   1.00
O930   O     0.77441   0.16665   0.82549   0.00000  Uiso   1.00
O931   O     0.85360   0.16666   0.82549   0.00000  Uiso   1.00
O932   O     0.79373   0.10654   0.74999   0.00000  Uiso   1.00
O933   O     0.87292   0.10655   0.74999   0.00000  Uiso   1.00
O934   O     0.81306   0.16667   0.67451   0.00000  Uiso   1.00
O935   O     0.89225   0.16668   0.67451   0.00000  Uiso   1.00
O936   O     0.98432   0.23639   0.56552   0.00000  Uiso   1.00
C937   C     0.16686   0.57911   0.74915   0.00000  Uiso   1.00
C938   C     0.12799   0.48457   0.90628   0.00000  Uiso   1.00
C939   C     0.17124   0.64363   0.79380   0.00000  Uiso   1.00
C940   C     0.14125   0.49521   0.84972   0.00000  Uiso   1.00
C941   C     0.17105   0.35359   0.79443   0.00000  Uiso   1.00
C942   C     0.16592   0.37614   0.75102   0.00000  Uiso   1.00
C943   C     0.16037   0.35613   0.70728   0.00000  Uiso   1.00
C944   C     0.16084   0.64643   0.70603   0.00000  Uiso   1.00
C945   C     0.16703   0.62374   0.74916   0.00000  Uiso   1.00
C946   C     0.30017   0.52644   0.78025   0.00000  Uiso   1.00
C947   C     0.01639   0.52641   0.78056   0.00000  Uiso   1.00
C948   C     0.14685   0.48877   0.98962   0.00000  Uiso   1.00
C949   C     0.03326   0.47391   0.71927   0.00000  Uiso   1.00
C950   C     0.31692   0.47366   0.71936   0.00000  Uiso   1.00
C951   C     0.16648   0.42084   0.75059   0.00000  Uiso   1.00
C952   C     0.19256   0.50224   0.65036   0.00000  Uiso   1.00
C953   C     0.26026   0.53083   0.51155   0.00000  Uiso   1.00
C954   C     0.20683   0.50767   0.59403   0.00000  Uiso   1.00
C955   C     0.07987   0.47271   0.93270   0.00000  Uiso   1.00
C956   C     0.06448   0.47094   0.98690   0.00000  Uiso   1.00
C957   C     0.09637   0.48283   0.51533   0.00000  Uiso   1.00
C958   C     0.27917   0.55434   0.59097   0.00000  Uiso   1.00
C959   C     0.16298   0.48635   0.93478   0.00000  Uiso   1.00
C960   C     0.17619   0.37491   0.84061   0.00000  Uiso   1.00
C961   C     0.15490   0.62646   0.65887   0.00000  Uiso   1.00
C962   C     0.17269   0.61874   0.84069   0.00000  Uiso   1.00
C963   C     0.18230   0.49845   0.51567   0.00000  Uiso   1.00
C964   C     0.22847   0.51360   0.98678   0.00000  Uiso   1.00
C965   C     0.24425   0.50714   0.93399   0.00000  Uiso   1.00
C966   C     0.21405   0.48644   0.91065   0.00000  Uiso   1.00
C967   C     0.17510   0.49142   0.56855   0.00000  Uiso   1.00
C968   C     0.24845   0.53038   0.56568   0.00000  Uiso   1.00
Cu969  Cu    0.11978   0.49999   0.75000   0.00000  Uiso   1.00
Cu970  Cu    0.21355   0.50001   0.75000   0.00000  Uiso   1.00
H971   H     0.27469   0.54745   0.80464   0.00000  Uiso   1.00
H972   H     0.13742   0.64297   0.63369   0.00000  Uiso   1.00
H973   H     0.02434   0.58431   0.80249   0.00000  Uiso   1.00
H974   H     0.01167   0.54874   0.85107   0.00000  Uiso   1.00
H975   H     0.31026   0.41577   0.69643   0.00000  Uiso   1.00
H976   H     0.31988   0.45223   0.64887   0.00000  Uiso   1.00
H977   H     0.03542   0.43104   0.91427   0.00000  Uiso   1.00
H978   H     0.01629   0.48047   0.91565   0.00000  Uiso   1.00
H979   H     0.06056   0.46411   0.58840   0.00000  Uiso   1.00
H980   H     0.05034   0.51408   0.57403   0.00000  Uiso   1.00
H981   H     0.33107   0.48088   0.53707   0.00000  Uiso   1.00
H982   H     0.05877   0.45303   0.69468   0.00000  Uiso   1.00
H983   H     0.01740   0.43161   0.53545   0.00000  Uiso   1.00
H984   H     0.27303   0.46311   0.85578   0.00000  Uiso   1.00
H985   H     0.23178   0.42853   0.88785   0.00000  Uiso   1.00
H986   H     0.19172   0.58958   0.83689   0.00000  Uiso   1.00
H987   H     0.28176   0.51299   0.91265   0.00000  Uiso   1.00
H988   H     0.29425   0.54453   0.98852   0.00000  Uiso   1.00
H989   H     0.14625   0.47138   0.59039   0.00000  Uiso   1.00
H990   H     0.26755   0.55977   0.63214   0.00000  Uiso   1.00
H991   H     0.20278   0.36427   0.85963   0.00000  Uiso   1.00
H992   H     0.12458   0.39692   0.67302   0.00000  Uiso   1.00
H993   H     0.18643   0.39914   0.65006   0.00000  Uiso   1.00
N994   N     0.04931   0.49999   0.74998   0.00000  Uiso   1.00
N995   N     0.28402   0.50002   0.74999   0.00000  Uiso   1.00
N996   N     0.15642   0.37937   0.66266   0.00000  Uiso   1.00
N997   N     0.03212   0.55439   0.81276   0.00000  Uiso   1.00
N998   N     0.30099   0.44560   0.68741   0.00000  Uiso   1.00
N999   N     0.04671   0.46145   0.90426   0.00000  Uiso   1.00
N1000  N     0.07667   0.49103   0.56934   0.00000  Uiso   1.00
N1001  N     0.01566   0.45770   0.51270   0.00000  Uiso   1.00
N1002  N     0.23556   0.45785   0.87049   0.00000  Uiso   1.00
O1003  O     0.12708   0.56011   0.75000   0.00000  Uiso   1.00
O1004  O     0.14897   0.40300   0.85931   0.00000  Uiso   1.00
O1005  O     0.17051   0.59209   0.64651   0.00000  Uiso   1.00
O1006  O     0.15103   0.62987   0.88419   0.00000  Uiso   1.00
O1007  O     0.20627   0.56012   0.75000   0.00000  Uiso   1.00
O1008  O     0.10775   0.49998   0.82549   0.00000  Uiso   1.00
O1009  O     0.18694   0.49999   0.82549   0.00000  Uiso   1.00
O1010  O     0.12706   0.43988   0.74999   0.00000  Uiso   1.00
O1011  O     0.20625   0.43989   0.74999   0.00000  Uiso   1.00
O1012  O     0.14640   0.50001   0.67451   0.00000  Uiso   1.00
O1013  O     0.22559   0.50002   0.67451   0.00000  Uiso   1.00
O1014  O     0.31765   0.56972   0.56552   0.00000  Uiso   1.00
C1015  C     0.50020   0.57911   0.74915   0.00000  Uiso   1.00
C1016  C     0.46132   0.48457   0.90628   0.00000  Uiso   1.00
C1017  C     0.50458   0.64363   0.79380   0.00000  Uiso   1.00
C1018  C     0.47458   0.49521   0.84972   0.00000  Uiso   1.00
C1019  C     0.50439   0.35359   0.79443   0.00000  Uiso   1.00
C1020  C     0.49925   0.37614   0.75102   0.00000  Uiso   1.00
C1021  C     0.49370   0.35613   0.70728   0.00000  Uiso   1.00
C1022  C     0.49418   0.64643   0.70603   0.00000  Uiso   1.00
C1023  C     0.50036   0.62374   0.74916   0.00000  Uiso   1.00
C1024  C     0.63351   0.52644   0.78025   0.00000  Uiso   1.00
C1025  C     0.34972   0.52641   0.78056   0.00000  Uiso   1.00
C1026  C     0.48018   0.48877   0.98962   0.00000  Uiso   1.00
C1027  C     0.36659   0.47391   0.71927   0.00000  Uiso   1.00
C1028  C     0.65025   0.47366   0.71936   0.00000  Uiso   1.00
C1029  C     0.49981   0.42084   0.75059   0.00000  Uiso   1.00
C1030  C     0.52590   0.50224   0.65036   0.00000  Uiso   1.00
C1031  C     0.59360   0.53083   0.51155   0.00000  Uiso   1.00
C1032  C     0.54017   0.50767   0.59403   0.00000  Uiso   1.00
C1033  C     0.41320   0.47271   0.93270   0.00000  Uiso   1.00
C1034  C     0.39781   0.47094   0.98690   0.00000  Uiso   1.00
C1035  C     0.42971   0.48283   0.51533   0.00000  Uiso   1.00
C1036  C     0.61250   0.55434   0.59097   0.00000  Uiso   1.00
C1037  C     0.49632   0.48635   0.93478   0.00000  Uiso   1.00
C1038  C     0.50953   0.37491   0.84061   0.00000  Uiso   1.00
C1039  C     0.48823   0.62646   0.65887   0.00000  Uiso   1.00
C1040  C     0.50602   0.61874   0.84069   0.00000  Uiso   1.00
C1041  C     0.51564   0.49845   0.51567   0.00000  Uiso   1.00
C1042  C     0.56180   0.51360   0.98678   0.00000  Uiso   1.00
C1043  C     0.57759   0.50714   0.93399   0.00000  Uiso   1.00
C1044  C     0.54738   0.48644   0.91065   0.00000  Uiso   1.00
C1045  C     0.50843   0.49142   0.56855   0.00000  Uiso   1.00
C1046  C     0.58178   0.53038   0.56568   0.00000  Uiso   1.00
Cu1047 Cu    0.45311   0.49999   0.75000   0.00000  Uiso   1.00
Cu1048 Cu    0.54689   0.50001   0.75000   0.00000  Uiso   1.00
H1049  H     0.60802   0.54745   0.80464   0.00000  Uiso   1.00
H1050  H     0.47075   0.64297   0.63369   0.00000  Uiso   1.00
H1051  H     0.35767   0.58431   0.80249   0.00000  Uiso   1.00
H1052  H     0.34500   0.54874   0.85107   0.00000  Uiso   1.00
H1053  H     0.64359   0.41577   0.69643   0.00000  Uiso   1.00
H1054  H     0.65321   0.45223   0.64887   0.00000  Uiso   1.00
H1055  H     0.36875   0.43104   0.91427   0.00000  Uiso   1.00
H1056  H     0.34962   0.48047   0.91565   0.00000  Uiso   1.00
H1057  H     0.39389   0.46411   0.58840   0.00000  Uiso   1.00
H1058  H     0.38368   0.51408   0.57403   0.00000  Uiso   1.00
H1059  H     0.66440   0.48088   0.53707   0.00000  Uiso   1.00
H1060  H     0.39210   0.45303   0.69468   0.00000  Uiso   1.00
H1061  H     0.35073   0.43161   0.53545   0.00000  Uiso   1.00
H1062  H     0.60637   0.46311   0.85578   0.00000  Uiso   1.00
H1063  H     0.56511   0.42853   0.88785   0.00000  Uiso   1.00
H1064  H     0.52505   0.58958   0.83689   0.00000  Uiso   1.00
H1065  H     0.61509   0.51299   0.91265   0.00000  Uiso   1.00
H1066  H     0.62758   0.54453   0.98852   0.00000  Uiso   1.00
H1067  H     0.47959   0.47138   0.59039   0.00000  Uiso   1.00
H1068  H     0.60088   0.55977   0.63214   0.00000  Uiso   1.00
H1069  H     0.53612   0.36427   0.85963   0.00000  Uiso   1.00
H1070  H     0.45792   0.39692   0.67302   0.00000  Uiso   1.00
H1071  H     0.51976   0.39914   0.65006   0.00000  Uiso   1.00
N1072  N     0.38265   0.49999   0.74998   0.00000  Uiso   1.00
N1073  N     0.61735   0.50002   0.74999   0.00000  Uiso   1.00
N1074  N     0.48975   0.37937   0.66266   0.00000  Uiso   1.00
N1075  N     0.36545   0.55439   0.81276   0.00000  Uiso   1.00
N1076  N     0.63433   0.44560   0.68741   0.00000  Uiso   1.00
N1077  N     0.38004   0.46145   0.90426   0.00000  Uiso   1.00
N1078  N     0.41000   0.49103   0.56934   0.00000  Uiso   1.00
N1079  N     0.34899   0.45770   0.51270   0.00000  Uiso   1.00
N1080  N     0.56889   0.45785   0.87049   0.00000  Uiso   1.00
O1081  O     0.46042   0.56011   0.75000   0.00000  Uiso   1.00
O1082  O     0.48230   0.40300   0.85931   0.00000  Uiso   1.00
O1083  O     0.50385   0.59209   0.64651   0.00000  Uiso   1.00
O1084  O     0.48437   0.62987   0.88419   0.00000  Uiso   1.00
O1085  O     0.53961   0.56012   0.75000   0.00000  Uiso   1.00
O1086  O     0.44108   0.49998   0.82549   0.00000  Uiso   1.00
O1087  O     0.52027   0.49999   0.82549   0.00000  Uiso   1.00
O1088  O     0.46039   0.43988   0.74999   0.00000  Uiso   1.00
O1089  O     0.53958   0.43989   0.74999   0.00000  Uiso   1.00
O1090  O     0.47973   0.50001   0.67451   0.00000  Uiso   1.00
O1091  O     0.55892   0.50002   0.67451   0.00000  Uiso   1.00
O1092  O     0.65098   0.56972   0.56552   0.00000  Uiso   1.00
C1093  C     0.83353   0.57911   0.74915   0.00000  Uiso   1.00
C1094  C     0.79465   0.48457   0.90628   0.00000  Uiso   1.00
C1095  C     0.83791   0.64363   0.79380   0.00000  Uiso   1.00
C1096  C     0.80792   0.49521   0.84972   0.00000  Uiso   1.00
C1097  C     0.83772   0.35359   0.79443   0.00000  Uiso   1.00
C1098  C     0.83258   0.37614   0.75102   0.00000  Uiso   1.00
C1099  C     0.82704   0.35613   0.70728   0.00000  Uiso   1.00
C1100  C     0.82751   0.64643   0.70603   0.00000  Uiso   1.00
C1101  C     0.83370   0.62374   0.74916   0.00000  Uiso   1.00
C1102  C     0.96684   0.52644   0.78025   0.00000  Uiso   1.00
C1103  C     0.68305   0.52641   0.78056   0.00000  Uiso   1.00
C1104  C     0.81352   0.48877   0.98962   0.00000  Uiso   1.00
C1105  C     0.69993   0.47391   0.71927   0.00000  Uiso   1.00
C1106  C     0.98358   0.47366   0.71936   0.00000  Uiso   1.00
C1107  C     0.83315   0.42084   0.75059   0.00000  Uiso   1.00
C1108  C     0.85923   0.50224   0.65036   0.00000  Uiso   1.00
C1109  C     0.92693   0.53083   0.51155   0.00000  Uiso   1.00
C1110  C     0.87350   0.50767   0.59403   0.00000  Uiso   1.00
C1111  C     0.74653   0.47271   0.93270   0.00000  Uiso   1.00
C1112  C     0.73115   0.47094   0.98690   0.00000  Uiso   1.00
C1113  C     0.76304   0.48283   0.51533   0.00000  Uiso   1.00
C1114  C     0.94584   0.55434   0.59097   0.00000  Uiso   1.00
C1115  C     0.82965   0.48635   0.93478   0.00000  Uiso   1.00
C1116  C     0.84286   0.37491   0.84061   0.00000  Uiso   1.00
C1117  C     0.82156   0.62646   0.65887   0.00000  Uiso   1.00
C1118  C     0.83935   0.61874   0.84069   0.00000  Uiso   1.00
C1119  C     0.84897   0.49845   0.51567   0.00000  Uiso   1.00
C1120  C     0.89514   0.51360   0.98678   0.00000  Uiso   1.00
C1121  C     0.91092   0.50714   0.93399   0.00000  Uiso   1.00
C1122  C     0.88071   0.48644   0.91065   0.00000  Uiso   1.00
C1123  C     0.84177   0.49142   0.56855   0.00000  Uiso   1.00
C1124  C     0.91511   0.53038   0.56568   0.00000  Uiso   1.00
Cu1125 Cu    0.78645   0.49999   0.75000   0.00000  Uiso   1.00
Cu1126 Cu    0.88022   0.50001   0.75000   0.00000  Uiso   1.00
H1127  H     0.94136   0.54745   0.80464   0.00000  Uiso   1.00
H1128  H     0.80409   0.64297   0.63369   0.00000  Uiso   1.00
H1129  H     0.69101   0.58431   0.80249   0.00000  Uiso   1.00
H1130  H     0.67834   0.54874   0.85107   0.00000  Uiso   1.00
H1131  H     0.97693   0.41577   0.69643   0.00000  Uiso   1.00
H1132  H     0.98654   0.45223   0.64887   0.00000  Uiso   1.00
H1133  H     0.70208   0.43104   0.91427   0.00000  Uiso   1.00
H1134  H     0.68295   0.48047   0.91565   0.00000  Uiso   1.00
H1135  H     0.72722   0.46411   0.58840   0.00000  Uiso   1.00
H1136  H     0.71701   0.51408   0.57403   0.00000  Uiso   1.00
H1137  H     0.99773   0.48088   0.53707   0.00000  Uiso   1.00
H1138  H     0.72544   0.45303   0.69468   0.00000  Uiso   1.00
H1139  H     0.68406   0.43161   0.53545   0.00000  Uiso   1.00
H1140  H     0.93970   0.46311   0.85578   0.00000  Uiso   1.00
H1141  H     0.89845   0.42853   0.88785   0.00000  Uiso   1.00
H1142  H     0.85839   0.58958   0.83689   0.00000  Uiso   1.00
H1143  H     0.94842   0.51299   0.91265   0.00000  Uiso   1.00
H1144  H     0.96091   0.54453   0.98852   0.00000  Uiso   1.00
H1145  H     0.81292   0.47138   0.59039   0.00000  Uiso   1.00
H1146  H     0.93421   0.55977   0.63214   0.00000  Uiso   1.00
H1147  H     0.86945   0.36427   0.85963   0.00000  Uiso   1.00
H1148  H     0.79125   0.39692   0.67302   0.00000  Uiso   1.00
H1149  H     0.85310   0.39914   0.65006   0.00000  Uiso   1.00
N1150  N     0.71598   0.49999   0.74998   0.00000  Uiso   1.00
N1151  N     0.95069   0.50002   0.74999   0.00000  Uiso   1.00
N1152  N     0.82308   0.37937   0.66266   0.00000  Uiso   1.00
N1153  N     0.69879   0.55439   0.81276   0.00000  Uiso   1.00
N1154  N     0.96766   0.44560   0.68741   0.00000  Uiso   1.00
N1155  N     0.71338   0.46145   0.90426   0.00000  Uiso   1.00
N1156  N     0.74333   0.49103   0.56934   0.00000  Uiso   1.00
N1157  N     0.68232   0.45770   0.51270   0.00000  Uiso   1.00
N1158  N     0.90222   0.45785   0.87049   0.00000  Uiso   1.00
O1159  O     0.79375   0.56011   0.75000   0.00000  Uiso   1.00
O1160  O     0.81563   0.40300   0.85931   0.00000  Uiso   1.00
O1161  O     0.83718   0.59209   0.64651   0.00000  Uiso   1.00
O1162  O     0.81770   0.62987   0.88419   0.00000  Uiso   1.00
O1163  O     0.87294   0.56012   0.75000   0.00000  Uiso   1.00
O1164  O     0.77441   0.49998   0.82549   0.00000  Uiso   1.00
O1165  O     0.85360   0.49999   0.82549   0.00000  Uiso   1.00
O1166  O     0.79373   0.43988   0.74999   0.00000  Uiso   1.00
O1167  O     0.87292   0.43989   0.74999   0.00000  Uiso   1.00
O1168  O     0.81306   0.50001   0.67451   0.00000  Uiso   1.00
O1169  O     0.89225   0.50002   0.67451   0.00000  Uiso   1.00
O1170  O     0.98432   0.56972   0.56552   0.00000  Uiso   1.00
C1171  C     0.16686   0.91244   0.74915   0.00000  Uiso   1.00
C1172  C     0.12799   0.81790   0.90628   0.00000  Uiso   1.00
C1173  C     0.17124   0.97697   0.79380   0.00000  Uiso   1.00
C1174  C     0.14125   0.82854   0.84972   0.00000  Uiso   1.00
C1175  C     0.17105   0.68692   0.79443   0.00000  Uiso   1.00
C1176  C     0.16592   0.70947   0.75102   0.00000  Uiso   1.00
C1177  C     0.16037   0.68946   0.70728   0.00000  Uiso   1.00
C1178  C     0.16084   0.97976   0.70603   0.00000  Uiso   1.00
C1179  C     0.16703   0.95707   0.74916   0.00000  Uiso   1.00
C1180  C     0.30017   0.85977   0.78025   0.00000  Uiso   1.00
C1181  C     0.01639   0.85974   0.78056   0.00000  Uiso   1.00
C1182  C     0.14685   0.82210   0.98962   0.00000  Uiso   1.00
C1183  C     0.03326   0.80724   0.71927   0.00000  Uiso   1.00
C1184  C     0.31692   0.80700   0.71936   0.00000  Uiso   1.00
C1185  C     0.16648   0.75418   0.75059   0.00000  Uiso   1.00
C1186  C     0.19256   0.83557   0.65036   0.00000  Uiso   1.00
C1187  C     0.26026   0.86416   0.51155   0.00000  Uiso   1.00
C1188  C     0.20683   0.84100   0.59403   0.00000  Uiso   1.00
C1189  C     0.07987   0.80605   0.93270   0.00000  Uiso   1.00
C1190  C     0.06448   0.80427   0.98690   0.00000  Uiso   1.00
C1191  C     0.09637   0.81617   0.51533   0.00000  Uiso   1.00
C1192  C     0.27917   0.88768   0.59097   0.00000  Uiso   1.00
C1193  C     0.16298   0.81968   0.93478   0.00000  Uiso   1.00
C1194  C     0.17619   0.70824   0.84061   0.00000  Uiso   1.00
C1195  C     0.15490   0.95980   0.65887   0.00000  Uiso   1.00
C1196  C     0.17269   0.95208   0.84069   0.00000  Uiso   1.00
C1197  C     0.18230   0.83179   0.51567   0.00000  Uiso   1.00
C1198  C     0.22847   0.84693   0.98678   0.00000  Uiso   1.00
C1199  C     0.24425   0.84047   0.93399   0.00000  Uiso   1.00
C1200  C     0.21405   0.81977   0.91065   0.00000  Uiso   1.00
C1201  C     0.17510   0.82476   0.56855   0.00000  Uiso   1.00
C1202  C     0.24845   0.86372   0.56568   0.00000  Uiso   1.00
Cu1203 Cu    0.11978   0.83333   0.75000   0.00000  Uiso   1.00
Cu1204 Cu    0.21355   0.83334   0.75000   0.00000  Uiso   1.00
H1205  H     0.27469   0.88079   0.80464   0.00000  Uiso   1.00
H1206  H     0.13742   0.97630   0.63369   0.00000  Uiso   1.00
H1207  H     0.02434   0.91765   0.80249   0.00000  Uiso   1.00
H1208  H     0.01167   0.88207   0.85107   0.00000  Uiso   1.00
H1209  H     0.31026   0.74910   0.69643   0.00000  Uiso   1.00
H1210  H     0.31988   0.78556   0.64887   0.00000  Uiso   1.00
H1211  H     0.03542   0.76437   0.91427   0.00000  Uiso   1.00
H1212  H     0.01629   0.81380   0.91565   0.00000  Uiso   1.00
H1213  H     0.06056   0.79744   0.58840   0.00000  Uiso   1.00
H1214  H     0.05034   0.84741   0.57403   0.00000  Uiso   1.00
H1215  H     0.33107   0.81422   0.53707   0.00000  Uiso   1.00
H1216  H     0.05877   0.78637   0.69468   0.00000  Uiso   1.00
H1217  H     0.01740   0.76494   0.53545   0.00000  Uiso   1.00
H1218  H     0.27303   0.79644   0.85578   0.00000  Uiso   1.00
H1219  H     0.23178   0.76186   0.88785   0.00000  Uiso   1.00
H1220  H     0.19172   0.92291   0.83689   0.00000  Uiso   1.00
H1221  H     0.28176   0.84633   0.91265   0.00000  Uiso   1.00
H1222  H     0.29425   0.87787   0.98852   0.00000  Uiso   1.00
H1223  H     0.14625   0.80471   0.59039   0.00000  Uiso   1.00
H1224  H     0.26755   0.89311   0.63214   0.00000  Uiso   1.00
H1225  H     0.20278   0.69760   0.85963   0.00000  Uiso   1.00
H1226  H     0.12458   0.73025   0.67302   0.00000  Uiso   1.00
H1227  H     0.18643   0.73248   0.65006   0.00000  Uiso   1.00
N1228  N     0.04931   0.83332   0.74998   0.00000  Uiso   1.00
N1229  N     0.28402   0.83335   0.74999   0.00000  Uiso   1.00
N1230  N     0.15642   0.71271   0.66266   0.00000  Uiso   1.00
N1231  N     0.03212   0.88772   0.81276   0.00000  Uiso   1.00
N1232  N     0.30099   0.77893   0.68741   0.00000  Uiso   1.00
N1233  N     0.04671   0.79478   0.90426   0.00000  Uiso   1.00
N1234  N     0.07667   0.82436   0.56934   0.00000  Uiso   1.00
N1235  N     0.01566   0.79103   0.51270   0.00000  Uiso   1.00
N1236  N     0.23556   0.79119   0.87049   0.00000  Uiso   1.00
O1237  O     0.12708   0.89345   0.75000   0.00000  Uiso   1.00
O1238  O     0.14897   0.73634   0.85931   0.00000  Uiso   1.00
O1239  O     0.17051   0.92542   0.64651   0.00000  Uiso   1.00
O1240  O     0.15103   0.96320   0.88419   0.00000  Uiso   1.00
O1241  O     0.20627   0.89346   0.75000   0.00000  Uiso   1.00
O1242  O     0.10775   0.83332   0.82549   0.00000  Uiso   1.00
O1243  O     0.18694   0.83333   0.82549   0.00000  Uiso   1.00
O1244  O     0.12706   0.77321   0.74999   0.00000  Uiso   1.00
O1245  O     0.20625   0.77322   0.74999   0.00000  Uiso   1.00
O1246  O     0.14640   0.83334   0.67451   0.00000  Uiso   1.00
O1247  O     0.22559   0.83335   0.67451   0.00000  Uiso   1.00
O1248  O     0.31765   0.90306   0.56552   0.00000  Uiso   1.00
C1249  C     0.50020   0.91244   0.74915   0.00000  Uiso   1.00
C1250  C     0.46132   0.81790   0.90628   0.00000  Uiso   1.00
C1251  C     0.50458   0.97697   0.79380   0.00000  Uiso   1.00
C1252  C     0.47458   0.82854   0.84972   0.00000  Uiso   1.00
C1253  C     0.50439   0.68692   0.79443   0.00000  Uiso   1.00
C1254  C     0.49925   0.70947   0.75102   0.00000  Uiso   1.00
C1255  C     0.49370   0.68946   0.70728   0.00000  Uiso   1.00
C1256  C     0.49418   0.97976   0.70603   0.00000  Uiso   1.00
C1257  C     0.50036   0.95707   0.74916   0.00000  Uiso   1.00
C1258  C     0.63351   0.85977   0.78025   0.00000  Uiso   1.00
C1259  C     0.34972   0.85974   0.78056   0.00000  Uiso   1.00
C1260  C     0.48018   0.82210   0.98962   0.00000  Uiso   1.00
C1261  C     0.36659   0.80724   0.71927   0.00000  Uiso   1.00
C1262  C     0.65025   0.80700   0.71936   0.00000  Uiso   1.00
C1263  C     0.49981   0.75418   0.75059   0.00000  Uiso   1.00
C1264  C     0.52590   0.83557   0.65036   0.00000  Uiso   1.00
C1265  C     0.59360   0.86416   0.51155   0.00000  Uiso   1.00
C1266  C     0.54017   0.84100   0.59403   0.00000  Uiso   1.00
C1267  C     0.41320   0.80605   0.93270   0.00000  Uiso   1.00
C1268  C     0.39781   0.80427   0.98690   0.00000  Uiso   1.00
C1269  C     0.42971   0.81617   0.51533   0.00000  Uiso   1.00
C1270  C     0.61250   0.88768   0.59097   0.00000  Uiso   1.00
C1271  C     0.49632   0.81968   0.93478   0.00000  Uiso   1.00
C1272  C     0.50953   0.70824   0.84061   0.00000  Uiso   1.00
C1273  C     0.48823   0.95980   0.65887   0.00000  Uiso   1.00
C1274  C     0.50602   0.95208   0.84069   0.00000  Uiso   1.00
C1275  C     0.51564   0.83179   0.51567   0.00000  Uiso   1.00
C1276  C     0.56180   0.84693   0.98678   0.00000  Uiso   1.00
C1277  C     0.57759   0.84047   0.93399   0.00000  Uiso   1.00
C1278  C     0.54738   0.81977   0.91065   0.00000  Uiso   1.00
C1279  C     0.50843   0.82476   0.56855   0.00000  Uiso   1.00
C1280  C     0.58178   0.86372   0.56568   0.00000  Uiso   1.00
Cu1281 Cu    0.45311   0.83333   0.75000   0.00000  Uiso   1.00
Cu1282 Cu    0.54689   0.83334   0.75000   0.00000  Uiso   1.00
H1283  H     0.60802   0.88079   0.80464   0.00000  Uiso   1.00
H1284  H     0.47075   0.97630   0.63369   0.00000  Uiso   1.00
H1285  H     0.35767   0.91765   0.80249   0.00000  Uiso   1.00
H1286  H     0.34500   0.88207   0.85107   0.00000  Uiso   1.00
H1287  H     0.64359   0.74910   0.69643   0.00000  Uiso   1.00
H1288  H     0.65321   0.78556   0.64887   0.00000  Uiso   1.00
H1289  H     0.36875   0.76437   0.91427   0.00000  Uiso   1.00
H1290  H     0.34962   0.81380   0.91565   0.00000  Uiso   1.00
H1291  H     0.39389   0.79744   0.58840   0.00000  Uiso   1.00
H1292  H     0.38368   0.84741   0.57403   0.00000  Uiso   1.00
H1293  H     0.66440   0.81422   0.53707   0.00000  Uiso   1.00
H1294  H     0.39210   0.78637   0.69468   0.00000  Uiso   1.00
H1295  H     0.35073   0.76494   0.53545   0.00000  Uiso   1.00
H1296  H     0.60637   0.79644   0.85578   0.00000  Uiso   1.00
H1297  H     0.56511   0.76186   0.88785   0.00000  Uiso   1.00
H1298  H     0.52505   0.92291   0.83689   0.00000  Uiso   1.00
H1299  H     0.61509   0.84633   0.91265   0.00000  Uiso   1.00
H1300  H     0.62758   0.87787   0.98852   0.00000  Uiso   1.00
H1301  H     0.47959   0.80471   0.59039   0.00000  Uiso   1.00
H1302  H     0.60088   0.89311   0.63214   0.00000  Uiso   1.00
H1303  H     0.53612   0.69760   0.85963   0.00000  Uiso   1.00
H1304  H     0.45792   0.73025   0.67302   0.00000  Uiso   1.00
H1305  H     0.51976   0.73248   0.65006   0.00000  Uiso   1.00
N1306  N     0.38265   0.83332   0.74998   0.00000  Uiso   1.00
N1307  N     0.61735   0.83335   0.74999   0.00000  Uiso   1.00
N1308  N     0.48975   0.71271   0.66266   0.00000  Uiso   1.00
N1309  N     0.36545   0.88772   0.81276   0.00000  Uiso   1.00
N1310  N     0.63433   0.77893   0.68741   0.00000  Uiso   1.00
N1311  N     0.38004   0.79478   0.90426   0.00000  Uiso   1.00
N1312  N     0.41000   0.82436   0.56934   0.00000  Uiso   1.00
N1313  N     0.34899   0.79103   0.51270   0.00000  Uiso   1.00
N1314  N     0.56889   0.79119   0.87049   0.00000  Uiso   1.00
O1315  O     0.46042   0.89345   0.75000   0.00000  Uiso   1.00
O1316  O     0.48230   0.73634   0.85931   0.00000  Uiso   1.00
O1317  O     0.50385   0.92542   0.64651   0.00000  Uiso   1.00
O1318  O     0.48437   0.96320   0.88419   0.00000  Uiso   1.00
O1319  O     0.53961   0.89346   0.75000   0.00000  Uiso   1.00
O1320  O     0.44108   0.83332   0.82549   0.00000  Uiso   1.00
O1321  O     0.52027   0.83333   0.82549   0.00000  Uiso   1.00
O1322  O     0.46039   0.77321   0.74999   0.00000  Uiso   1.00
O1323  O     0.53958   0.77322   0.74999   0.00000  Uiso   1.00
O1324  O     0.47973   0.83334   0.67451   0.00000  Uiso   1.00
O1325  O     0.55892   0.83335   0.67451   0.00000  Uiso   1.00
O1326  O     0.65098   0.90306   0.56552   0.00000  Uiso   1.00
C1327  C     0.83353   0.91244   0.74915   0.00000  Uiso   1.00
C1328  C     0.79465   0.81790   0.90628   0.00000  Uiso   1.00
C1329  C     0.83791   0.97697   0.79380   0.00000  Uiso   1.00
C1330  C     0.80792   0.82854   0.84972   0.00000  Uiso   1.00
C1331  C     0.83772   0.68692   0.79443   0.00000  Uiso   1.00
C1332  C     0.83258   0.70947   0.75102   0.00000  Uiso   1.00
C1333  C     0.82704   0.68946   0.70728   0.00000  Uiso   1.00
C1334  C     0.82751   0.97976   0.70603   0.00000  Uiso   1.00
C1335  C     0.83370   0.95707   0.74916   0.00000  Uiso   1.00
C1336  C     0.96684   0.85977   0.78025   0.00000  Uiso   1.00
C1337  C     0.68305   0.85974   0.78056   0.00000  Uiso   1.00
C1338  C     0.81352   0.82210   0.98962   0.00000  Uiso   1.00
C1339  C     0.69993   0.80724   0.71927   0.00000  Uiso   1.00
C1340  C     0.98358   0.80700   0.71936   0.00000  Uiso   1.00
C1341  C     0.83315   0.75418   0.75059   0.00000  Uiso   1.00
C1342  C     0.85923   0.83557   0.65036   0.00000  Uiso   1.00
C1343  C     0.92693   0.86416   0.51155   0.00000  Uiso   1.00
C1344  C     0.87350   0.84100   0.59403   0.00000  Uiso   1.00
C1345  C     0.74653   0.80605   0.93270   0.00000  Uiso   1.00
C1346  C     0.73115   0.80427   0.98690   0.00000  Uiso   1.00
C1347  C     0.76304   0.81617   0.51533   0.00000  Uiso   1.00
C1348  C     0.94584   0.88768   0.59097   0.00000  Uiso   1.00
C1349  C     0.82965   0.81968   0.93478   0.00000  Uiso   1.00
C1350  C     0.84286   0.70824   0.84061   0.00000  Uiso   1.00
C1351  C     0.82156   0.95980   0.65887   0.00000  Uiso   1.00
C1352  C     0.83935   0.95208   0.84069   0.00000  Uiso   1.00
C1353  C     0.84897   0.83179   0.51567   0.00000  Uiso   1.00
C1354  C     0.89514   0.84693   0.98678   0.00000  Uiso   1.00
C1355  C     0.91092   0.84047   0.93399   0.00000  Uiso   1.00
C1356  C     0.88071   0.81977   0.91065   0.00000  Uiso   1.00
C1357  C     0.84177   0.82476   0.56855   0.00000  Uiso   1.00
C1358  C     0.91511   0.86372   0.56568   0.00000  Uiso   1.00
Cu1359 Cu    0.78645   0.83333   0.75000   0.00000  Uiso   1.00
Cu1360 Cu    0.88022   0.83334   0.75000   0.00000  Uiso   1.00
H1361  H     0.94136   0.88079   0.80464   0.00000  Uiso   1.00
H1362  H     0.80409   0.97630   0.63369   0.00000  Uiso   1.00
H1363  H     0.69101   0.91765   0.80249   0.00000  Uiso   1.00
H1364  H     0.67834   0.88207   0.85107   0.00000  Uiso   1.00
H1365  H     0.97693   0.74910   0.69643   0.00000  Uiso   1.00
H1366  H     0.98654   0.78556   0.64887   0.00000  Uiso   1.00
H1367  H     0.70208   0.76437   0.91427   0.00000  Uiso   1.00
H1368  H     0.68295   0.81380   0.91565   0.00000  Uiso   1.00
H1369  H     0.72722   0.79744   0.58840   0.00000  Uiso   1.00
H1370  H     0.71701   0.84741   0.57403   0.00000  Uiso   1.00
H1371  H     0.99773   0.81422   0.53707   0.00000  Uiso   1.00
H1372  H     0.72544   0.78637   0.69468   0.00000  Uiso   1.00
H1373  H     0.68406   0.76494   0.53545   0.00000  Uiso   1.00
H1374  H     0.93970   0.79644   0.85578   0.00000  Uiso   1.00
H1375  H     0.89845   0.76186   0.88785   0.00000  Uiso   1.00
H1376  H     0.85839   0.92291   0.83689   0.00000  Uiso   1.00
H1377  H     0.94842   0.84633   0.91265   0.00000  Uiso   1.00
H1378  H     0.96091   0.87787   0.98852   0.00000  Uiso   1.00
H1379  H     0.81292   0.80471   0.59039   0.00000  Uiso   1.00
H1380  H     0.93421   0.89311   0.63214   0.00000  Uiso   1.00
H1381  H     0.86945   0.69760   0.85963   0.00000  Uiso   1.00
H1382  H     0.79125   0.73025   0.67302   0.00000  Uiso   1.00
H1383  H     0.85310   0.73248   0.65006   0.00000  Uiso   1.00
N1384  N     0.71598   0.83332   0.74998   0.00000  Uiso   1.00
N1385  N     0.95069   0.83335   0.74999   0.00000  Uiso   1.00
N1386  N     0.82308   0.71271   0.66266   0.00000  Uiso   1.00
N1387  N     0.69879   0.88772   0.81276   0.00000  Uiso   1.00
N1388  N     0.96766   0.77893   0.68741   0.00000  Uiso   1.00
N1389  N     0.71338   0.79478   0.90426   0.00000  Uiso   1.00
N1390  N     0.74333   0.82436   0.56934   0.00000  Uiso   1.00
N1391  N     0.68232   0.79103   0.51270   0.00000  Uiso   1.00
N1392  N     0.90222   0.79119   0.87049   0.00000  Uiso   1.00
O1393  O     0.79375   0.89345   0.75000   0.00000  Uiso   1.00
O1394  O     0.81563   0.73634   0.85931   0.00000  Uiso   1.00
O1395  O     0.83718   0.92542   0.64651   0.00000  Uiso   1.00
O1396  O     0.81770   0.96320   0.88419   0.00000  Uiso   1.00
O1397  O     0.87294   0.89346   0.75000   0.00000  Uiso   1.00
O1398  O     0.77441   0.83332   0.82549   0.00000  Uiso   1.00
O1399  O     0.85360   0.83333   0.82549   0.00000  Uiso   1.00
O1400  O     0.79373   0.77321   0.74999   0.00000  Uiso   1.00
O1401  O     0.87292   0.77322   0.74999   0.00000  Uiso   1.00
O1402  O     0.81306   0.83334   0.67451   0.00000  Uiso   1.00
O1403  O     0.89225   0.83335   0.67451   0.00000  Uiso   1.00
O1404  O     0.98432   0.90306   0.56552   0.00000  Uiso   1.00
loop_
_geom_bond_atom_site_label_1
_geom_bond_atom_site_label_2
_geom_bond_distance
_geom_bond_site_symmetry_2
_ccdc_geom_bond_type
C1     O71     1.290   .     A
C1     C9      1.449   .     S
C1     O67     1.292   .     A
C2     C4      1.496   .     S
C2     C19     1.409   .     A
C2     C23     1.429   .     A
C3     C9      1.413   .     A
C3     C26     1.497   .     S
C3     C239    1.406   .     S
C4     O73     1.293   .     A
C4     O72     1.314   .     A
C5     C6      1.411   .     A
C5     C24     1.481   .     S
C5     C471    1.406   1_545 S
C6     C15     1.451   .     S
C6     C7      1.407   .     A
C7     N60     1.439   .     S
C7     C476    1.398   1_545 S
C8     C9      1.417   .     A
C8     C25     1.492   .     S
C8     C241    1.398   .     S
C10    H35     1.082   .     S
C10    N59     1.365   .     A
C10    C89     1.422   .     S
C11    N58     1.372   .     A
C11    N61     1.429   .     S
C11    C166    1.422   1_455 S
C12    C23     1.421   .     A
C12    C723    1.425   .     S
C12    C729    1.430   .     S
C13    N58     1.365   .     A
C13    H46     1.082   .     S
C13    C170    1.422   1_455 S
C14    N59     1.371   .     A
C14    N62     1.429   .     S
C14    C91     1.422   .     S
C15    O75     1.294   .     A
C15    O74     1.289   .     A
C16    O77     1.294   .     A
C16    O76     1.297   .     A
C16    C18     1.463   .     S
C17    C32     1.401   .     A
C17    C730    1.399   1_554 S
C17    H754    1.085   1_554 S
C18    C32     1.418   .     A
C18    C31     1.397   .     A
C19    C20     1.401   .     A
C19    N63     1.434   .     S
C20    C723    1.410   .     S
C20    N767    1.435   .     S
C21    N64     1.434   .     S
C21    C722    1.410   1_554 S
C21    C714    1.425   1_554 S
C22    H54     1.082   .     S
C22    C32     1.488   .     S
C22    O78     1.221   .     D
C23    C30     1.420   .     A
C24    H55     1.085   .     S
C24    O68     1.218   .     D
C25    H36     1.085   .     S
C25    O69     1.218   .     D
C26    H50     1.083   .     S
C26    O70     1.221   .     D
C27    C31     1.396   .     A
C27    C714    1.430   1_554 S
C27    C730    1.413   1_554 S
C28    C29     1.385   .     A
C28    C719    1.399   .     S
C28    C729    1.413   .     S
C29    C30     1.389   .     A
C29    H51     1.079   .     S
C30    N66     1.438   .     S
C31    H53     1.078   .     S
Cu33   N58     2.018   .     S
Cu33   O72     1.965   .     S
Cu33   O76     1.959   .     S
Cu33   Cu34    2.686   .     S
Cu33   O67     1.964   .     S
Cu33   O74     1.962   .     S
Cu34   O77     1.965   .     S
Cu34   O75     1.964   .     S
Cu34   N59     2.018   .     S
Cu34   O73     1.959   .     S
Cu34   O71     1.962   .     S
H37    N61     1.046   .     S
H38    N61     1.044   .     S
H39    N62     1.046   .     S
H40    N62     1.044   .     S
H41    N63     1.046   .     S
H42    N63     1.042   .     S
H43    N64     1.044   .     S
H44    N64     1.044   .     S
H45    N143    1.042   .     S
H47    N65     1.045   .     S
H48    N66     1.046   .     S
H49    N66     1.044   .     S
H52    C719    1.085   .     S
H56    N60     1.045   .     S
H57    N60     1.046   .     S
N65    C722    1.435   1_554 S
N65    H201    1.042   1_455 S
C79    O149    1.290   .     A
C79    C87     1.449   .     S
C79    O145    1.292   .     A
C80    C82     1.496   .     S
C80    C97     1.409   .     A
C80    C101    1.429   .     A
C81    C87     1.413   .     A
C81    C104    1.497   .     S
C81    C317    1.406   .     S
C82    O151    1.293   .     A
C82    O150    1.314   .     A
C83    C84     1.411   .     A
C83    C102    1.481   .     S
C83    C549    1.406   1_545 S
C84    C93     1.451   .     S
C84    C85     1.407   .     A
C85    N138    1.439   .     S
C85    C554    1.398   1_545 S
C86    C87     1.417   .     A
C86    C103    1.492   .     S
C86    C319    1.398   .     S
C88    H113    1.082   .     S
C88    N137    1.365   .     A
C88    C167    1.422   .     S
C89    N136    1.372   .     A
C89    N139    1.429   .     S
C90    C101    1.421   .     A
C90    C801    1.425   .     S
C90    C807    1.430   .     S
C91    N136    1.365   .     A
C91    H124    1.082   .     S
C92    N137    1.371   .     A
C92    N140    1.429   .     S
C92    C169    1.422   .     S
C93    O153    1.294   .     A
C93    O152    1.289   .     A
C94    O155    1.294   .     A
C94    O154    1.297   .     A
C94    C96     1.463   .     S
C95    C110    1.401   .     A
C95    C808    1.399   1_554 S
C95    H832    1.085   1_554 S
C96    C110    1.418   .     A
C96    C109    1.397   .     A
C97    C98     1.401   .     A
C97    N141    1.434   .     S
C98    C801    1.410   .     S
C98    N845    1.435   .     S
C99    N142    1.434   .     S
C99    C800    1.410   1_554 S
C99    C792    1.425   1_554 S
C100   H132    1.082   .     S
C100   C110    1.488   .     S
C100   O156    1.221   .     D
C101   C108    1.420   .     A
C102   H133    1.085   .     S
C102   O146    1.218   .     D
C103   H114    1.085   .     S
C103   O147    1.218   .     D
C104   H128    1.083   .     S
C104   O148    1.221   .     D
C105   C109    1.396   .     A
C105   C792    1.430   1_554 S
C105   C808    1.413   1_554 S
C106   C107    1.385   .     A
C106   C797    1.399   .     S
C106   C807    1.413   .     S
C107   C108    1.389   .     A
C107   H129    1.079   .     S
C108   N144    1.438   .     S
C109   H131    1.078   .     S
Cu111  N136    2.018   .     S
Cu111  O150    1.965   .     S
Cu111  O154    1.959   .     S
Cu111  Cu112   2.686   .     S
Cu111  O145    1.964   .     S
Cu111  O152    1.962   .     S
Cu112  O155    1.965   .     S
Cu112  O153    1.964   .     S
Cu112  N137    2.018   .     S
Cu112  O151    1.959   .     S
Cu112  O149    1.962   .     S
H115   N139    1.046   .     S
H116   N139    1.044   .     S
H117   N140    1.046   .     S
H118   N140    1.044   .     S
H119   N141    1.046   .     S
H120   N141    1.042   .     S
H121   N142    1.044   .     S
H122   N142    1.044   .     S
H123   N221    1.042   .     S
H125   N143    1.045   .     S
H126   N144    1.046   .     S
H127   N144    1.044   .     S
H130   C797    1.085   .     S
H134   N138    1.045   .     S
H135   N138    1.046   .     S
N143   C800    1.435   1_554 S
C157   O227    1.290   .     A
C157   C165    1.449   .     S
C157   O223    1.292   .     A
C158   C160    1.496   .     S
C158   C175    1.409   .     A
C158   C179    1.429   .     A
C159   C165    1.413   .     A
C159   C182    1.497   .     S
C159   C395    1.406   .     S
C160   O229    1.293   .     A
C160   O228    1.314   .     A
C161   C162    1.411   .     A
C161   C180    1.481   .     S
C161   C627    1.406   1_545 S
C162   C171    1.451   .     S
C162   C163    1.407   .     A
C163   N216    1.439   .     S
C163   C632    1.398   1_545 S
C164   C165    1.417   .     A
C164   C181    1.492   .     S
C164   C397    1.398   .     S
C166   H191    1.082   .     S
C166   N215    1.365   .     A
C166   C11     1.422   1_655 S
C167   N214    1.372   .     A
C167   N217    1.429   .     S
C168   C179    1.421   .     A
C168   C879    1.425   .     S
C168   C885    1.430   .     S
C169   N214    1.365   .     A
C169   H202    1.082   .     S
C170   N215    1.371   .     A
C170   N218    1.429   .     S
C170   C13     1.422   1_655 S
C171   O231    1.294   .     A
C171   O230    1.289   .     A
C172   O233    1.294   .     A
C172   O232    1.297   .     A
C172   C174    1.463   .     S
C173   C188    1.401   .     A
C173   C886    1.399   1_554 S
C173   H910    1.085   1_554 S
C174   C188    1.418   .     A
C174   C187    1.397   .     A
C175   C176    1.401   .     A
C175   N219    1.434   .     S
C176   C879    1.410   .     S
C176   N923    1.435   .     S
C177   N220    1.434   .     S
C177   C878    1.410   1_554 S
C177   C870    1.425   1_554 S
C178   H210    1.082   .     S
C178   C188    1.488   .     S
C178   O234    1.221   .     D
C179   C186    1.420   .     A
C180   H211    1.085   .     S
C180   O224    1.218   .     D
C181   H192    1.085   .     S
C181   O225    1.218   .     D
C182   H206    1.083   .     S
C182   O226    1.221   .     D
C183   C187    1.396   .     A
C183   C870    1.430   1_554 S
C183   C886    1.413   1_554 S
C184   C185    1.385   .     A
C184   C875    1.399   .     S
C184   C885    1.413   .     S
C185   C186    1.389   .     A
C185   H207    1.079   .     S
C186   N222    1.438   .     S
C187   H209    1.078   .     S
Cu189  N214    2.018   .     S
Cu189  O228    1.965   .     S
Cu189  O232    1.959   .     S
Cu189  Cu190   2.686   .     S
Cu189  O223    1.964   .     S
Cu189  O230    1.962   .     S
Cu190  O233    1.965   .     S
Cu190  O231    1.964   .     S
Cu190  N215    2.018   .     S
Cu190  O229    1.959   .     S
Cu190  O227    1.962   .     S
H193   N217    1.046   .     S
H194   N217    1.044   .     S
H195   N218    1.046   .     S
H196   N218    1.044   .     S
H197   N219    1.046   .     S
H198   N219    1.042   .     S
H199   N220    1.044   .     S
H200   N220    1.044   .     S
H201   N65     1.042   1_655 S
H203   N221    1.045   .     S
H204   N222    1.046   .     S
H205   N222    1.044   .     S
H208   C875    1.085   .     S
H212   N216    1.045   .     S
H213   N216    1.046   .     S
N221   C878    1.435   1_554 S
C235   O305    1.290   .     A
C235   C243    1.449   .     S
C235   O301    1.292   .     A
C236   C238    1.496   .     S
C236   C253    1.409   .     A
C236   C257    1.429   .     A
C237   C243    1.413   .     A
C237   C260    1.497   .     S
C237   C473    1.406   .     S
C238   O307    1.293   .     A
C238   O306    1.314   .     A
C239   C240    1.411   .     A
C239   C258    1.481   .     S
C240   C249    1.451   .     S
C240   C241    1.407   .     A
C241   N294    1.439   .     S
C242   C243    1.417   .     A
C242   C259    1.492   .     S
C242   C475    1.398   .     S
C244   H269    1.082   .     S
C244   N293    1.365   .     A
C244   C323    1.422   .     S
C245   N292    1.372   .     A
C245   N295    1.429   .     S
C245   C400    1.422   1_455 S
C246   C257    1.421   .     A
C246   C957    1.425   .     S
C246   C963    1.430   .     S
C247   N292    1.365   .     A
C247   H280    1.082   .     S
C247   C404    1.422   1_455 S
C248   N293    1.371   .     A
C248   N296    1.429   .     S
C248   C325    1.422   .     S
C249   O309    1.294   .     A
C249   O308    1.289   .     A
C250   O311    1.294   .     A
C250   O310    1.297   .     A
C250   C252    1.463   .     S
C251   C266    1.401   .     A
C251   C964    1.399   1_554 S
C251   H988    1.085   1_554 S
C252   C266    1.418   .     A
C252   C265    1.397   .     A
C253   C254    1.401   .     A
C253   N297    1.434   .     S
C254   C957    1.410   .     S
C254   N1001   1.435   .     S
C255   N298    1.434   .     S
C255   C956    1.410   1_554 S
C255   C948    1.425   1_554 S
C256   H288    1.082   .     S
C256   C266    1.488   .     S
C256   O312    1.221   .     D
C257   C264    1.420   .     A
C258   H289    1.085   .     S
C258   O302    1.218   .     D
C259   H270    1.085   .     S
C259   O303    1.218   .     D
C260   H284    1.083   .     S
C260   O304    1.221   .     D
C261   C265    1.396   .     A
C261   C948    1.430   1_554 S
C261   C964    1.413   1_554 S
C262   C263    1.385   .     A
C262   C953    1.399   .     S
C262   C963    1.413   .     S
C263   C264    1.389   .     A
C263   H285    1.079   .     S
C264   N300    1.438   .     S
C265   H287    1.078   .     S
Cu267  N292    2.018   .     S
Cu267  O306    1.965   .     S
Cu267  O310    1.959   .     S
Cu267  Cu268   2.686   .     S
Cu267  O301    1.964   .     S
Cu267  O308    1.962   .     S
Cu268  O311    1.965   .     S
Cu268  O309    1.964   .     S
Cu268  N293    2.018   .     S
Cu268  O307    1.959   .     S
Cu268  O305    1.962   .     S
H271   N295    1.046   .     S
H272   N295    1.044   .     S
H273   N296    1.046   .     S
H274   N296    1.044   .     S
H275   N297    1.046   .     S
H276   N297    1.042   .     S
H277   N298    1.044   .     S
H278   N298    1.044   .     S
H279   N377    1.042   .     S
H281   N299    1.045   .     S
H282   N300    1.046   .     S
H283   N300    1.044   .     S
H286   C953    1.085   .     S
H290   N294    1.045   .     S
H291   N294    1.046   .     S
N299   C956    1.435   1_554 S
N299   H435    1.042   1_455 S
C313   O383    1.290   .     A
C313   C321    1.449   .     S
C313   O379    1.292   .     A
C314   C316    1.496   .     S
C314   C331    1.409   .     A
C314   C335    1.429   .     A
C315   C321    1.413   .     A
C315   C338    1.497   .     S
C315   C551    1.406   .     S
C316   O385    1.293   .     A
C316   O384    1.314   .     A
C317   C318    1.411   .     A
C317   C336    1.481   .     S
C318   C327    1.451   .     S
C318   C319    1.407   .     A
C319   N372    1.439   .     S
C320   C321    1.417   .     A
C320   C337    1.492   .     S
C320   C553    1.398   .     S
C322   H347    1.082   .     S
C322   N371    1.365   .     A
C322   C401    1.422   .     S
C323   N370    1.372   .     A
C323   N373    1.429   .     S
C324   C335    1.421   .     A
C324   C1035   1.425   .     S
C324   C1041   1.430   .     S
C325   N370    1.365   .     A
C325   H358    1.082   .     S
C326   N371    1.371   .     A
C326   N374    1.429   .     S
C326   C403    1.422   .     S
C327   O387    1.294   .     A
C327   O386    1.289   .     A
C328   O389    1.294   .     A
C328   O388    1.297   .     A
C328   C330    1.463   .     S
C329   C344    1.401   .     A
C329   C1042   1.399   1_554 S
C329   H1066   1.085   1_554 S
C330   C344    1.418   .     A
C330   C343    1.397   .     A
C331   C332    1.401   .     A
C331   N375    1.434   .     S
C332   C1035   1.410   .     S
C332   N1079   1.435   .     S
C333   N376    1.434   .     S
C333   C1034   1.410   1_554 S
C333   C1026   1.425   1_554 S
C334   H366    1.082   .     S
C334   C344    1.488   .     S
C334   O390    1.221   .     D
C335   C342    1.420   .     A
C336   H367    1.085   .     S
C336   O380    1.218   .     D
C337   H348    1.085   .     S
C337   O381    1.218   .     D
C338   H362    1.083   .     S
C338   O382    1.221   .     D
C339   C343    1.396   .     A
C339   C1026   1.430   1_554 S
C339   C1042   1.413   1_554 S
C340   C341    1.385   .     A
C340   C1031   1.399   .     S
C340   C1041   1.413   .     S
C341   C342    1.389   .     A
C341   H363    1.079   .     S
C342   N378    1.438   .     S
C343   H365    1.078   .     S
Cu345  N370    2.018   .     S
Cu345  O384    1.965   .     S
Cu345  O388    1.959   .     S
Cu345  Cu346   2.686   .     S
Cu345  O379    1.964   .     S
Cu345  O386    1.962   .     S
Cu346  O389    1.965   .     S
Cu346  O387    1.964   .     S
Cu346  N371    2.018   .     S
Cu346  O385    1.959   .     S
Cu346  O383    1.962   .     S
H349   N373    1.046   .     S
H350   N373    1.044   .     S
H351   N374    1.046   .     S
H352   N374    1.044   .     S
H353   N375    1.046   .     S
H354   N375    1.042   .     S
H355   N376    1.044   .     S
H356   N376    1.044   .     S
H357   N455    1.042   .     S
H359   N377    1.045   .     S
H360   N378    1.046   .     S
H361   N378    1.044   .     S
H364   C1031   1.085   .     S
H368   N372    1.045   .     S
H369   N372    1.046   .     S
N377   C1034   1.435   1_554 S
C391   O461    1.290   .     A
C391   C399    1.449   .     S
C391   O457    1.292   .     A
C392   C394    1.496   .     S
C392   C409    1.409   .     A
C392   C413    1.429   .     A
C393   C399    1.413   .     A
C393   C416    1.497   .     S
C393   C629    1.406   .     S
C394   O463    1.293   .     A
C394   O462    1.314   .     A
C395   C396    1.411   .     A
C395   C414    1.481   .     S
C396   C405    1.451   .     S
C396   C397    1.407   .     A
C397   N450    1.439   .     S
C398   C399    1.417   .     A
C398   C415    1.492   .     S
C398   C631    1.398   .     S
C400   H425    1.082   .     S
C400   N449    1.365   .     A
C400   C245    1.422   1_655 S
C401   N448    1.372   .     A
C401   N451    1.429   .     S
C402   C413    1.421   .     A
C402   C1113   1.425   .     S
C402   C1119   1.430   .     S
C403   N448    1.365   .     A
C403   H436    1.082   .     S
C404   N449    1.371   .     A
C404   N452    1.429   .     S
C404   C247    1.422   1_655 S
C405   O465    1.294   .     A
C405   O464    1.289   .     A
C406   O467    1.294   .     A
C406   O466    1.297   .     A
C406   C408    1.463   .     S
C407   C422    1.401   .     A
C407   C1120   1.399   1_554 S
C407   H1144   1.085   1_554 S
C408   C422    1.418   .     A
C408   C421    1.397   .     A
C409   C410    1.401   .     A
C409   N453    1.434   .     S
C410   C1113   1.410   .     S
C410   N1157   1.435   .     S
C411   N454    1.434   .     S
C411   C1112   1.410   1_554 S
C411   C1104   1.425   1_554 S
C412   H444    1.082   .     S
C412   C422    1.488   .     S
C412   O468    1.221   .     D
C413   C420    1.420   .     A
C414   H445    1.085   .     S
C414   O458    1.218   .     D
C415   H426    1.085   .     S
C415   O459    1.218   .     D
C416   H440    1.083   .     S
C416   O460    1.221   .     D
C417   C421    1.396   .     A
C417   C1104   1.430   1_554 S
C417   C1120   1.413   1_554 S
C418   C419    1.385   .     A
C418   C1109   1.399   .     S
C418   C1119   1.413   .     S
C419   C420    1.389   .     A
C419   H441    1.079   .     S
C420   N456    1.438   .     S
C421   H443    1.078   .     S
Cu423  N448    2.018   .     S
Cu423  O462    1.965   .     S
Cu423  O466    1.959   .     S
Cu423  Cu424   2.686   .     S
Cu423  O457    1.964   .     S
Cu423  O464    1.962   .     S
Cu424  O467    1.965   .     S
Cu424  O465    1.964   .     S
Cu424  N449    2.018   .     S
Cu424  O463    1.959   .     S
Cu424  O461    1.962   .     S
H427   N451    1.046   .     S
H428   N451    1.044   .     S
H429   N452    1.046   .     S
H430   N452    1.044   .     S
H431   N453    1.046   .     S
H432   N453    1.042   .     S
H433   N454    1.044   .     S
H434   N454    1.044   .     S
H435   N299    1.042   1_655 S
H437   N455    1.045   .     S
H438   N456    1.046   .     S
H439   N456    1.044   .     S
H442   C1109   1.085   .     S
H446   N450    1.045   .     S
H447   N450    1.046   .     S
N455   C1112   1.435   1_554 S
C469   O539    1.290   .     A
C469   C477    1.449   .     S
C469   O535    1.292   .     A
C470   C472    1.496   .     S
C470   C487    1.409   .     A
C470   C491    1.429   .     A
C471   C477    1.413   .     A
C471   C494    1.497   .     S
C471   C5      1.406   1_565 S
C472   O541    1.293   .     A
C472   O540    1.314   .     A
C473   C474    1.411   .     A
C473   C492    1.481   .     S
C474   C483    1.451   .     S
C474   C475    1.407   .     A
C475   N528    1.439   .     S
C476   C477    1.417   .     A
C476   C493    1.492   .     S
C476   C7      1.398   1_565 S
C478   H503    1.082   .     S
C478   N527    1.365   .     A
C478   C557    1.422   .     S
C479   N526    1.372   .     A
C479   N529    1.429   .     S
C479   C634    1.422   1_455 S
C480   C491    1.421   .     A
C480   C1191   1.425   .     S
C480   C1197   1.430   .     S
C481   N526    1.365   .     A
C481   H514    1.082   .     S
C481   C638    1.422   1_455 S
C482   N527    1.371   .     A
C482   N530    1.429   .     S
C482   C559    1.422   .     S
C483   O543    1.294   .     A
C483   O542    1.289   .     A
C484   O545    1.294   .     A
C484   O544    1.297   .     A
C484   C486    1.463   .     S
C485   C500    1.401   .     A
C485   C1198   1.399   1_554 S
C485   H1222   1.085   1_554 S
C486   C500    1.418   .     A
C486   C499    1.397   .     A
C487   C488    1.401   .     A
C487   N531    1.434   .     S
C488   C1191   1.410   .     S
C488   N1235   1.435   .     S
C489   N532    1.434   .     S
C489   C1190   1.410   1_554 S
C489   C1182   1.425   1_554 S
C490   H522    1.082   .     S
C490   C500    1.488   .     S
C490   O546    1.221   .     D
C491   C498    1.420   .     A
C492   H523    1.085   .     S
C492   O536    1.218   .     D
C493   H504    1.085   .     S
C493   O537    1.218   .     D
C494   H518    1.083   .     S
C494   O538    1.221   .     D
C495   C499    1.396   .     A
C495   C1182   1.430   1_554 S
C495   C1198   1.413   1_554 S
C496   C497    1.385   .     A
C496   C1187   1.399   .     S
C496   C1197   1.413   .     S
C497   C498    1.389   .     A
C497   H519    1.079   .     S
C498   N534    1.438   .     S
C499   H521    1.078   .     S
Cu501  N526    2.018   .     S
Cu501  O540    1.965   .     S
Cu501  O544    1.959   .     S
Cu501  Cu502   2.686   .     S
Cu501  O535    1.964   .     S
Cu501  O542    1.962   .     S
Cu502  O545    1.965   .     S
Cu502  O543    1.964   .     S
Cu502  N527    2.018   .     S
Cu502  O541    1.959   .     S
Cu502  O539    1.962   .     S
H505   N529    1.046   .     S
H506   N529    1.044   .     S
H507   N530    1.046   .     S
H508   N530    1.044   .     S
H509   N531    1.046   .     S
H510   N531    1.042   .     S
H511   N532    1.044   .     S
H512   N532    1.044   .     S
H513   N611    1.042   .     S
H515   N533    1.045   .     S
H516   N534    1.046   .     S
H517   N534    1.044   .     S
H520   C1187   1.085   .     S
H524   N528    1.045   .     S
H525   N528    1.046   .     S
N533   C1190   1.435   1_554 S
N533   H669    1.042   1_455 S
C547   O617    1.290   .     A
C547   C555    1.449   .     S
C547   O613    1.292   .     A
C548   C550    1.496   .     S
C548   C565    1.409   .     A
C548   C569    1.429   .     A
C549   C555    1.413   .     A
C549   C572    1.497   .     S
C549   C83     1.406   1_565 S
C550   O619    1.293   .     A
C550   O618    1.314   .     A
C551   C552    1.411   .     A
C551   C570    1.481   .     S
C552   C561    1.451   .     S
C552   C553    1.407   .     A
C553   N606    1.439   .     S
C554   C555    1.417   .     A
C554   C571    1.492   .     S
C554   C85     1.398   1_565 S
C556   H581    1.082   .     S
C556   N605    1.365   .     A
C556   C635    1.422   .     S
C557   N604    1.372   .     A
C557   N607    1.429   .     S
C558   C569    1.421   .     A
C558   C1269   1.425   .     S
C558   C1275   1.430   .     S
C559   N604    1.365   .     A
C559   H592    1.082   .     S
C560   N605    1.371   .     A
C560   N608    1.429   .     S
C560   C637    1.422   .     S
C561   O621    1.294   .     A
C561   O620    1.289   .     A
C562   O623    1.294   .     A
C562   O622    1.297   .     A
C562   C564    1.463   .     S
C563   C578    1.401   .     A
C563   C1276   1.399   1_554 S
C563   H1300   1.085   1_554 S
C564   C578    1.418   .     A
C564   C577    1.397   .     A
C565   C566    1.401   .     A
C565   N609    1.434   .     S
C566   C1269   1.410   .     S
C566   N1313   1.435   .     S
C567   N610    1.434   .     S
C567   C1268   1.410   1_554 S
C567   C1260   1.425   1_554 S
C568   H600    1.082   .     S
C568   C578    1.488   .     S
C568   O624    1.221   .     D
C569   C576    1.420   .     A
C570   H601    1.085   .     S
C570   O614    1.218   .     D
C571   H582    1.085   .     S
C571   O615    1.218   .     D
C572   H596    1.083   .     S
C572   O616    1.221   .     D
C573   C577    1.396   .     A
C573   C1260   1.430   1_554 S
C573   C1276   1.413   1_554 S
C574   C575    1.385   .     A
C574   C1265   1.399   .     S
C574   C1275   1.413   .     S
C575   C576    1.389   .     A
C575   H597    1.079   .     S
C576   N612    1.438   .     S
C577   H599    1.078   .     S
Cu579  N604    2.018   .     S
Cu579  O618    1.965   .     S
Cu579  O622    1.959   .     S
Cu579  Cu580   2.686   .     S
Cu579  O613    1.964   .     S
Cu579  O620    1.962   .     S
Cu580  O623    1.965   .     S
Cu580  O621    1.964   .     S
Cu580  N605    2.018   .     S
Cu580  O619    1.959   .     S
Cu580  O617    1.962   .     S
H583   N607    1.046   .     S
H584   N607    1.044   .     S
H585   N608    1.046   .     S
H586   N608    1.044   .     S
H587   N609    1.046   .     S
H588   N609    1.042   .     S
H589   N610    1.044   .     S
H590   N610    1.044   .     S
H591   N689    1.042   .     S
H593   N611    1.045   .     S
H594   N612    1.046   .     S
H595   N612    1.044   .     S
H598   C1265   1.085   .     S
H602   N606    1.045   .     S
H603   N606    1.046   .     S
N611   C1268   1.435   1_554 S
C625   O695    1.290   .     A
C625   C633    1.449   .     S
C625   O691    1.292   .     A
C626   C628    1.496   .     S
C626   C643    1.409   .     A
C626   C647    1.429   .     A
C627   C633    1.413   .     A
C627   C650    1.497   .     S
C627   C161    1.406   1_565 S
C628   O697    1.293   .     A
C628   O696    1.314   .     A
C629   C630    1.411   .     A
C629   C648    1.481   .     S
C630   C639    1.451   .     S
C630   C631    1.407   .     A
C631   N684    1.439   .     S
C632   C633    1.417   .     A
C632   C649    1.492   .     S
C632   C163    1.398   1_565 S
C634   H659    1.082   .     S
C634   N683    1.365   .     A
C634   C479    1.422   1_655 S
C635   N682    1.372   .     A
C635   N685    1.429   .     S
C636   C647    1.421   .     A
C636   C1347   1.425   .     S
C636   C1353   1.430   .     S
C637   N682    1.365   .     A
C637   H670    1.082   .     S
C638   N683    1.371   .     A
C638   N686    1.429   .     S
C638   C481    1.422   1_655 S
C639   O699    1.294   .     A
C639   O698    1.289   .     A
C640   O701    1.294   .     A
C640   O700    1.297   .     A
C640   C642    1.463   .     S
C641   C656    1.401   .     A
C641   C1354   1.399   1_554 S
C641   H1378   1.085   1_554 S
C642   C656    1.418   .     A
C642   C655    1.397   .     A
C643   C644    1.401   .     A
C643   N687    1.434   .     S
C644   C1347   1.410   .     S
C644   N1391   1.435   .     S
C645   N688    1.434   .     S
C645   C1346   1.410   1_554 S
C645   C1338   1.425   1_554 S
C646   H678    1.082   .     S
C646   C656    1.488   .     S
C646   O702    1.221   .     D
C647   C654    1.420   .     A
C648   H679    1.085   .     S
C648   O692    1.218   .     D
C649   H660    1.085   .     S
C649   O693    1.218   .     D
C650   H674    1.083   .     S
C650   O694    1.221   .     D
C651   C655    1.396   .     A
C651   C1338   1.430   1_554 S
C651   C1354   1.413   1_554 S
C652   C653    1.385   .     A
C652   C1343   1.399   .     S
C652   C1353   1.413   .     S
C653   C654    1.389   .     A
C653   H675    1.079   .     S
C654   N690    1.438   .     S
C655   H677    1.078   .     S
Cu657  N682    2.018   .     S
Cu657  O696    1.965   .     S
Cu657  O700    1.959   .     S
Cu657  Cu658   2.686   .     S
Cu657  O691    1.964   .     S
Cu657  O698    1.962   .     S
Cu658  O701    1.965   .     S
Cu658  O699    1.964   .     S
Cu658  N683    2.018   .     S
Cu658  O697    1.959   .     S
Cu658  O695    1.962   .     S
H661   N685    1.046   .     S
H662   N685    1.044   .     S
H663   N686    1.046   .     S
H664   N686    1.044   .     S
H665   N687    1.046   .     S
H666   N687    1.042   .     S
H667   N688    1.044   .     S
H668   N688    1.044   .     S
H669   N533    1.042   1_655 S
H671   N689    1.045   .     S
H672   N690    1.046   .     S
H673   N690    1.044   .     S
H676   C1343   1.085   .     S
H680   N684    1.045   .     S
H681   N684    1.046   .     S
N689   C1346   1.435   1_554 S
C703   O773    1.290   .     A
C703   C711    1.449   .     S
C703   O769    1.292   .     A
C704   C706    1.496   .     S
C704   C721    1.409   .     A
C704   C725    1.429   .     A
C705   C711    1.413   .     A
C705   C728    1.497   .     S
C705   C941    1.406   .     S
C706   O775    1.293   .     A
C706   O774    1.314   .     A
C707   C708    1.411   .     A
C707   C726    1.481   .     S
C707   C1173   1.406   1_545 S
C708   C717    1.451   .     S
C708   C709    1.407   .     A
C709   N762    1.439   .     S
C709   C1178   1.398   1_545 S
C710   C711    1.417   .     A
C710   C727    1.492   .     S
C710   C943    1.398   .     S
C712   H737    1.082   .     S
C712   N761    1.365   .     A
C712   C791    1.422   .     S
C713   N760    1.372   .     A
C713   N763    1.429   .     S
C713   C868    1.422   1_455 S
C714   C725    1.421   .     A
C714   C21     1.425   1_556 S
C714   C27     1.430   1_556 S
C715   N760    1.365   .     A
C715   H748    1.082   .     S
C715   C872    1.422   1_455 S
C716   N761    1.371   .     A
C716   N764    1.429   .     S
C716   C793    1.422   .     S
C717   O777    1.294   .     A
C717   O776    1.289   .     A
C718   O779    1.294   .     A
C718   O778    1.297   .     A
C718   C720    1.463   .     S
C719   C734    1.401   .     A
C720   C734    1.418   .     A
C720   C733    1.397   .     A
C721   C722    1.401   .     A
C721   N765    1.434   .     S
C722   C21     1.410   1_556 S
C722   N65     1.435   1_556 S
C723   N766    1.434   .     S
C724   H756    1.082   .     S
C724   C734    1.488   .     S
C724   O780    1.221   .     D
C725   C732    1.420   .     A
C726   H757    1.085   .     S
C726   O770    1.218   .     D
C727   H738    1.085   .     S
C727   O771    1.218   .     D
C728   H752    1.083   .     S
C728   O772    1.221   .     D
C729   C733    1.396   .     A
C730   C731    1.385   .     A
C730   C17     1.399   1_556 S
C730   C27     1.413   1_556 S
C731   C732    1.389   .     A
C731   H753    1.079   .     S
C732   N768    1.438   .     S
C733   H755    1.078   .     S
Cu735  N760    2.018   .     S
Cu735  O774    1.965   .     S
Cu735  O778    1.959   .     S
Cu735  Cu736   2.686   .     S
Cu735  O769    1.964   .     S
Cu735  O776    1.962   .     S
Cu736  O779    1.965   .     S
Cu736  O777    1.964   .     S
Cu736  N761    2.018   .     S
Cu736  O775    1.959   .     S
Cu736  O773    1.962   .     S
H739   N763    1.046   .     S
H740   N763    1.044   .     S
H741   N764    1.046   .     S
H742   N764    1.044   .     S
H743   N765    1.046   .     S
H744   N765    1.042   .     S
H745   N766    1.044   .     S
H746   N766    1.044   .     S
H747   N845    1.042   .     S
H749   N767    1.045   .     S
H750   N768    1.046   .     S
H751   N768    1.044   .     S
H754   C17     1.085   1_556 S
H758   N762    1.045   .     S
H759   N762    1.046   .     S
N767   H903    1.042   1_455 S
C781   O851    1.290   .     A
C781   C789    1.449   .     S
C781   O847    1.292   .     A
C782   C784    1.496   .     S
C782   C799    1.409   .     A
C782   C803    1.429   .     A
C783   C789    1.413   .     A
C783   C806    1.497   .     S
C783   C1019   1.406   .     S
C784   O853    1.293   .     A
C784   O852    1.314   .     A
C785   C786    1.411   .     A
C785   C804    1.481   .     S
C785   C1251   1.406   1_545 S
C786   C795    1.451   .     S
C786   C787    1.407   .     A
C787   N840    1.439   .     S
C787   C1256   1.398   1_545 S
C788   C789    1.417   .     A
C788   C805    1.492   .     S
C788   C1021   1.398   .     S
C790   H815    1.082   .     S
C790   N839    1.365   .     A
C790   C869    1.422   .     S
C791   N838    1.372   .     A
C791   N841    1.429   .     S
C792   C803    1.421   .     A
C792   C99     1.425   1_556 S
C792   C105    1.430   1_556 S
C793   N838    1.365   .     A
C793   H826    1.082   .     S
C794   N839    1.371   .     A
C794   N842    1.429   .     S
C794   C871    1.422   .     S
C795   O855    1.294   .     A
C795   O854    1.289   .     A
C796   O857    1.294   .     A
C796   O856    1.297   .     A
C796   C798    1.463   .     S
C797   C812    1.401   .     A
C798   C812    1.418   .     A
C798   C811    1.397   .     A
C799   C800    1.401   .     A
C799   N843    1.434   .     S
C800   C99     1.410   1_556 S
C800   N143    1.435   1_556 S
C801   N844    1.434   .     S
C802   H834    1.082   .     S
C802   C812    1.488   .     S
C802   O858    1.221   .     D
C803   C810    1.420   .     A
C804   H835    1.085   .     S
C804   O848    1.218   .     D
C805   H816    1.085   .     S
C805   O849    1.218   .     D
C806   H830    1.083   .     S
C806   O850    1.221   .     D
C807   C811    1.396   .     A
C808   C809    1.385   .     A
C808   C95     1.399   1_556 S
C808   C105    1.413   1_556 S
C809   C810    1.389   .     A
C809   H831    1.079   .     S
C810   N846    1.438   .     S
C811   H833    1.078   .     S
Cu813  N838    2.018   .     S
Cu813  O852    1.965   .     S
Cu813  O856    1.959   .     S
Cu813  Cu814   2.686   .     S
Cu813  O847    1.964   .     S
Cu813  O854    1.962   .     S
Cu814  O857    1.965   .     S
Cu814  O855    1.964   .     S
Cu814  N839    2.018   .     S
Cu814  O853    1.959   .     S
Cu814  O851    1.962   .     S
H817   N841    1.046   .     S
H818   N841    1.044   .     S
H819   N842    1.046   .     S
H820   N842    1.044   .     S
H821   N843    1.046   .     S
H822   N843    1.042   .     S
H823   N844    1.044   .     S
H824   N844    1.044   .     S
H825   N923    1.042   .     S
H827   N845    1.045   .     S
H828   N846    1.046   .     S
H829   N846    1.044   .     S
H832   C95     1.085   1_556 S
H836   N840    1.045   .     S
H837   N840    1.046   .     S
C859   O929    1.290   .     A
C859   C867    1.449   .     S
C859   O925    1.292   .     A
C860   C862    1.496   .     S
C860   C877    1.409   .     A
C860   C881    1.429   .     A
C861   C867    1.413   .     A
C861   C884    1.497   .     S
C861   C1097   1.406   .     S
C862   O931    1.293   .     A
C862   O930    1.314   .     A
C863   C864    1.411   .     A
C863   C882    1.481   .     S
C863   C1329   1.406   1_545 S
C864   C873    1.451   .     S
C864   C865    1.407   .     A
C865   N918    1.439   .     S
C865   C1334   1.398   1_545 S
C866   C867    1.417   .     A
C866   C883    1.492   .     S
C866   C1099   1.398   .     S
C868   H893    1.082   .     S
C868   N917    1.365   .     A
C868   C713    1.422   1_655 S
C869   N916    1.372   .     A
C869   N919    1.429   .     S
C870   C881    1.421   .     A
C870   C177    1.425   1_556 S
C870   C183    1.430   1_556 S
C871   N916    1.365   .     A
C871   H904    1.082   .     S
C872   N917    1.371   .     A
C872   N920    1.429   .     S
C872   C715    1.422   1_655 S
C873   O933    1.294   .     A
C873   O932    1.289   .     A
C874   O935    1.294   .     A
C874   O934    1.297   .     A
C874   C876    1.463   .     S
C875   C890    1.401   .     A
C876   C890    1.418   .     A
C876   C889    1.397   .     A
C877   C878    1.401   .     A
C877   N921    1.434   .     S
C878   C177    1.410   1_556 S
C878   N221    1.435   1_556 S
C879   N922    1.434   .     S
C880   H912    1.082   .     S
C880   C890    1.488   .     S
C880   O936    1.221   .     D
C881   C888    1.420   .     A
C882   H913    1.085   .     S
C882   O926    1.218   .     D
C883   H894    1.085   .     S
C883   O927    1.218   .     D
C884   H908    1.083   .     S
C884   O928    1.221   .     D
C885   C889    1.396   .     A
C886   C887    1.385   .     A
C886   C173    1.399   1_556 S
C886   C183    1.413   1_556 S
C887   C888    1.389   .     A
C887   H909    1.079   .     S
C888   N924    1.438   .     S
C889   H911    1.078   .     S
Cu891  N916    2.018   .     S
Cu891  O930    1.965   .     S
Cu891  O934    1.959   .     S
Cu891  Cu892   2.686   .     S
Cu891  O925    1.964   .     S
Cu891  O932    1.962   .     S
Cu892  O935    1.965   .     S
Cu892  O933    1.964   .     S
Cu892  N917    2.018   .     S
Cu892  O931    1.959   .     S
Cu892  O929    1.962   .     S
H895   N919    1.046   .     S
H896   N919    1.044   .     S
H897   N920    1.046   .     S
H898   N920    1.044   .     S
H899   N921    1.046   .     S
H900   N921    1.042   .     S
H901   N922    1.044   .     S
H902   N922    1.044   .     S
H903   N767    1.042   1_655 S
H905   N923    1.045   .     S
H906   N924    1.046   .     S
H907   N924    1.044   .     S
H910   C173    1.085   1_556 S
H914   N918    1.045   .     S
H915   N918    1.046   .     S
C937   O1007   1.290   .     A
C937   C945    1.449   .     S
C937   O1003   1.292   .     A
C938   C940    1.496   .     S
C938   C955    1.409   .     A
C938   C959    1.429   .     A
C939   C945    1.413   .     A
C939   C962    1.497   .     S
C939   C1175   1.406   .     S
C940   O1009   1.293   .     A
C940   O1008   1.314   .     A
C941   C942    1.411   .     A
C941   C960    1.481   .     S
C942   C951    1.451   .     S
C942   C943    1.407   .     A
C943   N996    1.439   .     S
C944   C945    1.417   .     A
C944   C961    1.492   .     S
C944   C1177   1.398   .     S
C946   H971    1.082   .     S
C946   N995    1.365   .     A
C946   C1025   1.422   .     S
C947   N994    1.372   .     A
C947   N997    1.429   .     S
C947   C1102   1.422   1_455 S
C948   C959    1.421   .     A
C948   C255    1.425   1_556 S
C948   C261    1.430   1_556 S
C949   N994    1.365   .     A
C949   H982    1.082   .     S
C949   C1106   1.422   1_455 S
C950   N995    1.371   .     A
C950   N998    1.429   .     S
C950   C1027   1.422   .     S
C951   O1011   1.294   .     A
C951   O1010   1.289   .     A
C952   O1013   1.294   .     A
C952   O1012   1.297   .     A
C952   C954    1.463   .     S
C953   C968    1.401   .     A
C954   C968    1.418   .     A
C954   C967    1.397   .     A
C955   C956    1.401   .     A
C955   N999    1.434   .     S
C956   C255    1.410   1_556 S
C956   N299    1.435   1_556 S
C957   N1000   1.434   .     S
C958   H990    1.082   .     S
C958   C968    1.488   .     S
C958   O1014   1.221   .     D
C959   C966    1.420   .     A
C960   H991    1.085   .     S
C960   O1004   1.218   .     D
C961   H972    1.085   .     S
C961   O1005   1.218   .     D
C962   H986    1.083   .     S
C962   O1006   1.221   .     D
C963   C967    1.396   .     A
C964   C965    1.385   .     A
C964   C251    1.399   1_556 S
C964   C261    1.413   1_556 S
C965   C966    1.389   .     A
C965   H987    1.079   .     S
C966   N1002   1.438   .     S
C967   H989    1.078   .     S
Cu969  N994    2.018   .     S
Cu969  O1008   1.965   .     S
Cu969  O1012   1.959   .     S
Cu969  Cu970   2.686   .     S
Cu969  O1003   1.964   .     S
Cu969  O1010   1.962   .     S
Cu970  O1013   1.965   .     S
Cu970  O1011   1.964   .     S
Cu970  N995    2.018   .     S
Cu970  O1009   1.959   .     S
Cu970  O1007   1.962   .     S
H973   N997    1.046   .     S
H974   N997    1.044   .     S
H975   N998    1.046   .     S
H976   N998    1.044   .     S
H977   N999    1.046   .     S
H978   N999    1.042   .     S
H979   N1000   1.044   .     S
H980   N1000   1.044   .     S
H981   N1079   1.042   .     S
H983   N1001   1.045   .     S
H984   N1002   1.046   .     S
H985   N1002   1.044   .     S
H988   C251    1.085   1_556 S
H992   N996    1.045   .     S
H993   N996    1.046   .     S
N1001  H1137   1.042   1_455 S
C1015  O1085   1.290   .     A
C1015  C1023   1.449   .     S
C1015  O1081   1.292   .     A
C1016  C1018   1.496   .     S
C1016  C1033   1.409   .     A
C1016  C1037   1.429   .     A
C1017  C1023   1.413   .     A
C1017  C1040   1.497   .     S
C1017  C1253   1.406   .     S
C1018  O1087   1.293   .     A
C1018  O1086   1.314   .     A
C1019  C1020   1.411   .     A
C1019  C1038   1.481   .     S
C1020  C1029   1.451   .     S
C1020  C1021   1.407   .     A
C1021  N1074   1.439   .     S
C1022  C1023   1.417   .     A
C1022  C1039   1.492   .     S
C1022  C1255   1.398   .     S
C1024  H1049   1.082   .     S
C1024  N1073   1.365   .     A
C1024  C1103   1.422   .     S
C1025  N1072   1.372   .     A
C1025  N1075   1.429   .     S
C1026  C1037   1.421   .     A
C1026  C333    1.425   1_556 S
C1026  C339    1.430   1_556 S
C1027  N1072   1.365   .     A
C1027  H1060   1.082   .     S
C1028  N1073   1.371   .     A
C1028  N1076   1.429   .     S
C1028  C1105   1.422   .     S
C1029  O1089   1.294   .     A
C1029  O1088   1.289   .     A
C1030  O1091   1.294   .     A
C1030  O1090   1.297   .     A
C1030  C1032   1.463   .     S
C1031  C1046   1.401   .     A
C1032  C1046   1.418   .     A
C1032  C1045   1.397   .     A
C1033  C1034   1.401   .     A
C1033  N1077   1.434   .     S
C1034  C333    1.410   1_556 S
C1034  N377    1.435   1_556 S
C1035  N1078   1.434   .     S
C1036  H1068   1.082   .     S
C1036  C1046   1.488   .     S
C1036  O1092   1.221   .     D
C1037  C1044   1.420   .     A
C1038  H1069   1.085   .     S
C1038  O1082   1.218   .     D
C1039  H1050   1.085   .     S
C1039  O1083   1.218   .     D
C1040  H1064   1.083   .     S
C1040  O1084   1.221   .     D
C1041  C1045   1.396   .     A
C1042  C1043   1.385   .     A
C1042  C329    1.399   1_556 S
C1042  C339    1.413   1_556 S
C1043  C1044   1.389   .     A
C1043  H1065   1.079   .     S
C1044  N1080   1.438   .     S
C1045  H1067   1.078   .     S
Cu1047 N1072   2.018   .     S
Cu1047 O1086   1.965   .     S
Cu1047 O1090   1.959   .     S
Cu1047 Cu1048  2.686   .     S
Cu1047 O1081   1.964   .     S
Cu1047 O1088   1.962   .     S
Cu1048 O1091   1.965   .     S
Cu1048 O1089   1.964   .     S
Cu1048 N1073   2.018   .     S
Cu1048 O1087   1.959   .     S
Cu1048 O1085   1.962   .     S
H1051  N1075   1.046   .     S
H1052  N1075   1.044   .     S
H1053  N1076   1.046   .     S
H1054  N1076   1.044   .     S
H1055  N1077   1.046   .     S
H1056  N1077   1.042   .     S
H1057  N1078   1.044   .     S
H1058  N1078   1.044   .     S
H1059  N1157   1.042   .     S
H1061  N1079   1.045   .     S
H1062  N1080   1.046   .     S
H1063  N1080   1.044   .     S
H1066  C329    1.085   1_556 S
H1070  N1074   1.045   .     S
H1071  N1074   1.046   .     S
C1093  O1163   1.290   .     A
C1093  C1101   1.449   .     S
C1093  O1159   1.292   .     A
C1094  C1096   1.496   .     S
C1094  C1111   1.409   .     A
C1094  C1115   1.429   .     A
C1095  C1101   1.413   .     A
C1095  C1118   1.497   .     S
C1095  C1331   1.406   .     S
C1096  O1165   1.293   .     A
C1096  O1164   1.314   .     A
C1097  C1098   1.411   .     A
C1097  C1116   1.481   .     S
C1098  C1107   1.451   .     S
C1098  C1099   1.407   .     A
C1099  N1152   1.439   .     S
C1100  C1101   1.417   .     A
C1100  C1117   1.492   .     S
C1100  C1333   1.398   .     S
C1102  H1127   1.082   .     S
C1102  N1151   1.365   .     A
C1102  C947    1.422   1_655 S
C1103  N1150   1.372   .     A
C1103  N1153   1.429   .     S
C1104  C1115   1.421   .     A
C1104  C411    1.425   1_556 S
C1104  C417    1.430   1_556 S
C1105  N1150   1.365   .     A
C1105  H1138   1.082   .     S
C1106  N1151   1.371   .     A
C1106  N1154   1.429   .     S
C1106  C949    1.422   1_655 S
C1107  O1167   1.294   .     A
C1107  O1166   1.289   .     A
C1108  O1169   1.294   .     A
C1108  O1168   1.297   .     A
C1108  C1110   1.463   .     S
C1109  C1124   1.401   .     A
C1110  C1124   1.418   .     A
C1110  C1123   1.397   .     A
C1111  C1112   1.401   .     A
C1111  N1155   1.434   .     S
C1112  C411    1.410   1_556 S
C1112  N455    1.435   1_556 S
C1113  N1156   1.434   .     S
C1114  H1146   1.082   .     S
C1114  C1124   1.488   .     S
C1114  O1170   1.221   .     D
C1115  C1122   1.420   .     A
C1116  H1147   1.085   .     S
C1116  O1160   1.218   .     D
C1117  H1128   1.085   .     S
C1117  O1161   1.218   .     D
C1118  H1142   1.083   .     S
C1118  O1162   1.221   .     D
C1119  C1123   1.396   .     A
C1120  C1121   1.385   .     A
C1120  C407    1.399   1_556 S
C1120  C417    1.413   1_556 S
C1121  C1122   1.389   .     A
C1121  H1143   1.079   .     S
C1122  N1158   1.438   .     S
C1123  H1145   1.078   .     S
Cu1125 N1150   2.018   .     S
Cu1125 O1164   1.965   .     S
Cu1125 O1168   1.959   .     S
Cu1125 Cu1126  2.686   .     S
Cu1125 O1159   1.964   .     S
Cu1125 O1166   1.962   .     S
Cu1126 O1169   1.965   .     S
Cu1126 O1167   1.964   .     S
Cu1126 N1151   2.018   .     S
Cu1126 O1165   1.959   .     S
Cu1126 O1163   1.962   .     S
H1129  N1153   1.046   .     S
H1130  N1153   1.044   .     S
H1131  N1154   1.046   .     S
H1132  N1154   1.044   .     S
H1133  N1155   1.046   .     S
H1134  N1155   1.042   .     S
H1135  N1156   1.044   .     S
H1136  N1156   1.044   .     S
H1137  N1001   1.042   1_655 S
H1139  N1157   1.045   .     S
H1140  N1158   1.046   .     S
H1141  N1158   1.044   .     S
H1144  C407    1.085   1_556 S
H1148  N1152   1.045   .     S
H1149  N1152   1.046   .     S
C1171  O1241   1.290   .     A
C1171  C1179   1.449   .     S
C1171  O1237   1.292   .     A
C1172  C1174   1.496   .     S
C1172  C1189   1.409   .     A
C1172  C1193   1.429   .     A
C1173  C1179   1.413   .     A
C1173  C1196   1.497   .     S
C1173  C707    1.406   1_565 S
C1174  O1243   1.293   .     A
C1174  O1242   1.314   .     A
C1175  C1176   1.411   .     A
C1175  C1194   1.481   .     S
C1176  C1185   1.451   .     S
C1176  C1177   1.407   .     A
C1177  N1230   1.439   .     S
C1178  C1179   1.417   .     A
C1178  C1195   1.492   .     S
C1178  C709    1.398   1_565 S
C1180  H1205   1.082   .     S
C1180  N1229   1.365   .     A
C1180  C1259   1.422   .     S
C1181  N1228   1.372   .     A
C1181  N1231   1.429   .     S
C1181  C1336   1.422   1_455 S
C1182  C1193   1.421   .     A
C1182  C489    1.425   1_556 S
C1182  C495    1.430   1_556 S
C1183  N1228   1.365   .     A
C1183  H1216   1.082   .     S
C1183  C1340   1.422   1_455 S
C1184  N1229   1.371   .     A
C1184  N1232   1.429   .     S
C1184  C1261   1.422   .     S
C1185  O1245   1.294   .     A
C1185  O1244   1.289   .     A
C1186  O1247   1.294   .     A
C1186  O1246   1.297   .     A
C1186  C1188   1.463   .     S
C1187  C1202   1.401   .     A
C1188  C1202   1.418   .     A
C1188  C1201   1.397   .     A
C1189  C1190   1.401   .     A
C1189  N1233   1.434   .     S
C1190  C489    1.410   1_556 S
C1190  N533    1.435   1_556 S
C1191  N1234   1.434   .     S
C1192  H1224   1.082   .     S
C1192  C1202   1.488   .     S
C1192  O1248   1.221   .     D
C1193  C1200   1.420   .     A
C1194  H1225   1.085   .     S
C1194  O1238   1.218   .     D
C1195  H1206   1.085   .     S
C1195  O1239   1.218   .     D
C1196  H1220   1.083   .     S
C1196  O1240   1.221   .     D
C1197  C1201   1.396   .     A
C1198  C1199   1.385   .     A
C1198  C485    1.399   1_556 S
C1198  C495    1.413   1_556 S
C1199  C1200   1.389   .     A
C1199  H1221   1.079   .     S
C1200  N1236   1.438   .     S
C1201  H1223   1.078   .     S
Cu1203 N1228   2.018   .     S
Cu1203 O1242   1.965   .     S
Cu1203 O1246   1.959   .     S
Cu1203 Cu1204  2.686   .     S
Cu1203 O1237   1.964   .     S
Cu1203 O1244   1.962   .     S
Cu1204 O1247   1.965   .     S
Cu1204 O1245   1.964   .     S
Cu1204 N1229   2.018   .     S
Cu1204 O1243   1.959   .     S
Cu1204 O1241   1.962   .     S
H1207  N1231   1.046   .     S
H1208  N1231   1.044   .     S
H1209  N1232   1.046   .     S
H1210  N1232   1.044   .     S
H1211  N1233   1.046   .     S
H1212  N1233   1.042   .     S
H1213  N1234   1.044   .     S
H1214  N1234   1.044   .     S
H1215  N1313   1.042   .     S
H1217  N1235   1.045   .     S
H1218  N1236   1.046   .     S
H1219  N1236   1.044   .     S
H1222  C485    1.085   1_556 S
H1226  N1230   1.045   .     S
H1227  N1230   1.046   .     S
N1235  H1371   1.042   1_455 S
C1249  O1319   1.290   .     A
C1249  C1257   1.449   .     S
C1249  O1315   1.292   .     A
C1250  C1252   1.496   .     S
C1250  C1267   1.409   .     A
C1250  C1271   1.429   .     A
C1251  C1257   1.413   .     A
C1251  C1274   1.497   .     S
C1251  C785    1.406   1_565 S
C1252  O1321   1.293   .     A
C1252  O1320   1.314   .     A
C1253  C1254   1.411   .     A
C1253  C1272   1.481   .     S
C1254  C1263   1.451   .     S
C1254  C1255   1.407   .     A
C1255  N1308   1.439   .     S
C1256  C1257   1.417   .     A
C1256  C1273   1.492   .     S
C1256  C787    1.398   1_565 S
C1258  H1283   1.082   .     S
C1258  N1307   1.365   .     A
C1258  C1337   1.422   .     S
C1259  N1306   1.372   .     A
C1259  N1309   1.429   .     S
C1260  C1271   1.421   .     A
C1260  C567    1.425   1_556 S
C1260  C573    1.430   1_556 S
C1261  N1306   1.365   .     A
C1261  H1294   1.082   .     S
C1262  N1307   1.371   .     A
C1262  N1310   1.429   .     S
C1262  C1339   1.422   .     S
C1263  O1323   1.294   .     A
C1263  O1322   1.289   .     A
C1264  O1325   1.294   .     A
C1264  O1324   1.297   .     A
C1264  C1266   1.463   .     S
C1265  C1280   1.401   .     A
C1266  C1280   1.418   .     A
C1266  C1279   1.397   .     A
C1267  C1268   1.401   .     A
C1267  N1311   1.434   .     S
C1268  C567    1.410   1_556 S
C1268  N611    1.435   1_556 S
C1269  N1312   1.434   .     S
C1270  H1302   1.082   .     S
C1270  C1280   1.488   .     S
C1270  O1326   1.221   .     D
C1271  C1278   1.420   .     A
C1272  H1303   1.085   .     S
C1272  O1316   1.218   .     D
C1273  H1284   1.085   .     S
C1273  O1317   1.218   .     D
C1274  H1298   1.083   .     S
C1274  O1318   1.221   .     D
C1275  C1279   1.396   .     A
C1276  C1277   1.385   .     A
C1276  C563    1.399   1_556 S
C1276  C573    1.413   1_556 S
C1277  C1278   1.389   .     A
C1277  H1299   1.079   .     S
C1278  N1314   1.438   .     S
C1279  H1301   1.078   .     S
Cu1281 N1306   2.018   .     S
Cu1281 O1320   1.965   .     S
Cu1281 O1324   1.959   .     S
Cu1281 Cu1282  2.686   .     S
Cu1281 O1315   1.964   .     S
Cu1281 O1322   1.962   .     S
Cu1282 O1325   1.965   .     S
Cu1282 O1323   1.964   .     S
Cu1282 N1307   2.018   .     S
Cu1282 O1321   1.959   .     S
Cu1282 O1319   1.962   .     S
H1285  N1309   1.046   .     S
H1286  N1309   1.044   .     S
H1287  N1310   1.046   .     S
H1288  N1310   1.044   .     S
H1289  N1311   1.046   .     S
H1290  N1311   1.042   .     S
H1291  N1312   1.044   .     S
H1292  N1312   1.044   .     S
H1293  N1391   1.042   .     S
H1295  N1313   1.045   .     S
H1296  N1314   1.046   .     S
H1297  N1314   1.044   .     S
H1300  C563    1.085   1_556 S
H1304  N1308   1.045   .     S
H1305  N1308   1.046   .     S
C1327  O1397   1.290   .     A
C1327  C1335   1.449   .     S
C1327  O1393   1.292   .     A
C1328  C1330   1.496   .     S
C1328  C1345   1.409   .     A
C1328  C1349   1.429   .     A
C1329  C1335   1.413   .     A
C1329  C1352   1.497   .     S
C1329  C863    1.406   1_565 S
C1330  O1399   1.293   .     A
C1330  O1398   1.314   .     A
C1331  C1332   1.411   .     A
C1331  C1350   1.481   .     S
C1332  C1341   1.451   .     S
C1332  C1333   1.407   .     A
C1333  N1386   1.439   .     S
C1334  C1335   1.417   .     A
C1334  C1351   1.492   .     S
C1334  C865    1.398   1_565 S
C1336  H1361   1.082   .     S
C1336  N1385   1.365   .     A
C1336  C1181   1.422   1_655 S
C1337  N1384   1.372   .     A
C1337  N1387   1.429   .     S
C1338  C1349   1.421   .     A
C1338  C645    1.425   1_556 S
C1338  C651    1.430   1_556 S
C1339  N1384   1.365   .     A
C1339  H1372   1.082   .     S
C1340  N1385   1.371   .     A
C1340  N1388   1.429   .     S
C1340  C1183   1.422   1_655 S
C1341  O1401   1.294   .     A
C1341  O1400   1.289   .     A
C1342  O1403   1.294   .     A
C1342  O1402   1.297   .     A
C1342  C1344   1.463   .     S
C1343  C1358   1.401   .     A
C1344  C1358   1.418   .     A
C1344  C1357   1.397   .     A
C1345  C1346   1.401   .     A
C1345  N1389   1.434   .     S
C1346  C645    1.410   1_556 S
C1346  N689    1.435   1_556 S
C1347  N1390   1.434   .     S
C1348  H1380   1.082   .     S
C1348  C1358   1.488   .     S
C1348  O1404   1.221   .     D
C1349  C1356   1.420   .     A
C1350  H1381   1.085   .     S
C1350  O1394   1.218   .     D
C1351  H1362   1.085   .     S
C1351  O1395   1.218   .     D
C1352  H1376   1.083   .     S
C1352  O1396   1.221   .     D
C1353  C1357   1.396   .     A
C1354  C1355   1.385   .     A
C1354  C641    1.399   1_556 S
C1354  C651    1.413   1_556 S
C1355  C1356   1.389   .     A
C1355  H1377   1.079   .     S
C1356  N1392   1.438   .     S
C1357  H1379   1.078   .     S
Cu1359 N1384   2.018   .     S
Cu1359 O1398   1.965   .     S
Cu1359 O1402   1.959   .     S
Cu1359 Cu1360  2.686   .     S
Cu1359 O1393   1.964   .     S
Cu1359 O1400   1.962   .     S
Cu1360 O1403   1.965   .     S
Cu1360 O1401   1.964   .     S
Cu1360 N1385   2.018   .     S
Cu1360 O1399   1.959   .     S
Cu1360 O1397   1.962   .     S
H1363  N1387   1.046   .     S
H1364  N1387   1.044   .     S
H1365  N1388   1.046   .     S
H1366  N1388   1.044   .     S
H1367  N1389   1.046   .     S
H1368  N1389   1.042   .     S
H1369  N1390   1.044   .     S
H1370  N1390   1.044   .     S
H1371  N1235   1.042   1_655 S
H1373  N1391   1.045   .     S
H1374  N1392   1.046   .     S
H1375  N1392   1.044   .     S
H1378  C641    1.085   1_556 S
H1382  N1386   1.045   .     S
H1383  N1386   1.046   .     S
