data_str_m1_o1_o5_pcu_sym.12
_audit_creation_date              2020-01-03
_audit_creation_method            'Materials Studio'
_symmetry_space_group_name_H-M    'P1'
_symmetry_Int_Tables_number       1
_symmetry_cell_setting            triclinic
loop_
_symmetry_equiv_pos_as_xyz
  x,y,z
_cell_length_a                    36.6586
_cell_length_b                    36.6585
_cell_length_c                    22.4384
_cell_angle_alpha                 90.0002
_cell_angle_beta                  90.0002
_cell_angle_gamma                 90.0023
loop_
_atom_site_label
_atom_site_type_symbol
_atom_site_fract_x
_atom_site_fract_y
_atom_site_fract_z
_atom_site_U_iso_or_equiv
_atom_site_adp_type
_atom_site_occupancy
C1     C    -0.00000   0.25000   0.02666   0.00000  Uiso   1.00
C2     C    -0.00000   0.25000   0.58991   0.00000  Uiso   1.00
C3     C     0.25000   0.00000   0.41009   0.00000  Uiso   1.00
C4     C     0.25000   0.00000   0.58991   0.00000  Uiso   1.00
C5     C     0.25000   0.00000   0.91009   0.00000  Uiso   1.00
C6     C     0.25000   0.00000   0.08991   0.00000  Uiso   1.00
C7     C    -0.00000   0.25000   0.91009   0.00000  Uiso   1.00
C8     C    -0.00000   0.25000   0.08991   0.00000  Uiso   1.00
C9     C     0.07002   0.17998   0.25000   0.00000  Uiso   1.00
C10    C     0.42998   0.32002   0.75000   0.00000  Uiso   1.00
C11    C     0.17998   0.42998   0.25000   0.00000  Uiso   1.00
C12    C    -0.00000   0.25000   0.97334   0.00000  Uiso   1.00
C13    C     0.32002   0.07002   0.75000   0.00000  Uiso   1.00
C14    C     0.42998   0.32002   0.25000   0.00000  Uiso   1.00
C15    C     0.07002   0.17998   0.75000   0.00000  Uiso   1.00
C16    C     0.32002   0.07002   0.25000   0.00000  Uiso   1.00
C17    C     0.17998   0.42998   0.75000   0.00000  Uiso   1.00
C18    C     0.07002   0.32002   0.75000   0.00000  Uiso   1.00
C19    C     0.42998   0.17998   0.25000   0.00000  Uiso   1.00
C20    C     0.17998   0.07002   0.75000   0.00000  Uiso   1.00
C21    C     0.32002   0.42998   0.25000   0.00000  Uiso   1.00
C22    C     0.42998   0.17998   0.75000   0.00000  Uiso   1.00
C23    C     0.25000   0.00000   0.02666   0.00000  Uiso   1.00
C24    C     0.07002   0.32002   0.25000   0.00000  Uiso   1.00
C25    C     0.32002   0.42998   0.75000   0.00000  Uiso   1.00
C26    C     0.17998   0.07002   0.25000   0.00000  Uiso   1.00
C27    C     0.13487   0.33817   0.25783   0.00000  Uiso   1.00
C28    C     0.39191   0.13504   0.80392   0.00000  Uiso   1.00
C29    C     0.36473   0.39168   0.19599   0.00000  Uiso   1.00
C30    C     0.16183   0.13487   0.74216   0.00000  Uiso   1.00
C31    C     0.36513   0.16182   0.25791   0.00000  Uiso   1.00
C32    C     0.10809   0.36496   0.80392   0.00000  Uiso   1.00
C33    C     0.13506   0.10810   0.19607   0.00000  Uiso   1.00
C34    C     0.25000   0.00000   0.97334   0.00000  Uiso   1.00
C35    C     0.33817   0.36513   0.74216   0.00000  Uiso   1.00
C36    C     0.13487   0.16183   0.74216   0.00000  Uiso   1.00
C37    C     0.39168   0.36473   0.19599   0.00000  Uiso   1.00
C38    C     0.36496   0.10809   0.80392   0.00000  Uiso   1.00
C39    C     0.16183   0.36513   0.25783   0.00000  Uiso   1.00
C40    C     0.36513   0.33817   0.74216   0.00000  Uiso   1.00
C41    C     0.10810   0.13506   0.19607   0.00000  Uiso   1.00
C42    C     0.13504   0.39191   0.80392   0.00000  Uiso   1.00
C43    C     0.33818   0.13487   0.25791   0.00000  Uiso   1.00
C44    C     0.35809   0.11496   0.69608   0.00000  Uiso   1.00
C45    C     0.25000   0.00000   0.52666   0.00000  Uiso   1.00
C46    C     0.11513   0.41183   0.24217   0.00000  Uiso   1.00
C47    C     0.08817   0.11513   0.75784   0.00000  Uiso   1.00
C48    C     0.38527   0.35832   0.30401   0.00000  Uiso   1.00
C49    C     0.14191   0.38504   0.69608   0.00000  Uiso   1.00
C50    C     0.38487   0.08818   0.24210   0.00000  Uiso   1.00
C51    C     0.41183   0.38487   0.75784   0.00000  Uiso   1.00
C52    C     0.11494   0.14190   0.30393   0.00000  Uiso   1.00
C53    C     0.35832   0.38527   0.30401   0.00000  Uiso   1.00
C54    C     0.11513   0.08817   0.75784   0.00000  Uiso   1.00
C55    C     0.08817   0.38487   0.24217   0.00000  Uiso   1.00
C56    C     0.25000   0.00000   0.47334   0.00000  Uiso   1.00
C57    C     0.38504   0.14191   0.69608   0.00000  Uiso   1.00
C58    C     0.14190   0.11494   0.30393   0.00000  Uiso   1.00
C59    C     0.38487   0.41183   0.75784   0.00000  Uiso   1.00
C60    C     0.41182   0.11513   0.24210   0.00000  Uiso   1.00
C61    C     0.11496   0.35809   0.69608   0.00000  Uiso   1.00
C62    C     0.15191   0.40191   0.25000   0.00000  Uiso   1.00
C63    C     0.34809   0.09809   0.75000   0.00000  Uiso   1.00
C64    C     0.40191   0.34809   0.25000   0.00000  Uiso   1.00
C65    C     0.09809   0.15191   0.75000   0.00000  Uiso   1.00
C66    C     0.34809   0.09809   0.25000   0.00000  Uiso   1.00
C67    C    -0.00000   0.25000   0.52666   0.00000  Uiso   1.00
C68    C     0.15191   0.40191   0.75000   0.00000  Uiso   1.00
C69    C     0.09809   0.15191   0.25000   0.00000  Uiso   1.00
C70    C     0.40191   0.34809   0.75000   0.00000  Uiso   1.00
C71    C     0.15191   0.09809   0.75000   0.00000  Uiso   1.00
C72    C     0.34809   0.40191   0.25000   0.00000  Uiso   1.00
C73    C     0.40191   0.15191   0.75000   0.00000  Uiso   1.00
C74    C     0.09809   0.34809   0.25000   0.00000  Uiso   1.00
C75    C     0.34809   0.40191   0.75000   0.00000  Uiso   1.00
C76    C     0.15191   0.09809   0.25000   0.00000  Uiso   1.00
C77    C     0.09809   0.34809   0.75000   0.00000  Uiso   1.00
C78    C    -0.00000   0.25000   0.47334   0.00000  Uiso   1.00
C79    C     0.40191   0.15191   0.25000   0.00000  Uiso   1.00
C80    C     0.00000   0.25000   0.41009   0.00000  Uiso   1.00
Cl81   Cl    0.14728   0.29213   0.27053   0.00000  Uiso   1.00
Cl82   Cl    0.41376   0.35317   0.12836   0.00000  Uiso   1.00
Cl83   Cl    0.35367   0.08572   0.87140   0.00000  Uiso   1.00
Cl84   Cl    0.20787   0.35272   0.27052   0.00000  Uiso   1.00
Cl85   Cl    0.35272   0.29213   0.72945   0.00000  Uiso   1.00
Cl86   Cl    0.08575   0.14636   0.12858   0.00000  Uiso   1.00
Cl87   Cl    0.14633   0.41428   0.87140   0.00000  Uiso   1.00
Cl88   Cl    0.29214   0.14727   0.27068   0.00000  Uiso   1.00
Cl89   Cl    0.33572   0.10367   0.62860   0.00000  Uiso   1.00
Cl90   Cl    0.10272   0.45787   0.22947   0.00000  Uiso   1.00
Cl91   Cl    0.04213   0.10272   0.77055   0.00000  Uiso   1.00
Cl92   Cl    0.41428   0.14633   0.87140   0.00000  Uiso   1.00
Cl93   Cl    0.39683   0.33624   0.37164   0.00000  Uiso   1.00
Cl94   Cl    0.16428   0.39633   0.62860   0.00000  Uiso   1.00
Cl95   Cl    0.39727   0.04214   0.22932   0.00000  Uiso   1.00
Cl96   Cl    0.45787   0.39728   0.77055   0.00000  Uiso   1.00
Cl97   Cl    0.10364   0.16425   0.37142   0.00000  Uiso   1.00
Cl98   Cl    0.33624   0.39683   0.37164   0.00000  Uiso   1.00
Cl99   Cl    0.10272   0.04213   0.77055   0.00000  Uiso   1.00
Cl100  Cl    0.04213   0.39728   0.22948   0.00000  Uiso   1.00
Cl101  Cl    0.39633   0.16428   0.62860   0.00000  Uiso   1.00
Cl102  Cl    0.16425   0.10364   0.37142   0.00000  Uiso   1.00
Cl103  Cl    0.35317   0.41376   0.12836   0.00000  Uiso   1.00
Cl104  Cl    0.39728   0.45787   0.77055   0.00000  Uiso   1.00
Cl105  Cl    0.45786   0.10273   0.22932   0.00000  Uiso   1.00
Cl106  Cl    0.10367   0.33572   0.62860   0.00000  Uiso   1.00
Cl107  Cl    0.20787   0.14728   0.72945   0.00000  Uiso   1.00
Cl108  Cl    0.35273   0.20786   0.27068   0.00000  Uiso   1.00
Cl109  Cl    0.08572   0.35367   0.87140   0.00000  Uiso   1.00
Cl110  Cl    0.14636   0.08575   0.12858   0.00000  Uiso   1.00
Cl111  Cl    0.29213   0.35272   0.72945   0.00000  Uiso   1.00
Cl112  Cl    0.14728   0.20787   0.72945   0.00000  Uiso   1.00
O113   O     0.00000   0.25000   0.25000   0.00000  Uiso   1.00
O114   O    -0.00000   0.28036   0.61781   0.00000  Uiso   1.00
O115   O     0.21964   0.00000   0.38219   0.00000  Uiso   1.00
O116   O     0.28035   0.00000   0.61781   0.00000  Uiso   1.00
O117   O     0.25000   0.03036   0.88219   0.00000  Uiso   1.00
O118   O     0.25000   0.46965   0.11781   0.00000  Uiso   1.00
O119   O     0.03035   0.25000   0.88219   0.00000  Uiso   1.00
O120   O     0.46964   0.25000   0.11781   0.00000  Uiso   1.00
O121   O     0.25000   0.46965   0.88219   0.00000  Uiso   1.00
O122   O     0.25000   0.03036   0.11781   0.00000  Uiso   1.00
O123   O     0.46964   0.25000   0.88219   0.00000  Uiso   1.00
O124   O    -0.00000   0.25000   0.75000   0.00000  Uiso   1.00
O125   O     0.03035   0.25000   0.11781   0.00000  Uiso   1.00
O126   O     0.04267   0.17693   0.28474   0.00000  Uiso   1.00
O127   O     0.45732   0.32308   0.71526   0.00000  Uiso   1.00
O128   O     0.17692   0.45733   0.28474   0.00000  Uiso   1.00
O129   O     0.32307   0.04268   0.71526   0.00000  Uiso   1.00
O130   O     0.45732   0.32308   0.28474   0.00000  Uiso   1.00
O131   O     0.04267   0.17693   0.71526   0.00000  Uiso   1.00
O132   O     0.32307   0.04268   0.28474   0.00000  Uiso   1.00
O133   O     0.17692   0.45733   0.71526   0.00000  Uiso   1.00
O134   O     0.04267   0.32308   0.71526   0.00000  Uiso   1.00
O135   O     0.25000   0.00000   0.25000   0.00000  Uiso   1.00
O136   O     0.45732   0.17693   0.28474   0.00000  Uiso   1.00
O137   O     0.17692   0.04268   0.71526   0.00000  Uiso   1.00
O138   O     0.32307   0.45733   0.28474   0.00000  Uiso   1.00
O139   O     0.45732   0.17693   0.71526   0.00000  Uiso   1.00
O140   O     0.04267   0.32308   0.28474   0.00000  Uiso   1.00
O141   O     0.32307   0.45733   0.71526   0.00000  Uiso   1.00
O142   O     0.17692   0.04268   0.28474   0.00000  Uiso   1.00
O143   O     0.29267   0.42693   0.78474   0.00000  Uiso   1.00
O144   O     0.20732   0.07308   0.21526   0.00000  Uiso   1.00
O145   O     0.42692   0.20733   0.78474   0.00000  Uiso   1.00
O146   O     0.25000   0.00000   0.75000   0.00000  Uiso   1.00
O147   O     0.07307   0.29268   0.21526   0.00000  Uiso   1.00
O148   O     0.20732   0.07308   0.78474   0.00000  Uiso   1.00
O149   O     0.29267   0.42693   0.21526   0.00000  Uiso   1.00
O150   O     0.07307   0.29268   0.78474   0.00000  Uiso   1.00
O151   O     0.42692   0.20733   0.21526   0.00000  Uiso   1.00
O152   O     0.29267   0.07308   0.21526   0.00000  Uiso   1.00
O153   O     0.20732   0.42693   0.78474   0.00000  Uiso   1.00
O154   O     0.42692   0.29268   0.21526   0.00000  Uiso   1.00
O155   O     0.07307   0.20733   0.78474   0.00000  Uiso   1.00
O156   O     0.20732   0.42693   0.21526   0.00000  Uiso   1.00
O157   O     0.00000   0.28036   0.38219   0.00000  Uiso   1.00
O158   O     0.29267   0.07308   0.78474   0.00000  Uiso   1.00
O159   O     0.07307   0.20733   0.21526   0.00000  Uiso   1.00
O160   O     0.42692   0.29268   0.78474   0.00000  Uiso   1.00
O161   O     0.00000   0.21965   0.61781   0.00000  Uiso   1.00
O162   O     0.28035   0.00000   0.38219   0.00000  Uiso   1.00
O163   O     0.21964   0.00000   0.61781   0.00000  Uiso   1.00
O164   O    -0.00000   0.21965   0.38219   0.00000  Uiso   1.00
Zn165  Zn    0.04333   0.25000   0.20067   0.00000  Uiso   1.00
Zn166  Zn    0.20667   0.00000   0.29933   0.00000  Uiso   1.00
Zn167  Zn   -0.00000   0.20667   0.70067   0.00000  Uiso   1.00
Zn168  Zn    0.00000   0.29333   0.29933   0.00000  Uiso   1.00
Zn169  Zn    0.20667   0.00000   0.70067   0.00000  Uiso   1.00
Zn170  Zn    0.29333   0.00000   0.29933   0.00000  Uiso   1.00
Zn171  Zn   -0.00000   0.29333   0.70067   0.00000  Uiso   1.00
Zn172  Zn    0.00000   0.20667   0.29933   0.00000  Uiso   1.00
Zn173  Zn    0.45667   0.25000   0.79933   0.00000  Uiso   1.00
Zn174  Zn    0.25000   0.45667   0.20067   0.00000  Uiso   1.00
Zn175  Zn    0.25000   0.04333   0.79933   0.00000  Uiso   1.00
Zn176  Zn    0.45667   0.25000   0.20067   0.00000  Uiso   1.00
Zn177  Zn    0.04333   0.25000   0.79933   0.00000  Uiso   1.00
Zn178  Zn    0.25000   0.04333   0.20067   0.00000  Uiso   1.00
Zn179  Zn    0.25000   0.45667   0.79933   0.00000  Uiso   1.00
Zn180  Zn    0.29333   0.00000   0.70067   0.00000  Uiso   1.00
C181   C     0.50000   0.25000   0.02666   0.00000  Uiso   1.00
C182   C     0.50000   0.25000   0.58991   0.00000  Uiso   1.00
C183   C     0.75000   0.00000   0.41009   0.00000  Uiso   1.00
C184   C     0.75000   0.00000   0.58991   0.00000  Uiso   1.00
C185   C     0.75000   0.00000   0.91009   0.00000  Uiso   1.00
C186   C     0.75000   0.00000   0.08991   0.00000  Uiso   1.00
C187   C     0.50000   0.25000   0.91009   0.00000  Uiso   1.00
C188   C     0.50000   0.25000   0.08991   0.00000  Uiso   1.00
C189   C     0.57002   0.17998   0.25000   0.00000  Uiso   1.00
C190   C     0.92998   0.32002   0.75000   0.00000  Uiso   1.00
C191   C     0.67998   0.42998   0.25000   0.00000  Uiso   1.00
C192   C     0.50000   0.25000   0.97334   0.00000  Uiso   1.00
C193   C     0.82002   0.07002   0.75000   0.00000  Uiso   1.00
C194   C     0.92998   0.32002   0.25000   0.00000  Uiso   1.00
C195   C     0.57002   0.17998   0.75000   0.00000  Uiso   1.00
C196   C     0.82002   0.07002   0.25000   0.00000  Uiso   1.00
C197   C     0.67998   0.42998   0.75000   0.00000  Uiso   1.00
C198   C     0.57002   0.32002   0.75000   0.00000  Uiso   1.00
C199   C     0.92998   0.17998   0.25000   0.00000  Uiso   1.00
C200   C     0.67998   0.07002   0.75000   0.00000  Uiso   1.00
C201   C     0.82002   0.42998   0.25000   0.00000  Uiso   1.00
C202   C     0.92998   0.17998   0.75000   0.00000  Uiso   1.00
C203   C     0.75000   0.00000   0.02666   0.00000  Uiso   1.00
C204   C     0.57002   0.32002   0.25000   0.00000  Uiso   1.00
C205   C     0.82002   0.42998   0.75000   0.00000  Uiso   1.00
C206   C     0.67998   0.07002   0.25000   0.00000  Uiso   1.00
C207   C     0.63487   0.33817   0.25783   0.00000  Uiso   1.00
C208   C     0.89191   0.13504   0.80392   0.00000  Uiso   1.00
C209   C     0.86473   0.39168   0.19599   0.00000  Uiso   1.00
C210   C     0.66183   0.13487   0.74216   0.00000  Uiso   1.00
C211   C     0.86513   0.16182   0.25791   0.00000  Uiso   1.00
C212   C     0.60809   0.36496   0.80392   0.00000  Uiso   1.00
C213   C     0.63506   0.10810   0.19607   0.00000  Uiso   1.00
C214   C     0.75000   0.00000   0.97334   0.00000  Uiso   1.00
C215   C     0.83817   0.36513   0.74216   0.00000  Uiso   1.00
C216   C     0.63487   0.16183   0.74216   0.00000  Uiso   1.00
C217   C     0.89168   0.36473   0.19599   0.00000  Uiso   1.00
C218   C     0.86496   0.10809   0.80392   0.00000  Uiso   1.00
C219   C     0.66183   0.36513   0.25783   0.00000  Uiso   1.00
C220   C     0.86513   0.33817   0.74216   0.00000  Uiso   1.00
C221   C     0.60810   0.13506   0.19607   0.00000  Uiso   1.00
C222   C     0.63504   0.39191   0.80392   0.00000  Uiso   1.00
C223   C     0.83818   0.13487   0.25791   0.00000  Uiso   1.00
C224   C     0.85809   0.11496   0.69608   0.00000  Uiso   1.00
C225   C     0.75000   0.00000   0.52666   0.00000  Uiso   1.00
C226   C     0.61513   0.41183   0.24217   0.00000  Uiso   1.00
C227   C     0.58817   0.11513   0.75784   0.00000  Uiso   1.00
C228   C     0.88527   0.35832   0.30401   0.00000  Uiso   1.00
C229   C     0.64191   0.38504   0.69608   0.00000  Uiso   1.00
C230   C     0.88487   0.08818   0.24210   0.00000  Uiso   1.00
C231   C     0.91183   0.38487   0.75784   0.00000  Uiso   1.00
C232   C     0.61494   0.14190   0.30393   0.00000  Uiso   1.00
C233   C     0.85832   0.38527   0.30401   0.00000  Uiso   1.00
C234   C     0.61513   0.08817   0.75784   0.00000  Uiso   1.00
C235   C     0.58817   0.38487   0.24217   0.00000  Uiso   1.00
C236   C     0.75000   0.00000   0.47334   0.00000  Uiso   1.00
C237   C     0.88504   0.14191   0.69608   0.00000  Uiso   1.00
C238   C     0.64190   0.11494   0.30393   0.00000  Uiso   1.00
C239   C     0.88487   0.41183   0.75784   0.00000  Uiso   1.00
C240   C     0.91182   0.11513   0.24210   0.00000  Uiso   1.00
C241   C     0.61496   0.35809   0.69608   0.00000  Uiso   1.00
C242   C     0.65191   0.40191   0.25000   0.00000  Uiso   1.00
C243   C     0.84809   0.09809   0.75000   0.00000  Uiso   1.00
C244   C     0.90191   0.34809   0.25000   0.00000  Uiso   1.00
C245   C     0.59809   0.15191   0.75000   0.00000  Uiso   1.00
C246   C     0.84809   0.09809   0.25000   0.00000  Uiso   1.00
C247   C     0.50000   0.25000   0.52666   0.00000  Uiso   1.00
C248   C     0.65191   0.40191   0.75000   0.00000  Uiso   1.00
C249   C     0.59809   0.15191   0.25000   0.00000  Uiso   1.00
C250   C     0.90191   0.34809   0.75000   0.00000  Uiso   1.00
C251   C     0.65191   0.09809   0.75000   0.00000  Uiso   1.00
C252   C     0.84809   0.40191   0.25000   0.00000  Uiso   1.00
C253   C     0.90191   0.15191   0.75000   0.00000  Uiso   1.00
C254   C     0.59809   0.34809   0.25000   0.00000  Uiso   1.00
C255   C     0.84809   0.40191   0.75000   0.00000  Uiso   1.00
C256   C     0.65191   0.09809   0.25000   0.00000  Uiso   1.00
C257   C     0.59809   0.34809   0.75000   0.00000  Uiso   1.00
C258   C     0.50000   0.25000   0.47334   0.00000  Uiso   1.00
C259   C     0.90191   0.15191   0.25000   0.00000  Uiso   1.00
C260   C     0.50000   0.25000   0.41009   0.00000  Uiso   1.00
Cl261  Cl    0.64728   0.29213   0.27053   0.00000  Uiso   1.00
Cl262  Cl    0.91376   0.35317   0.12836   0.00000  Uiso   1.00
Cl263  Cl    0.85367   0.08572   0.87140   0.00000  Uiso   1.00
Cl264  Cl    0.70787   0.35272   0.27052   0.00000  Uiso   1.00
Cl265  Cl    0.85272   0.29213   0.72945   0.00000  Uiso   1.00
Cl266  Cl    0.58575   0.14636   0.12858   0.00000  Uiso   1.00
Cl267  Cl    0.64633   0.41428   0.87140   0.00000  Uiso   1.00
Cl268  Cl    0.79214   0.14727   0.27068   0.00000  Uiso   1.00
Cl269  Cl    0.83572   0.10367   0.62860   0.00000  Uiso   1.00
Cl270  Cl    0.60272   0.45787   0.22947   0.00000  Uiso   1.00
Cl271  Cl    0.54213   0.10272   0.77055   0.00000  Uiso   1.00
Cl272  Cl    0.91428   0.14633   0.87140   0.00000  Uiso   1.00
Cl273  Cl    0.89683   0.33624   0.37164   0.00000  Uiso   1.00
Cl274  Cl    0.66428   0.39633   0.62860   0.00000  Uiso   1.00
Cl275  Cl    0.89727   0.04214   0.22932   0.00000  Uiso   1.00
Cl276  Cl    0.95787   0.39728   0.77055   0.00000  Uiso   1.00
Cl277  Cl    0.60364   0.16425   0.37142   0.00000  Uiso   1.00
Cl278  Cl    0.83624   0.39683   0.37164   0.00000  Uiso   1.00
Cl279  Cl    0.60272   0.04213   0.77055   0.00000  Uiso   1.00
Cl280  Cl    0.54213   0.39728   0.22948   0.00000  Uiso   1.00
Cl281  Cl    0.89633   0.16428   0.62860   0.00000  Uiso   1.00
Cl282  Cl    0.66425   0.10364   0.37142   0.00000  Uiso   1.00
Cl283  Cl    0.85317   0.41376   0.12836   0.00000  Uiso   1.00
Cl284  Cl    0.89728   0.45787   0.77055   0.00000  Uiso   1.00
Cl285  Cl    0.95786   0.10273   0.22932   0.00000  Uiso   1.00
Cl286  Cl    0.60367   0.33572   0.62860   0.00000  Uiso   1.00
Cl287  Cl    0.70787   0.14728   0.72945   0.00000  Uiso   1.00
Cl288  Cl    0.85273   0.20786   0.27068   0.00000  Uiso   1.00
Cl289  Cl    0.58572   0.35367   0.87140   0.00000  Uiso   1.00
Cl290  Cl    0.64636   0.08575   0.12858   0.00000  Uiso   1.00
Cl291  Cl    0.79213   0.35272   0.72945   0.00000  Uiso   1.00
Cl292  Cl    0.64728   0.20787   0.72945   0.00000  Uiso   1.00
O293   O     0.50000   0.25000   0.25000   0.00000  Uiso   1.00
O294   O     0.50000   0.28036   0.61781   0.00000  Uiso   1.00
O295   O     0.71964   0.00000   0.38219   0.00000  Uiso   1.00
O296   O     0.78035   0.00000   0.61781   0.00000  Uiso   1.00
O297   O     0.75000   0.03036   0.88219   0.00000  Uiso   1.00
O298   O     0.75000   0.46965   0.11781   0.00000  Uiso   1.00
O299   O     0.53035   0.25000   0.88219   0.00000  Uiso   1.00
O300   O     0.96964   0.25000   0.11781   0.00000  Uiso   1.00
O301   O     0.75000   0.46965   0.88219   0.00000  Uiso   1.00
O302   O     0.75000   0.03036   0.11781   0.00000  Uiso   1.00
O303   O     0.96964   0.25000   0.88219   0.00000  Uiso   1.00
O304   O     0.50000   0.25000   0.75000   0.00000  Uiso   1.00
O305   O     0.53035   0.25000   0.11781   0.00000  Uiso   1.00
O306   O     0.54267   0.17693   0.28474   0.00000  Uiso   1.00
O307   O     0.95732   0.32308   0.71526   0.00000  Uiso   1.00
O308   O     0.67692   0.45733   0.28474   0.00000  Uiso   1.00
O309   O     0.82307   0.04268   0.71526   0.00000  Uiso   1.00
O310   O     0.95732   0.32308   0.28474   0.00000  Uiso   1.00
O311   O     0.54267   0.17693   0.71526   0.00000  Uiso   1.00
O312   O     0.82307   0.04268   0.28474   0.00000  Uiso   1.00
O313   O     0.67692   0.45733   0.71526   0.00000  Uiso   1.00
O314   O     0.54267   0.32308   0.71526   0.00000  Uiso   1.00
O315   O     0.75000   0.00000   0.25000   0.00000  Uiso   1.00
O316   O     0.95732   0.17693   0.28474   0.00000  Uiso   1.00
O317   O     0.67692   0.04268   0.71526   0.00000  Uiso   1.00
O318   O     0.82307   0.45733   0.28474   0.00000  Uiso   1.00
O319   O     0.95732   0.17693   0.71526   0.00000  Uiso   1.00
O320   O     0.54267   0.32308   0.28474   0.00000  Uiso   1.00
O321   O     0.82307   0.45733   0.71526   0.00000  Uiso   1.00
O322   O     0.67692   0.04268   0.28474   0.00000  Uiso   1.00
O323   O     0.79267   0.42693   0.78474   0.00000  Uiso   1.00
O324   O     0.70732   0.07308   0.21526   0.00000  Uiso   1.00
O325   O     0.92692   0.20733   0.78474   0.00000  Uiso   1.00
O326   O     0.75000   0.00000   0.75000   0.00000  Uiso   1.00
O327   O     0.57307   0.29268   0.21526   0.00000  Uiso   1.00
O328   O     0.70732   0.07308   0.78474   0.00000  Uiso   1.00
O329   O     0.79267   0.42693   0.21526   0.00000  Uiso   1.00
O330   O     0.57307   0.29268   0.78474   0.00000  Uiso   1.00
O331   O     0.92692   0.20733   0.21526   0.00000  Uiso   1.00
O332   O     0.79267   0.07308   0.21526   0.00000  Uiso   1.00
O333   O     0.70732   0.42693   0.78474   0.00000  Uiso   1.00
O334   O     0.92692   0.29268   0.21526   0.00000  Uiso   1.00
O335   O     0.57307   0.20733   0.78474   0.00000  Uiso   1.00
O336   O     0.70732   0.42693   0.21526   0.00000  Uiso   1.00
O337   O     0.50000   0.28036   0.38219   0.00000  Uiso   1.00
O338   O     0.79267   0.07308   0.78474   0.00000  Uiso   1.00
O339   O     0.57307   0.20733   0.21526   0.00000  Uiso   1.00
O340   O     0.92692   0.29268   0.78474   0.00000  Uiso   1.00
O341   O     0.50000   0.21965   0.61781   0.00000  Uiso   1.00
O342   O     0.78035   0.00000   0.38219   0.00000  Uiso   1.00
O343   O     0.71964   0.00000   0.61781   0.00000  Uiso   1.00
O344   O     0.50000   0.21965   0.38219   0.00000  Uiso   1.00
Zn345  Zn    0.54333   0.25000   0.20067   0.00000  Uiso   1.00
Zn346  Zn    0.70667   0.00000   0.29933   0.00000  Uiso   1.00
Zn347  Zn    0.50000   0.20667   0.70067   0.00000  Uiso   1.00
Zn348  Zn    0.50000   0.29333   0.29933   0.00000  Uiso   1.00
Zn349  Zn    0.70667   0.00000   0.70067   0.00000  Uiso   1.00
Zn350  Zn    0.79333   0.00000   0.29933   0.00000  Uiso   1.00
Zn351  Zn    0.50000   0.29333   0.70067   0.00000  Uiso   1.00
Zn352  Zn    0.50000   0.20667   0.29933   0.00000  Uiso   1.00
Zn353  Zn    0.95667   0.25000   0.79933   0.00000  Uiso   1.00
Zn354  Zn    0.75000   0.45667   0.20067   0.00000  Uiso   1.00
Zn355  Zn    0.75000   0.04333   0.79933   0.00000  Uiso   1.00
Zn356  Zn    0.95667   0.25000   0.20067   0.00000  Uiso   1.00
Zn357  Zn    0.54333   0.25000   0.79933   0.00000  Uiso   1.00
Zn358  Zn    0.75000   0.04333   0.20067   0.00000  Uiso   1.00
Zn359  Zn    0.75000   0.45667   0.79933   0.00000  Uiso   1.00
Zn360  Zn    0.79333   0.00000   0.70067   0.00000  Uiso   1.00
C361   C    -0.00000   0.75000   0.02666   0.00000  Uiso   1.00
C362   C    -0.00000   0.75000   0.58991   0.00000  Uiso   1.00
C363   C     0.25000   0.50000   0.41009   0.00000  Uiso   1.00
C364   C     0.25000   0.50000   0.58991   0.00000  Uiso   1.00
C365   C     0.25000   0.50000   0.91009   0.00000  Uiso   1.00
C366   C     0.25000   0.50000   0.08991   0.00000  Uiso   1.00
C367   C    -0.00000   0.75000   0.91009   0.00000  Uiso   1.00
C368   C    -0.00000   0.75000   0.08991   0.00000  Uiso   1.00
C369   C     0.07002   0.67998   0.25000   0.00000  Uiso   1.00
C370   C     0.42998   0.82002   0.75000   0.00000  Uiso   1.00
C371   C     0.17998   0.92998   0.25000   0.00000  Uiso   1.00
C372   C    -0.00000   0.75000   0.97334   0.00000  Uiso   1.00
C373   C     0.32002   0.57002   0.75000   0.00000  Uiso   1.00
C374   C     0.42998   0.82002   0.25000   0.00000  Uiso   1.00
C375   C     0.07002   0.67998   0.75000   0.00000  Uiso   1.00
C376   C     0.32002   0.57002   0.25000   0.00000  Uiso   1.00
C377   C     0.17998   0.92998   0.75000   0.00000  Uiso   1.00
C378   C     0.07002   0.82002   0.75000   0.00000  Uiso   1.00
C379   C     0.42998   0.67998   0.25000   0.00000  Uiso   1.00
C380   C     0.17998   0.57002   0.75000   0.00000  Uiso   1.00
C381   C     0.32002   0.92998   0.25000   0.00000  Uiso   1.00
C382   C     0.42998   0.67998   0.75000   0.00000  Uiso   1.00
C383   C     0.25000   0.50000   0.02666   0.00000  Uiso   1.00
C384   C     0.07002   0.82002   0.25000   0.00000  Uiso   1.00
C385   C     0.32002   0.92998   0.75000   0.00000  Uiso   1.00
C386   C     0.17998   0.57002   0.25000   0.00000  Uiso   1.00
C387   C     0.13487   0.83817   0.25783   0.00000  Uiso   1.00
C388   C     0.39191   0.63504   0.80392   0.00000  Uiso   1.00
C389   C     0.36473   0.89168   0.19599   0.00000  Uiso   1.00
C390   C     0.16183   0.63487   0.74216   0.00000  Uiso   1.00
C391   C     0.36513   0.66182   0.25791   0.00000  Uiso   1.00
C392   C     0.10809   0.86496   0.80392   0.00000  Uiso   1.00
C393   C     0.13506   0.60810   0.19607   0.00000  Uiso   1.00
C394   C     0.25000   0.50000   0.97334   0.00000  Uiso   1.00
C395   C     0.33817   0.86513   0.74216   0.00000  Uiso   1.00
C396   C     0.13487   0.66183   0.74216   0.00000  Uiso   1.00
C397   C     0.39168   0.86473   0.19599   0.00000  Uiso   1.00
C398   C     0.36496   0.60809   0.80392   0.00000  Uiso   1.00
C399   C     0.16183   0.86513   0.25783   0.00000  Uiso   1.00
C400   C     0.36513   0.83817   0.74216   0.00000  Uiso   1.00
C401   C     0.10810   0.63506   0.19607   0.00000  Uiso   1.00
C402   C     0.13504   0.89191   0.80392   0.00000  Uiso   1.00
C403   C     0.33818   0.63487   0.25791   0.00000  Uiso   1.00
C404   C     0.35809   0.61496   0.69608   0.00000  Uiso   1.00
C405   C     0.25000   0.50000   0.52666   0.00000  Uiso   1.00
C406   C     0.11513   0.91183   0.24217   0.00000  Uiso   1.00
C407   C     0.08817   0.61513   0.75784   0.00000  Uiso   1.00
C408   C     0.38527   0.85832   0.30401   0.00000  Uiso   1.00
C409   C     0.14191   0.88504   0.69608   0.00000  Uiso   1.00
C410   C     0.38487   0.58818   0.24210   0.00000  Uiso   1.00
C411   C     0.41183   0.88487   0.75784   0.00000  Uiso   1.00
C412   C     0.11494   0.64190   0.30393   0.00000  Uiso   1.00
C413   C     0.35832   0.88527   0.30401   0.00000  Uiso   1.00
C414   C     0.11513   0.58817   0.75784   0.00000  Uiso   1.00
C415   C     0.08817   0.88487   0.24217   0.00000  Uiso   1.00
C416   C     0.25000   0.50000   0.47334   0.00000  Uiso   1.00
C417   C     0.38504   0.64191   0.69608   0.00000  Uiso   1.00
C418   C     0.14190   0.61494   0.30393   0.00000  Uiso   1.00
C419   C     0.38487   0.91183   0.75784   0.00000  Uiso   1.00
C420   C     0.41182   0.61513   0.24210   0.00000  Uiso   1.00
C421   C     0.11496   0.85809   0.69608   0.00000  Uiso   1.00
C422   C     0.15191   0.90191   0.25000   0.00000  Uiso   1.00
C423   C     0.34809   0.59809   0.75000   0.00000  Uiso   1.00
C424   C     0.40191   0.84809   0.25000   0.00000  Uiso   1.00
C425   C     0.09809   0.65191   0.75000   0.00000  Uiso   1.00
C426   C     0.34809   0.59809   0.25000   0.00000  Uiso   1.00
C427   C    -0.00000   0.75000   0.52666   0.00000  Uiso   1.00
C428   C     0.15191   0.90191   0.75000   0.00000  Uiso   1.00
C429   C     0.09809   0.65191   0.25000   0.00000  Uiso   1.00
C430   C     0.40191   0.84809   0.75000   0.00000  Uiso   1.00
C431   C     0.15191   0.59809   0.75000   0.00000  Uiso   1.00
C432   C     0.34809   0.90191   0.25000   0.00000  Uiso   1.00
C433   C     0.40191   0.65191   0.75000   0.00000  Uiso   1.00
C434   C     0.09809   0.84809   0.25000   0.00000  Uiso   1.00
C435   C     0.34809   0.90191   0.75000   0.00000  Uiso   1.00
C436   C     0.15191   0.59809   0.25000   0.00000  Uiso   1.00
C437   C     0.09809   0.84809   0.75000   0.00000  Uiso   1.00
C438   C    -0.00000   0.75000   0.47334   0.00000  Uiso   1.00
C439   C     0.40191   0.65191   0.25000   0.00000  Uiso   1.00
C440   C     0.00000   0.75000   0.41009   0.00000  Uiso   1.00
Cl441  Cl    0.14728   0.79213   0.27053   0.00000  Uiso   1.00
Cl442  Cl    0.41376   0.85317   0.12836   0.00000  Uiso   1.00
Cl443  Cl    0.35367   0.58572   0.87140   0.00000  Uiso   1.00
Cl444  Cl    0.20787   0.85272   0.27052   0.00000  Uiso   1.00
Cl445  Cl    0.35272   0.79213   0.72945   0.00000  Uiso   1.00
Cl446  Cl    0.08575   0.64636   0.12858   0.00000  Uiso   1.00
Cl447  Cl    0.14633   0.91428   0.87140   0.00000  Uiso   1.00
Cl448  Cl    0.29214   0.64727   0.27068   0.00000  Uiso   1.00
Cl449  Cl    0.33572   0.60367   0.62860   0.00000  Uiso   1.00
Cl450  Cl    0.10272   0.95787   0.22947   0.00000  Uiso   1.00
Cl451  Cl    0.04213   0.60272   0.77055   0.00000  Uiso   1.00
Cl452  Cl    0.41428   0.64633   0.87140   0.00000  Uiso   1.00
Cl453  Cl    0.39683   0.83624   0.37164   0.00000  Uiso   1.00
Cl454  Cl    0.16428   0.89633   0.62860   0.00000  Uiso   1.00
Cl455  Cl    0.39727   0.54214   0.22932   0.00000  Uiso   1.00
Cl456  Cl    0.45787   0.89728   0.77055   0.00000  Uiso   1.00
Cl457  Cl    0.10364   0.66425   0.37142   0.00000  Uiso   1.00
Cl458  Cl    0.33624   0.89683   0.37164   0.00000  Uiso   1.00
Cl459  Cl    0.10272   0.54213   0.77055   0.00000  Uiso   1.00
Cl460  Cl    0.04213   0.89728   0.22948   0.00000  Uiso   1.00
Cl461  Cl    0.39633   0.66428   0.62860   0.00000  Uiso   1.00
Cl462  Cl    0.16425   0.60364   0.37142   0.00000  Uiso   1.00
Cl463  Cl    0.35317   0.91376   0.12836   0.00000  Uiso   1.00
Cl464  Cl    0.39728   0.95787   0.77055   0.00000  Uiso   1.00
Cl465  Cl    0.45786   0.60273   0.22932   0.00000  Uiso   1.00
Cl466  Cl    0.10367   0.83572   0.62860   0.00000  Uiso   1.00
Cl467  Cl    0.20787   0.64728   0.72945   0.00000  Uiso   1.00
Cl468  Cl    0.35273   0.70786   0.27068   0.00000  Uiso   1.00
Cl469  Cl    0.08572   0.85367   0.87140   0.00000  Uiso   1.00
Cl470  Cl    0.14636   0.58575   0.12858   0.00000  Uiso   1.00
Cl471  Cl    0.29213   0.85272   0.72945   0.00000  Uiso   1.00
Cl472  Cl    0.14728   0.70787   0.72945   0.00000  Uiso   1.00
O473   O     0.00000   0.75000   0.25000   0.00000  Uiso   1.00
O474   O    -0.00000   0.78036   0.61781   0.00000  Uiso   1.00
O475   O     0.21964   0.50000   0.38219   0.00000  Uiso   1.00
O476   O     0.28035   0.50000   0.61781   0.00000  Uiso   1.00
O477   O     0.25000   0.53036   0.88219   0.00000  Uiso   1.00
O478   O     0.25000   0.96965   0.11781   0.00000  Uiso   1.00
O479   O     0.03035   0.75000   0.88219   0.00000  Uiso   1.00
O480   O     0.46964   0.75000   0.11781   0.00000  Uiso   1.00
O481   O     0.25000   0.96965   0.88219   0.00000  Uiso   1.00
O482   O     0.25000   0.53036   0.11781   0.00000  Uiso   1.00
O483   O     0.46964   0.75000   0.88219   0.00000  Uiso   1.00
O484   O    -0.00000   0.75000   0.75000   0.00000  Uiso   1.00
O485   O     0.03035   0.75000   0.11781   0.00000  Uiso   1.00
O486   O     0.04267   0.67693   0.28474   0.00000  Uiso   1.00
O487   O     0.45732   0.82308   0.71526   0.00000  Uiso   1.00
O488   O     0.17692   0.95733   0.28474   0.00000  Uiso   1.00
O489   O     0.32307   0.54268   0.71526   0.00000  Uiso   1.00
O490   O     0.45732   0.82308   0.28474   0.00000  Uiso   1.00
O491   O     0.04267   0.67693   0.71526   0.00000  Uiso   1.00
O492   O     0.32307   0.54268   0.28474   0.00000  Uiso   1.00
O493   O     0.17692   0.95733   0.71526   0.00000  Uiso   1.00
O494   O     0.04267   0.82308   0.71526   0.00000  Uiso   1.00
O495   O     0.25000   0.50000   0.25000   0.00000  Uiso   1.00
O496   O     0.45732   0.67693   0.28474   0.00000  Uiso   1.00
O497   O     0.17692   0.54268   0.71526   0.00000  Uiso   1.00
O498   O     0.32307   0.95733   0.28474   0.00000  Uiso   1.00
O499   O     0.45732   0.67693   0.71526   0.00000  Uiso   1.00
O500   O     0.04267   0.82308   0.28474   0.00000  Uiso   1.00
O501   O     0.32307   0.95733   0.71526   0.00000  Uiso   1.00
O502   O     0.17692   0.54268   0.28474   0.00000  Uiso   1.00
O503   O     0.29267   0.92693   0.78474   0.00000  Uiso   1.00
O504   O     0.20732   0.57308   0.21526   0.00000  Uiso   1.00
O505   O     0.42692   0.70733   0.78474   0.00000  Uiso   1.00
O506   O     0.25000   0.50000   0.75000   0.00000  Uiso   1.00
O507   O     0.07307   0.79268   0.21526   0.00000  Uiso   1.00
O508   O     0.20732   0.57308   0.78474   0.00000  Uiso   1.00
O509   O     0.29267   0.92693   0.21526   0.00000  Uiso   1.00
O510   O     0.07307   0.79268   0.78474   0.00000  Uiso   1.00
O511   O     0.42692   0.70733   0.21526   0.00000  Uiso   1.00
O512   O     0.29267   0.57308   0.21526   0.00000  Uiso   1.00
O513   O     0.20732   0.92693   0.78474   0.00000  Uiso   1.00
O514   O     0.42692   0.79268   0.21526   0.00000  Uiso   1.00
O515   O     0.07307   0.70733   0.78474   0.00000  Uiso   1.00
O516   O     0.20732   0.92693   0.21526   0.00000  Uiso   1.00
O517   O     0.00000   0.78036   0.38219   0.00000  Uiso   1.00
O518   O     0.29267   0.57308   0.78474   0.00000  Uiso   1.00
O519   O     0.07307   0.70733   0.21526   0.00000  Uiso   1.00
O520   O     0.42692   0.79268   0.78474   0.00000  Uiso   1.00
O521   O     0.00000   0.71965   0.61781   0.00000  Uiso   1.00
O522   O     0.28035   0.50000   0.38219   0.00000  Uiso   1.00
O523   O     0.21964   0.50000   0.61781   0.00000  Uiso   1.00
O524   O    -0.00000   0.71965   0.38219   0.00000  Uiso   1.00
Zn525  Zn    0.04333   0.75000   0.20067   0.00000  Uiso   1.00
Zn526  Zn    0.20667   0.50000   0.29933   0.00000  Uiso   1.00
Zn527  Zn   -0.00000   0.70667   0.70067   0.00000  Uiso   1.00
Zn528  Zn    0.00000   0.79333   0.29933   0.00000  Uiso   1.00
Zn529  Zn    0.20667   0.50000   0.70067   0.00000  Uiso   1.00
Zn530  Zn    0.29333   0.50000   0.29933   0.00000  Uiso   1.00
Zn531  Zn   -0.00000   0.79333   0.70067   0.00000  Uiso   1.00
Zn532  Zn    0.00000   0.70667   0.29933   0.00000  Uiso   1.00
Zn533  Zn    0.45667   0.75000   0.79933   0.00000  Uiso   1.00
Zn534  Zn    0.25000   0.95667   0.20067   0.00000  Uiso   1.00
Zn535  Zn    0.25000   0.54333   0.79933   0.00000  Uiso   1.00
Zn536  Zn    0.45667   0.75000   0.20067   0.00000  Uiso   1.00
Zn537  Zn    0.04333   0.75000   0.79933   0.00000  Uiso   1.00
Zn538  Zn    0.25000   0.54333   0.20067   0.00000  Uiso   1.00
Zn539  Zn    0.25000   0.95667   0.79933   0.00000  Uiso   1.00
Zn540  Zn    0.29333   0.50000   0.70067   0.00000  Uiso   1.00
C541   C     0.50000   0.75000   0.02666   0.00000  Uiso   1.00
C542   C     0.50000   0.75000   0.58991   0.00000  Uiso   1.00
C543   C     0.75000   0.50000   0.41009   0.00000  Uiso   1.00
C544   C     0.75000   0.50000   0.58991   0.00000  Uiso   1.00
C545   C     0.75000   0.50000   0.91009   0.00000  Uiso   1.00
C546   C     0.75000   0.50000   0.08991   0.00000  Uiso   1.00
C547   C     0.50000   0.75000   0.91009   0.00000  Uiso   1.00
C548   C     0.50000   0.75000   0.08991   0.00000  Uiso   1.00
C549   C     0.57002   0.67998   0.25000   0.00000  Uiso   1.00
C550   C     0.92998   0.82002   0.75000   0.00000  Uiso   1.00
C551   C     0.67998   0.92998   0.25000   0.00000  Uiso   1.00
C552   C     0.50000   0.75000   0.97334   0.00000  Uiso   1.00
C553   C     0.82002   0.57002   0.75000   0.00000  Uiso   1.00
C554   C     0.92998   0.82002   0.25000   0.00000  Uiso   1.00
C555   C     0.57002   0.67998   0.75000   0.00000  Uiso   1.00
C556   C     0.82002   0.57002   0.25000   0.00000  Uiso   1.00
C557   C     0.67998   0.92998   0.75000   0.00000  Uiso   1.00
C558   C     0.57002   0.82002   0.75000   0.00000  Uiso   1.00
C559   C     0.92998   0.67998   0.25000   0.00000  Uiso   1.00
C560   C     0.67998   0.57002   0.75000   0.00000  Uiso   1.00
C561   C     0.82002   0.92998   0.25000   0.00000  Uiso   1.00
C562   C     0.92998   0.67998   0.75000   0.00000  Uiso   1.00
C563   C     0.75000   0.50000   0.02666   0.00000  Uiso   1.00
C564   C     0.57002   0.82002   0.25000   0.00000  Uiso   1.00
C565   C     0.82002   0.92998   0.75000   0.00000  Uiso   1.00
C566   C     0.67998   0.57002   0.25000   0.00000  Uiso   1.00
C567   C     0.63487   0.83817   0.25783   0.00000  Uiso   1.00
C568   C     0.89191   0.63504   0.80392   0.00000  Uiso   1.00
C569   C     0.86473   0.89168   0.19599   0.00000  Uiso   1.00
C570   C     0.66183   0.63487   0.74216   0.00000  Uiso   1.00
C571   C     0.86513   0.66182   0.25791   0.00000  Uiso   1.00
C572   C     0.60809   0.86496   0.80392   0.00000  Uiso   1.00
C573   C     0.63506   0.60810   0.19607   0.00000  Uiso   1.00
C574   C     0.75000   0.50000   0.97334   0.00000  Uiso   1.00
C575   C     0.83817   0.86513   0.74216   0.00000  Uiso   1.00
C576   C     0.63487   0.66183   0.74216   0.00000  Uiso   1.00
C577   C     0.89168   0.86473   0.19599   0.00000  Uiso   1.00
C578   C     0.86496   0.60809   0.80392   0.00000  Uiso   1.00
C579   C     0.66183   0.86513   0.25783   0.00000  Uiso   1.00
C580   C     0.86513   0.83817   0.74216   0.00000  Uiso   1.00
C581   C     0.60810   0.63506   0.19607   0.00000  Uiso   1.00
C582   C     0.63504   0.89191   0.80392   0.00000  Uiso   1.00
C583   C     0.83818   0.63487   0.25791   0.00000  Uiso   1.00
C584   C     0.85809   0.61496   0.69608   0.00000  Uiso   1.00
C585   C     0.75000   0.50000   0.52666   0.00000  Uiso   1.00
C586   C     0.61513   0.91183   0.24217   0.00000  Uiso   1.00
C587   C     0.58817   0.61513   0.75784   0.00000  Uiso   1.00
C588   C     0.88527   0.85832   0.30401   0.00000  Uiso   1.00
C589   C     0.64191   0.88504   0.69608   0.00000  Uiso   1.00
C590   C     0.88487   0.58818   0.24210   0.00000  Uiso   1.00
C591   C     0.91183   0.88487   0.75784   0.00000  Uiso   1.00
C592   C     0.61494   0.64190   0.30393   0.00000  Uiso   1.00
C593   C     0.85832   0.88527   0.30401   0.00000  Uiso   1.00
C594   C     0.61513   0.58817   0.75784   0.00000  Uiso   1.00
C595   C     0.58817   0.88487   0.24217   0.00000  Uiso   1.00
C596   C     0.75000   0.50000   0.47334   0.00000  Uiso   1.00
C597   C     0.88504   0.64191   0.69608   0.00000  Uiso   1.00
C598   C     0.64190   0.61494   0.30393   0.00000  Uiso   1.00
C599   C     0.88487   0.91183   0.75784   0.00000  Uiso   1.00
C600   C     0.91182   0.61513   0.24210   0.00000  Uiso   1.00
C601   C     0.61496   0.85809   0.69608   0.00000  Uiso   1.00
C602   C     0.65191   0.90191   0.25000   0.00000  Uiso   1.00
C603   C     0.84809   0.59809   0.75000   0.00000  Uiso   1.00
C604   C     0.90191   0.84809   0.25000   0.00000  Uiso   1.00
C605   C     0.59809   0.65191   0.75000   0.00000  Uiso   1.00
C606   C     0.84809   0.59809   0.25000   0.00000  Uiso   1.00
C607   C     0.50000   0.75000   0.52666   0.00000  Uiso   1.00
C608   C     0.65191   0.90191   0.75000   0.00000  Uiso   1.00
C609   C     0.59809   0.65191   0.25000   0.00000  Uiso   1.00
C610   C     0.90191   0.84809   0.75000   0.00000  Uiso   1.00
C611   C     0.65191   0.59809   0.75000   0.00000  Uiso   1.00
C612   C     0.84809   0.90191   0.25000   0.00000  Uiso   1.00
C613   C     0.90191   0.65191   0.75000   0.00000  Uiso   1.00
C614   C     0.59809   0.84809   0.25000   0.00000  Uiso   1.00
C615   C     0.84809   0.90191   0.75000   0.00000  Uiso   1.00
C616   C     0.65191   0.59809   0.25000   0.00000  Uiso   1.00
C617   C     0.59809   0.84809   0.75000   0.00000  Uiso   1.00
C618   C     0.50000   0.75000   0.47334   0.00000  Uiso   1.00
C619   C     0.90191   0.65191   0.25000   0.00000  Uiso   1.00
C620   C     0.50000   0.75000   0.41009   0.00000  Uiso   1.00
Cl621  Cl    0.64728   0.79213   0.27053   0.00000  Uiso   1.00
Cl622  Cl    0.91376   0.85317   0.12836   0.00000  Uiso   1.00
Cl623  Cl    0.85367   0.58572   0.87140   0.00000  Uiso   1.00
Cl624  Cl    0.70787   0.85272   0.27052   0.00000  Uiso   1.00
Cl625  Cl    0.85272   0.79213   0.72945   0.00000  Uiso   1.00
Cl626  Cl    0.58575   0.64636   0.12858   0.00000  Uiso   1.00
Cl627  Cl    0.64633   0.91428   0.87140   0.00000  Uiso   1.00
Cl628  Cl    0.79214   0.64727   0.27068   0.00000  Uiso   1.00
Cl629  Cl    0.83572   0.60367   0.62860   0.00000  Uiso   1.00
Cl630  Cl    0.60272   0.95787   0.22947   0.00000  Uiso   1.00
Cl631  Cl    0.54213   0.60272   0.77055   0.00000  Uiso   1.00
Cl632  Cl    0.91428   0.64633   0.87140   0.00000  Uiso   1.00
Cl633  Cl    0.89683   0.83624   0.37164   0.00000  Uiso   1.00
Cl634  Cl    0.66428   0.89633   0.62860   0.00000  Uiso   1.00
Cl635  Cl    0.89727   0.54214   0.22932   0.00000  Uiso   1.00
Cl636  Cl    0.95787   0.89728   0.77055   0.00000  Uiso   1.00
Cl637  Cl    0.60364   0.66425   0.37142   0.00000  Uiso   1.00
Cl638  Cl    0.83624   0.89683   0.37164   0.00000  Uiso   1.00
Cl639  Cl    0.60272   0.54213   0.77055   0.00000  Uiso   1.00
Cl640  Cl    0.54213   0.89728   0.22948   0.00000  Uiso   1.00
Cl641  Cl    0.89633   0.66428   0.62860   0.00000  Uiso   1.00
Cl642  Cl    0.66425   0.60364   0.37142   0.00000  Uiso   1.00
Cl643  Cl    0.85317   0.91376   0.12836   0.00000  Uiso   1.00
Cl644  Cl    0.89728   0.95787   0.77055   0.00000  Uiso   1.00
Cl645  Cl    0.95786   0.60273   0.22932   0.00000  Uiso   1.00
Cl646  Cl    0.60367   0.83572   0.62860   0.00000  Uiso   1.00
Cl647  Cl    0.70787   0.64728   0.72945   0.00000  Uiso   1.00
Cl648  Cl    0.85273   0.70786   0.27068   0.00000  Uiso   1.00
Cl649  Cl    0.58572   0.85367   0.87140   0.00000  Uiso   1.00
Cl650  Cl    0.64636   0.58575   0.12858   0.00000  Uiso   1.00
Cl651  Cl    0.79213   0.85272   0.72945   0.00000  Uiso   1.00
Cl652  Cl    0.64728   0.70787   0.72945   0.00000  Uiso   1.00
O653   O     0.50000   0.75000   0.25000   0.00000  Uiso   1.00
O654   O     0.50000   0.78036   0.61781   0.00000  Uiso   1.00
O655   O     0.71964   0.50000   0.38219   0.00000  Uiso   1.00
O656   O     0.78035   0.50000   0.61781   0.00000  Uiso   1.00
O657   O     0.75000   0.53036   0.88219   0.00000  Uiso   1.00
O658   O     0.75000   0.96965   0.11781   0.00000  Uiso   1.00
O659   O     0.53035   0.75000   0.88219   0.00000  Uiso   1.00
O660   O     0.96964   0.75000   0.11781   0.00000  Uiso   1.00
O661   O     0.75000   0.96965   0.88219   0.00000  Uiso   1.00
O662   O     0.75000   0.53036   0.11781   0.00000  Uiso   1.00
O663   O     0.96964   0.75000   0.88219   0.00000  Uiso   1.00
O664   O     0.50000   0.75000   0.75000   0.00000  Uiso   1.00
O665   O     0.53035   0.75000   0.11781   0.00000  Uiso   1.00
O666   O     0.54267   0.67693   0.28474   0.00000  Uiso   1.00
O667   O     0.95732   0.82308   0.71526   0.00000  Uiso   1.00
O668   O     0.67692   0.95733   0.28474   0.00000  Uiso   1.00
O669   O     0.82307   0.54268   0.71526   0.00000  Uiso   1.00
O670   O     0.95732   0.82308   0.28474   0.00000  Uiso   1.00
O671   O     0.54267   0.67693   0.71526   0.00000  Uiso   1.00
O672   O     0.82307   0.54268   0.28474   0.00000  Uiso   1.00
O673   O     0.67692   0.95733   0.71526   0.00000  Uiso   1.00
O674   O     0.54267   0.82308   0.71526   0.00000  Uiso   1.00
O675   O     0.75000   0.50000   0.25000   0.00000  Uiso   1.00
O676   O     0.95732   0.67693   0.28474   0.00000  Uiso   1.00
O677   O     0.67692   0.54268   0.71526   0.00000  Uiso   1.00
O678   O     0.82307   0.95733   0.28474   0.00000  Uiso   1.00
O679   O     0.95732   0.67693   0.71526   0.00000  Uiso   1.00
O680   O     0.54267   0.82308   0.28474   0.00000  Uiso   1.00
O681   O     0.82307   0.95733   0.71526   0.00000  Uiso   1.00
O682   O     0.67692   0.54268   0.28474   0.00000  Uiso   1.00
O683   O     0.79267   0.92693   0.78474   0.00000  Uiso   1.00
O684   O     0.70732   0.57308   0.21526   0.00000  Uiso   1.00
O685   O     0.92692   0.70733   0.78474   0.00000  Uiso   1.00
O686   O     0.75000   0.50000   0.75000   0.00000  Uiso   1.00
O687   O     0.57307   0.79268   0.21526   0.00000  Uiso   1.00
O688   O     0.70732   0.57308   0.78474   0.00000  Uiso   1.00
O689   O     0.79267   0.92693   0.21526   0.00000  Uiso   1.00
O690   O     0.57307   0.79268   0.78474   0.00000  Uiso   1.00
O691   O     0.92692   0.70733   0.21526   0.00000  Uiso   1.00
O692   O     0.79267   0.57308   0.21526   0.00000  Uiso   1.00
O693   O     0.70732   0.92693   0.78474   0.00000  Uiso   1.00
O694   O     0.92692   0.79268   0.21526   0.00000  Uiso   1.00
O695   O     0.57307   0.70733   0.78474   0.00000  Uiso   1.00
O696   O     0.70732   0.92693   0.21526   0.00000  Uiso   1.00
O697   O     0.50000   0.78036   0.38219   0.00000  Uiso   1.00
O698   O     0.79267   0.57308   0.78474   0.00000  Uiso   1.00
O699   O     0.57307   0.70733   0.21526   0.00000  Uiso   1.00
O700   O     0.92692   0.79268   0.78474   0.00000  Uiso   1.00
O701   O     0.50000   0.71965   0.61781   0.00000  Uiso   1.00
O702   O     0.78035   0.50000   0.38219   0.00000  Uiso   1.00
O703   O     0.71964   0.50000   0.61781   0.00000  Uiso   1.00
O704   O     0.50000   0.71965   0.38219   0.00000  Uiso   1.00
Zn705  Zn    0.54333   0.75000   0.20067   0.00000  Uiso   1.00
Zn706  Zn    0.70667   0.50000   0.29933   0.00000  Uiso   1.00
Zn707  Zn    0.50000   0.70667   0.70067   0.00000  Uiso   1.00
Zn708  Zn    0.50000   0.79333   0.29933   0.00000  Uiso   1.00
Zn709  Zn    0.70667   0.50000   0.70067   0.00000  Uiso   1.00
Zn710  Zn    0.79333   0.50000   0.29933   0.00000  Uiso   1.00
Zn711  Zn    0.50000   0.79333   0.70067   0.00000  Uiso   1.00
Zn712  Zn    0.50000   0.70667   0.29933   0.00000  Uiso   1.00
Zn713  Zn    0.95667   0.75000   0.79933   0.00000  Uiso   1.00
Zn714  Zn    0.75000   0.95667   0.20067   0.00000  Uiso   1.00
Zn715  Zn    0.75000   0.54333   0.79933   0.00000  Uiso   1.00
Zn716  Zn    0.95667   0.75000   0.20067   0.00000  Uiso   1.00
Zn717  Zn    0.54333   0.75000   0.79933   0.00000  Uiso   1.00
Zn718  Zn    0.75000   0.54333   0.20067   0.00000  Uiso   1.00
Zn719  Zn    0.75000   0.95667   0.79933   0.00000  Uiso   1.00
Zn720  Zn    0.79333   0.50000   0.70067   0.00000  Uiso   1.00
loop_
_geom_bond_atom_site_label_1
_geom_bond_atom_site_label_2
_geom_bond_distance
_geom_bond_site_symmetry_2
_ccdc_geom_bond_type
C1     C8      1.419   .     S
C1     C12     1.196   1_554 S
C2     C67     1.419   .     S
C2     O114    1.277   .     A
C2     O161    1.277   .     S
C3     O162    1.277   .     A
C3     C56     1.419   .     S
C3     O115    1.277   .     A
C4     C45     1.419   .     S
C4     O116    1.277   .     S
C4     O163    1.277   .     S
C5     C34     1.419   .     S
C5     O117    1.277   .     A
C5     O481    1.277   1_545 S
C6     C23     1.419   .     S
C6     O478    1.277   1_545 A
C6     O122    1.277   .     S
C7     O303    1.277   1_455 A
C7     C12     1.419   .     S
C7     O119    1.277   .     S
C8     O300    1.277   1_455 A
C8     O125    1.277   .     S
C9     C69     1.455   .     S
C9     O159    1.275   .     A
C9     O126    1.275   .     A
C10    O160    1.275   .     A
C10    C70     1.455   .     S
C10    O127    1.275   .     A
C11    C62     1.455   .     S
C11    O156    1.275   .     A
C11    O128    1.275   .     A
C12    C1      1.196   1_556 S
C13    C63     1.455   .     S
C13    O158    1.275   .     A
C13    O129    1.275   .     A
C14    C64     1.455   .     S
C14    O130    1.275   .     A
C14    O154    1.275   .     A
C15    O131    1.275   .     A
C15    O155    1.275   .     A
C15    C65     1.455   .     S
C16    O152    1.275   .     A
C16    O132    1.275   .     A
C16    C66     1.455   .     S
C17    O153    1.275   .     A
C17    O133    1.275   .     A
C17    C68     1.455   .     S
C18    C77     1.455   .     S
C18    O150    1.275   .     A
C18    O134    1.275   .     A
C19    O136    1.275   .     A
C19    O151    1.275   .     A
C19    C79     1.455   .     S
C20    O148    1.275   .     A
C20    C71     1.455   .     S
C20    O137    1.275   .     A
C21    O138    1.275   .     A
C21    C72     1.455   .     S
C21    O149    1.275   .     A
C22    O139    1.275   .     A
C22    O145    1.275   .     A
C22    C73     1.455   .     S
C23    C34     1.196   1_554 S
C24    O140    1.275   .     A
C24    O147    1.275   .     A
C24    C74     1.455   .     S
C25    O143    1.275   .     A
C25    C75     1.455   .     S
C25    O141    1.275   .     A
C26    C76     1.455   .     S
C26    O144    1.275   .     A
C26    O142    1.275   .     A
C27    C74     1.408   .     A
C27    Cl81    1.771   .     S
C27    C39     1.397   .     A
C28    C73     1.407   .     A
C28    C38     1.397   .     A
C28    Cl92    1.771   .     S
C29    Cl103   1.771   .     S
C29    C72     1.408   .     A
C29    C37     1.397   .     A
C30    C71     1.408   .     A
C30    Cl107   1.771   .     S
C30    C36     1.397   .     A
C31    C43     1.397   .     A
C31    Cl108   1.771   .     S
C31    C79     1.408   .     A
C32    C77     1.407   .     A
C32    C42     1.397   .     A
C32    Cl109   1.771   .     S
C33    C76     1.407   .     A
C33    C41     1.397   .     A
C33    Cl110   1.771   .     S
C34    C23     1.196   1_556 S
C35    C75     1.408   .     A
C35    Cl111   1.771   .     S
C35    C40     1.397   .     A
C36    Cl112   1.771   .     S
C36    C65     1.408   .     A
C37    C64     1.408   .     A
C37    Cl82    1.771   .     S
C38    Cl83    1.771   .     S
C38    C63     1.407   .     A
C39    Cl84    1.771   .     S
C39    C62     1.408   .     A
C40    C70     1.408   .     A
C40    Cl85    1.771   .     S
C41    Cl86    1.771   .     S
C41    C69     1.407   .     A
C42    C68     1.407   .     A
C42    Cl87    1.771   .     S
C43    Cl88    1.771   .     S
C43    C66     1.408   .     A
C44    C63     1.407   .     A
C44    C57     1.397   .     A
C44    Cl89    1.771   .     S
C45    C56     1.196   .     S
C46    C62     1.408   .     A
C46    C55     1.397   .     A
C46    Cl90    1.771   .     S
C47    Cl91    1.771   .     S
C47    C54     1.397   .     A
C47    C65     1.408   .     A
C48    C64     1.408   .     A
C48    Cl93    1.771   .     S
C48    C53     1.397   .     A
C49    C68     1.407   .     A
C49    Cl94    1.771   .     S
C49    C61     1.397   .     A
C50    Cl95    1.771   .     S
C50    C66     1.408   .     A
C50    C60     1.397   .     A
C51    C70     1.408   .     A
C51    Cl96    1.771   .     S
C51    C59     1.397   .     A
C52    Cl97    1.771   .     S
C52    C69     1.407   .     A
C52    C58     1.398   .     A
C53    Cl98    1.771   .     S
C53    C72     1.408   .     A
C54    C71     1.408   .     A
C54    Cl99    1.771   .     S
C55    C74     1.408   .     A
C55    Cl100   1.771   .     S
C57    C73     1.407   .     A
C57    Cl101   1.771   .     S
C58    C76     1.407   .     A
C58    Cl102   1.771   .     S
C59    Cl104   1.771   .     S
C59    C75     1.408   .     A
C60    C79     1.408   .     A
C60    Cl105   1.771   .     S
C61    C77     1.407   .     A
C61    Cl106   1.771   .     S
C67    C78     1.196   .     T
C78    C80     1.419   .     S
C80    O157    1.277   .     A
C80    O164    1.277   .     S
O113   Zn168   1.936   .     S
O113   Zn165   1.936   .     S
O113   Zn172   1.936   .     S
O113   Zn356   1.936   1_455 S
O114   Zn171   1.919   .     S
O115   Zn166   1.919   .     S
O116   Zn180   1.919   .     S
O117   Zn175   1.919   .     S
O118   C366    1.277   .     A
O118   Zn174   1.919   .     S
O119   Zn177   1.919   .     S
O120   Zn176   1.919   .     S
O120   C188    1.277   .     A
O121   Zn179   1.919   .     S
O121   C365    1.277   .     S
O122   Zn178   1.919   .     S
O123   Zn173   1.919   .     S
O123   C187    1.277   .     A
O124   Zn353   1.936   1_455 S
O124   Zn167   1.936   .     S
O124   Zn171   1.936   .     S
O124   Zn177   1.936   .     S
O125   Zn165   1.919   .     S
O126   Zn172   1.935   .     S
O127   Zn351   1.935   .     S
O128   Zn526   1.935   .     S
O129   Zn180   1.935   .     S
O130   Zn348   1.935   .     S
O131   Zn167   1.935   .     S
O132   Zn170   1.935   .     S
O133   Zn529   1.935   .     S
O134   Zn171   1.935   .     S
O135   Zn170   1.936   .     S
O135   Zn178   1.936   .     S
O135   Zn166   1.936   .     S
O135   Zn534   1.936   1_545 S
O136   Zn352   1.935   .     S
O137   Zn169   1.935   .     S
O138   Zn530   1.935   .     S
O139   Zn347   1.935   .     S
O140   Zn168   1.935   .     S
O141   Zn540   1.935   .     S
O142   Zn166   1.935   .     S
O143   Zn179   1.935   .     S
O144   Zn178   1.935   .     S
O145   Zn173   1.935   .     S
O146   Zn175   1.936   .     S
O146   Zn169   1.936   .     S
O146   Zn539   1.936   1_545 S
O146   Zn180   1.936   .     S
O147   Zn165   1.935   .     S
O148   Zn175   1.935   .     S
O149   Zn174   1.935   .     S
O150   Zn177   1.935   .     S
O151   Zn176   1.935   .     S
O152   Zn178   1.935   .     S
O153   Zn179   1.935   .     S
O154   Zn176   1.935   .     S
O155   Zn177   1.935   .     S
O156   Zn174   1.935   .     S
O157   Zn168   1.919   .     S
O158   Zn175   1.935   .     S
O159   Zn165   1.935   .     S
O160   Zn173   1.935   .     S
O161   Zn167   1.919   .     S
O162   Zn170   1.919   .     S
O163   Zn169   1.919   .     S
O164   Zn172   1.919   .     S
Zn166  O488    1.935   1_545 S
Zn167  O319    1.935   1_455 S
Zn168  O310    1.935   1_455 S
Zn169  O493    1.935   1_545 S
Zn170  O498    1.935   1_545 S
Zn171  O307    1.935   1_455 S
Zn172  O316    1.935   1_455 S
Zn173  O304    1.936   .     S
Zn174  O495    1.936   .     S
Zn176  O293    1.936   .     S
Zn179  O506    1.936   .     S
Zn180  O501    1.935   1_545 S
C181   C188    1.419   .     S
C181   C192    1.196   1_554 S
C182   C247    1.419   .     S
C182   O294    1.277   .     A
C182   O341    1.277   .     S
C183   O342    1.277   .     A
C183   C236    1.419   .     S
C183   O295    1.277   .     A
C184   C225    1.419   .     S
C184   O296    1.277   .     S
C184   O343    1.277   .     S
C185   C214    1.419   .     S
C185   O297    1.277   .     A
C185   O661    1.277   1_545 S
C186   C203    1.419   .     S
C186   O658    1.277   1_545 A
C186   O302    1.277   .     S
C187   C192    1.419   .     S
C187   O299    1.277   .     S
C188   O305    1.277   .     S
C189   C249    1.455   .     S
C189   O339    1.275   .     A
C189   O306    1.275   .     A
C190   O340    1.275   .     A
C190   C250    1.455   .     S
C190   O307    1.275   .     A
C191   C242    1.455   .     S
C191   O336    1.275   .     A
C191   O308    1.275   .     A
C192   C181    1.196   1_556 S
C193   C243    1.455   .     S
C193   O338    1.275   .     A
C193   O309    1.275   .     A
C194   C244    1.455   .     S
C194   O310    1.275   .     A
C194   O334    1.275   .     A
C195   O311    1.275   .     A
C195   O335    1.275   .     A
C195   C245    1.455   .     S
C196   O332    1.275   .     A
C196   O312    1.275   .     A
C196   C246    1.455   .     S
C197   O333    1.275   .     A
C197   O313    1.275   .     A
C197   C248    1.455   .     S
C198   C257    1.455   .     S
C198   O330    1.275   .     A
C198   O314    1.275   .     A
C199   O316    1.275   .     A
C199   O331    1.275   .     A
C199   C259    1.455   .     S
C200   O328    1.275   .     A
C200   C251    1.455   .     S
C200   O317    1.275   .     A
C201   O318    1.275   .     A
C201   C252    1.455   .     S
C201   O329    1.275   .     A
C202   O319    1.275   .     A
C202   O325    1.275   .     A
C202   C253    1.455   .     S
C203   C214    1.196   1_554 S
C204   O320    1.275   .     A
C204   O327    1.275   .     A
C204   C254    1.455   .     S
C205   O323    1.275   .     A
C205   C255    1.455   .     S
C205   O321    1.275   .     A
C206   C256    1.455   .     S
C206   O324    1.275   .     A
C206   O322    1.275   .     A
C207   C254    1.408   .     A
C207   Cl261   1.771   .     S
C207   C219    1.397   .     A
C208   C253    1.407   .     A
C208   C218    1.397   .     A
C208   Cl272   1.771   .     S
C209   Cl283   1.771   .     S
C209   C252    1.408   .     A
C209   C217    1.397   .     A
C210   C251    1.408   .     A
C210   Cl287   1.771   .     S
C210   C216    1.397   .     A
C211   C223    1.397   .     A
C211   Cl288   1.771   .     S
C211   C259    1.408   .     A
C212   C257    1.407   .     A
C212   C222    1.397   .     A
C212   Cl289   1.771   .     S
C213   C256    1.407   .     A
C213   C221    1.397   .     A
C213   Cl290   1.771   .     S
C214   C203    1.196   1_556 S
C215   C255    1.408   .     A
C215   Cl291   1.771   .     S
C215   C220    1.397   .     A
C216   Cl292   1.771   .     S
C216   C245    1.408   .     A
C217   C244    1.408   .     A
C217   Cl262   1.771   .     S
C218   Cl263   1.771   .     S
C218   C243    1.407   .     A
C219   Cl264   1.771   .     S
C219   C242    1.408   .     A
C220   C250    1.408   .     A
C220   Cl265   1.771   .     S
C221   Cl266   1.771   .     S
C221   C249    1.407   .     A
C222   C248    1.407   .     A
C222   Cl267   1.771   .     S
C223   Cl268   1.771   .     S
C223   C246    1.408   .     A
C224   C243    1.407   .     A
C224   C237    1.397   .     A
C224   Cl269   1.771   .     S
C225   C236    1.196   .     S
C226   C242    1.408   .     A
C226   C235    1.397   .     A
C226   Cl270   1.771   .     S
C227   Cl271   1.771   .     S
C227   C234    1.397   .     A
C227   C245    1.408   .     A
C228   C244    1.408   .     A
C228   Cl273   1.771   .     S
C228   C233    1.397   .     A
C229   C248    1.407   .     A
C229   Cl274   1.771   .     S
C229   C241    1.397   .     A
C230   Cl275   1.771   .     S
C230   C246    1.408   .     A
C230   C240    1.397   .     A
C231   C250    1.408   .     A
C231   Cl276   1.771   .     S
C231   C239    1.397   .     A
C232   Cl277   1.771   .     S
C232   C249    1.407   .     A
C232   C238    1.398   .     A
C233   Cl278   1.771   .     S
C233   C252    1.408   .     A
C234   C251    1.408   .     A
C234   Cl279   1.771   .     S
C235   C254    1.408   .     A
C235   Cl280   1.771   .     S
C237   C253    1.407   .     A
C237   Cl281   1.771   .     S
C238   C256    1.407   .     A
C238   Cl282   1.771   .     S
C239   Cl284   1.771   .     S
C239   C255    1.408   .     A
C240   C259    1.408   .     A
C240   Cl285   1.771   .     S
C241   C257    1.407   .     A
C241   Cl286   1.771   .     S
C247   C258    1.196   .     T
C258   C260    1.419   .     S
C260   O337    1.277   .     A
C260   O344    1.277   .     S
O293   Zn348   1.936   .     S
O293   Zn345   1.936   .     S
O293   Zn352   1.936   .     S
O294   Zn351   1.919   .     S
O295   Zn346   1.919   .     S
O296   Zn360   1.919   .     S
O297   Zn355   1.919   .     S
O298   C546    1.277   .     A
O298   Zn354   1.919   .     S
O299   Zn357   1.919   .     S
O300   Zn356   1.919   .     S
O300   C8      1.277   1_655 A
O301   Zn359   1.919   .     S
O301   C545    1.277   .     S
O302   Zn358   1.919   .     S
O303   Zn353   1.919   .     S
O303   C7      1.277   1_655 A
O304   Zn347   1.936   .     S
O304   Zn351   1.936   .     S
O304   Zn357   1.936   .     S
O305   Zn345   1.919   .     S
O306   Zn352   1.935   .     S
O307   Zn171   1.935   1_655 S
O308   Zn706   1.935   .     S
O309   Zn360   1.935   .     S
O310   Zn168   1.935   1_655 S
O311   Zn347   1.935   .     S
O312   Zn350   1.935   .     S
O313   Zn709   1.935   .     S
O314   Zn351   1.935   .     S
O315   Zn350   1.936   .     S
O315   Zn358   1.936   .     S
O315   Zn346   1.936   .     S
O315   Zn714   1.936   1_545 S
O316   Zn172   1.935   1_655 S
O317   Zn349   1.935   .     S
O318   Zn710   1.935   .     S
O319   Zn167   1.935   1_655 S
O320   Zn348   1.935   .     S
O321   Zn720   1.935   .     S
O322   Zn346   1.935   .     S
O323   Zn359   1.935   .     S
O324   Zn358   1.935   .     S
O325   Zn353   1.935   .     S
O326   Zn355   1.936   .     S
O326   Zn349   1.936   .     S
O326   Zn719   1.936   1_545 S
O326   Zn360   1.936   .     S
O327   Zn345   1.935   .     S
O328   Zn355   1.935   .     S
O329   Zn354   1.935   .     S
O330   Zn357   1.935   .     S
O331   Zn356   1.935   .     S
O332   Zn358   1.935   .     S
O333   Zn359   1.935   .     S
O334   Zn356   1.935   .     S
O335   Zn357   1.935   .     S
O336   Zn354   1.935   .     S
O337   Zn348   1.919   .     S
O338   Zn355   1.935   .     S
O339   Zn345   1.935   .     S
O340   Zn353   1.935   .     S
O341   Zn347   1.919   .     S
O342   Zn350   1.919   .     S
O343   Zn349   1.919   .     S
O344   Zn352   1.919   .     S
Zn346  O668    1.935   1_545 S
Zn349  O673    1.935   1_545 S
Zn350  O678    1.935   1_545 S
Zn353  O124    1.936   1_655 S
Zn354  O675    1.936   .     S
Zn356  O113    1.936   1_655 S
Zn359  O686    1.936   .     S
Zn360  O681    1.935   1_545 S
C361   C368    1.419   .     S
C361   C372    1.196   1_554 S
C362   C427    1.419   .     S
C362   O474    1.277   .     A
C362   O521    1.277   .     S
C363   O522    1.277   .     A
C363   C416    1.419   .     S
C363   O475    1.277   .     A
C364   C405    1.419   .     S
C364   O476    1.277   .     S
C364   O523    1.277   .     S
C365   C394    1.419   .     S
C365   O477    1.277   .     A
C366   C383    1.419   .     S
C366   O482    1.277   .     S
C367   O663    1.277   1_455 A
C367   C372    1.419   .     S
C367   O479    1.277   .     S
C368   O660    1.277   1_455 A
C368   O485    1.277   .     S
C369   C429    1.455   .     S
C369   O519    1.275   .     A
C369   O486    1.275   .     A
C370   O520    1.275   .     A
C370   C430    1.455   .     S
C370   O487    1.275   .     A
C371   C422    1.455   .     S
C371   O516    1.275   .     A
C371   O488    1.275   .     A
C372   C361    1.196   1_556 S
C373   C423    1.455   .     S
C373   O518    1.275   .     A
C373   O489    1.275   .     A
C374   C424    1.455   .     S
C374   O490    1.275   .     A
C374   O514    1.275   .     A
C375   O491    1.275   .     A
C375   O515    1.275   .     A
C375   C425    1.455   .     S
C376   O512    1.275   .     A
C376   O492    1.275   .     A
C376   C426    1.455   .     S
C377   O513    1.275   .     A
C377   O493    1.275   .     A
C377   C428    1.455   .     S
C378   C437    1.455   .     S
C378   O510    1.275   .     A
C378   O494    1.275   .     A
C379   O496    1.275   .     A
C379   O511    1.275   .     A
C379   C439    1.455   .     S
C380   O508    1.275   .     A
C380   C431    1.455   .     S
C380   O497    1.275   .     A
C381   O498    1.275   .     A
C381   C432    1.455   .     S
C381   O509    1.275   .     A
C382   O499    1.275   .     A
C382   O505    1.275   .     A
C382   C433    1.455   .     S
C383   C394    1.196   1_554 S
C384   O500    1.275   .     A
C384   O507    1.275   .     A
C384   C434    1.455   .     S
C385   O503    1.275   .     A
C385   C435    1.455   .     S
C385   O501    1.275   .     A
C386   C436    1.455   .     S
C386   O504    1.275   .     A
C386   O502    1.275   .     A
C387   C434    1.408   .     A
C387   Cl441   1.771   .     S
C387   C399    1.397   .     A
C388   C433    1.407   .     A
C388   C398    1.397   .     A
C388   Cl452   1.771   .     S
C389   Cl463   1.771   .     S
C389   C432    1.408   .     A
C389   C397    1.397   .     A
C390   C431    1.408   .     A
C390   Cl467   1.771   .     S
C390   C396    1.397   .     A
C391   C403    1.397   .     A
C391   Cl468   1.771   .     S
C391   C439    1.408   .     A
C392   C437    1.407   .     A
C392   C402    1.397   .     A
C392   Cl469   1.771   .     S
C393   C436    1.407   .     A
C393   C401    1.397   .     A
C393   Cl470   1.771   .     S
C394   C383    1.196   1_556 S
C395   C435    1.408   .     A
C395   Cl471   1.771   .     S
C395   C400    1.397   .     A
C396   Cl472   1.771   .     S
C396   C425    1.408   .     A
C397   C424    1.408   .     A
C397   Cl442   1.771   .     S
C398   Cl443   1.771   .     S
C398   C423    1.407   .     A
C399   Cl444   1.771   .     S
C399   C422    1.408   .     A
C400   C430    1.408   .     A
C400   Cl445   1.771   .     S
C401   Cl446   1.771   .     S
C401   C429    1.407   .     A
C402   C428    1.407   .     A
C402   Cl447   1.771   .     S
C403   Cl448   1.771   .     S
C403   C426    1.408   .     A
C404   C423    1.407   .     A
C404   C417    1.397   .     A
C404   Cl449   1.771   .     S
C405   C416    1.196   .     S
C406   C422    1.408   .     A
C406   C415    1.397   .     A
C406   Cl450   1.771   .     S
C407   Cl451   1.771   .     S
C407   C414    1.397   .     A
C407   C425    1.408   .     A
C408   C424    1.408   .     A
C408   Cl453   1.771   .     S
C408   C413    1.397   .     A
C409   C428    1.407   .     A
C409   Cl454   1.771   .     S
C409   C421    1.397   .     A
C410   Cl455   1.771   .     S
C410   C426    1.408   .     A
C410   C420    1.397   .     A
C411   C430    1.408   .     A
C411   Cl456   1.771   .     S
C411   C419    1.397   .     A
C412   Cl457   1.771   .     S
C412   C429    1.407   .     A
C412   C418    1.398   .     A
C413   Cl458   1.771   .     S
C413   C432    1.408   .     A
C414   C431    1.408   .     A
C414   Cl459   1.771   .     S
C415   C434    1.408   .     A
C415   Cl460   1.771   .     S
C417   C433    1.407   .     A
C417   Cl461   1.771   .     S
C418   C436    1.407   .     A
C418   Cl462   1.771   .     S
C419   Cl464   1.771   .     S
C419   C435    1.408   .     A
C420   C439    1.408   .     A
C420   Cl465   1.771   .     S
C421   C437    1.407   .     A
C421   Cl466   1.771   .     S
C427   C438    1.196   .     T
C438   C440    1.419   .     S
C440   O517    1.277   .     A
C440   O524    1.277   .     S
O473   Zn528   1.936   .     S
O473   Zn525   1.936   .     S
O473   Zn532   1.936   .     S
O473   Zn716   1.936   1_455 S
O474   Zn531   1.919   .     S
O475   Zn526   1.919   .     S
O476   Zn540   1.919   .     S
O477   Zn535   1.919   .     S
O478   C6      1.277   1_565 A
O478   Zn534   1.919   .     S
O479   Zn537   1.919   .     S
O480   Zn536   1.919   .     S
O480   C548    1.277   .     A
O481   Zn539   1.919   .     S
O481   C5      1.277   1_565 S
O482   Zn538   1.919   .     S
O483   Zn533   1.919   .     S
O483   C547    1.277   .     A
O484   Zn713   1.936   1_455 S
O484   Zn527   1.936   .     S
O484   Zn531   1.936   .     S
O484   Zn537   1.936   .     S
O485   Zn525   1.919   .     S
O486   Zn532   1.935   .     S
O487   Zn711   1.935   .     S
O488   Zn166   1.935   1_565 S
O489   Zn540   1.935   .     S
O490   Zn708   1.935   .     S
O491   Zn527   1.935   .     S
O492   Zn530   1.935   .     S
O493   Zn169   1.935   1_565 S
O494   Zn531   1.935   .     S
O495   Zn530   1.936   .     S
O495   Zn538   1.936   .     S
O495   Zn526   1.936   .     S
O496   Zn712   1.935   .     S
O497   Zn529   1.935   .     S
O498   Zn170   1.935   1_565 S
O499   Zn707   1.935   .     S
O500   Zn528   1.935   .     S
O501   Zn180   1.935   1_565 S
O502   Zn526   1.935   .     S
O503   Zn539   1.935   .     S
O504   Zn538   1.935   .     S
O505   Zn533   1.935   .     S
O506   Zn535   1.936   .     S
O506   Zn529   1.936   .     S
O506   Zn540   1.936   .     S
O507   Zn525   1.935   .     S
O508   Zn535   1.935   .     S
O509   Zn534   1.935   .     S
O510   Zn537   1.935   .     S
O511   Zn536   1.935   .     S
O512   Zn538   1.935   .     S
O513   Zn539   1.935   .     S
O514   Zn536   1.935   .     S
O515   Zn537   1.935   .     S
O516   Zn534   1.935   .     S
O517   Zn528   1.919   .     S
O518   Zn535   1.935   .     S
O519   Zn525   1.935   .     S
O520   Zn533   1.935   .     S
O521   Zn527   1.919   .     S
O522   Zn530   1.919   .     S
O523   Zn529   1.919   .     S
O524   Zn532   1.919   .     S
Zn527  O679    1.935   1_455 S
Zn528  O670    1.935   1_455 S
Zn531  O667    1.935   1_455 S
Zn532  O676    1.935   1_455 S
Zn533  O664    1.936   .     S
Zn534  O135    1.936   1_565 S
Zn536  O653    1.936   .     S
Zn539  O146    1.936   1_565 S
C541   C548    1.419   .     S
C541   C552    1.196   1_554 S
C542   C607    1.419   .     S
C542   O654    1.277   .     A
C542   O701    1.277   .     S
C543   O702    1.277   .     A
C543   C596    1.419   .     S
C543   O655    1.277   .     A
C544   C585    1.419   .     S
C544   O656    1.277   .     S
C544   O703    1.277   .     S
C545   C574    1.419   .     S
C545   O657    1.277   .     A
C546   C563    1.419   .     S
C546   O662    1.277   .     S
C547   C552    1.419   .     S
C547   O659    1.277   .     S
C548   O665    1.277   .     S
C549   C609    1.455   .     S
C549   O699    1.275   .     A
C549   O666    1.275   .     A
C550   O700    1.275   .     A
C550   C610    1.455   .     S
C550   O667    1.275   .     A
C551   C602    1.455   .     S
C551   O696    1.275   .     A
C551   O668    1.275   .     A
C552   C541    1.196   1_556 S
C553   C603    1.455   .     S
C553   O698    1.275   .     A
C553   O669    1.275   .     A
C554   C604    1.455   .     S
C554   O670    1.275   .     A
C554   O694    1.275   .     A
C555   O671    1.275   .     A
C555   O695    1.275   .     A
C555   C605    1.455   .     S
C556   O692    1.275   .     A
C556   O672    1.275   .     A
C556   C606    1.455   .     S
C557   O693    1.275   .     A
C557   O673    1.275   .     A
C557   C608    1.455   .     S
C558   C617    1.455   .     S
C558   O690    1.275   .     A
C558   O674    1.275   .     A
C559   O676    1.275   .     A
C559   O691    1.275   .     A
C559   C619    1.455   .     S
C560   O688    1.275   .     A
C560   C611    1.455   .     S
C560   O677    1.275   .     A
C561   O678    1.275   .     A
C561   C612    1.455   .     S
C561   O689    1.275   .     A
C562   O679    1.275   .     A
C562   O685    1.275   .     A
C562   C613    1.455   .     S
C563   C574    1.196   1_554 S
C564   O680    1.275   .     A
C564   O687    1.275   .     A
C564   C614    1.455   .     S
C565   O683    1.275   .     A
C565   C615    1.455   .     S
C565   O681    1.275   .     A
C566   C616    1.455   .     S
C566   O684    1.275   .     A
C566   O682    1.275   .     A
C567   C614    1.408   .     A
C567   Cl621   1.771   .     S
C567   C579    1.397   .     A
C568   C613    1.407   .     A
C568   C578    1.397   .     A
C568   Cl632   1.771   .     S
C569   Cl643   1.771   .     S
C569   C612    1.408   .     A
C569   C577    1.397   .     A
C570   C611    1.408   .     A
C570   Cl647   1.771   .     S
C570   C576    1.397   .     A
C571   C583    1.397   .     A
C571   Cl648   1.771   .     S
C571   C619    1.408   .     A
C572   C617    1.407   .     A
C572   C582    1.397   .     A
C572   Cl649   1.771   .     S
C573   C616    1.407   .     A
C573   C581    1.397   .     A
C573   Cl650   1.771   .     S
C574   C563    1.196   1_556 S
C575   C615    1.408   .     A
C575   Cl651   1.771   .     S
C575   C580    1.397   .     A
C576   Cl652   1.771   .     S
C576   C605    1.408   .     A
C577   C604    1.408   .     A
C577   Cl622   1.771   .     S
C578   Cl623   1.771   .     S
C578   C603    1.407   .     A
C579   Cl624   1.771   .     S
C579   C602    1.408   .     A
C580   C610    1.408   .     A
C580   Cl625   1.771   .     S
C581   Cl626   1.771   .     S
C581   C609    1.407   .     A
C582   C608    1.407   .     A
C582   Cl627   1.771   .     S
C583   Cl628   1.771   .     S
C583   C606    1.408   .     A
C584   C603    1.407   .     A
C584   C597    1.397   .     A
C584   Cl629   1.771   .     S
C585   C596    1.196   .     S
C586   C602    1.408   .     A
C586   C595    1.397   .     A
C586   Cl630   1.771   .     S
C587   Cl631   1.771   .     S
C587   C594    1.397   .     A
C587   C605    1.408   .     A
C588   C604    1.408   .     A
C588   Cl633   1.771   .     S
C588   C593    1.397   .     A
C589   C608    1.407   .     A
C589   Cl634   1.771   .     S
C589   C601    1.397   .     A
C590   Cl635   1.771   .     S
C590   C606    1.408   .     A
C590   C600    1.397   .     A
C591   C610    1.408   .     A
C591   Cl636   1.771   .     S
C591   C599    1.397   .     A
C592   Cl637   1.771   .     S
C592   C609    1.407   .     A
C592   C598    1.398   .     A
C593   Cl638   1.771   .     S
C593   C612    1.408   .     A
C594   C611    1.408   .     A
C594   Cl639   1.771   .     S
C595   C614    1.408   .     A
C595   Cl640   1.771   .     S
C597   C613    1.407   .     A
C597   Cl641   1.771   .     S
C598   C616    1.407   .     A
C598   Cl642   1.771   .     S
C599   Cl644   1.771   .     S
C599   C615    1.408   .     A
C600   C619    1.408   .     A
C600   Cl645   1.771   .     S
C601   C617    1.407   .     A
C601   Cl646   1.771   .     S
C607   C618    1.196   .     T
C618   C620    1.419   .     S
C620   O697    1.277   .     A
C620   O704    1.277   .     S
O653   Zn708   1.936   .     S
O653   Zn705   1.936   .     S
O653   Zn712   1.936   .     S
O654   Zn711   1.919   .     S
O655   Zn706   1.919   .     S
O656   Zn720   1.919   .     S
O657   Zn715   1.919   .     S
O658   C186    1.277   1_565 A
O658   Zn714   1.919   .     S
O659   Zn717   1.919   .     S
O660   Zn716   1.919   .     S
O660   C368    1.277   1_655 A
O661   Zn719   1.919   .     S
O661   C185    1.277   1_565 S
O662   Zn718   1.919   .     S
O663   Zn713   1.919   .     S
O663   C367    1.277   1_655 A
O664   Zn707   1.936   .     S
O664   Zn711   1.936   .     S
O664   Zn717   1.936   .     S
O665   Zn705   1.919   .     S
O666   Zn712   1.935   .     S
O667   Zn531   1.935   1_655 S
O668   Zn346   1.935   1_565 S
O669   Zn720   1.935   .     S
O670   Zn528   1.935   1_655 S
O671   Zn707   1.935   .     S
O672   Zn710   1.935   .     S
O673   Zn349   1.935   1_565 S
O674   Zn711   1.935   .     S
O675   Zn710   1.936   .     S
O675   Zn718   1.936   .     S
O675   Zn706   1.936   .     S
O676   Zn532   1.935   1_655 S
O677   Zn709   1.935   .     S
O678   Zn350   1.935   1_565 S
O679   Zn527   1.935   1_655 S
O680   Zn708   1.935   .     S
O681   Zn360   1.935   1_565 S
O682   Zn706   1.935   .     S
O683   Zn719   1.935   .     S
O684   Zn718   1.935   .     S
O685   Zn713   1.935   .     S
O686   Zn715   1.936   .     S
O686   Zn709   1.936   .     S
O686   Zn720   1.936   .     S
O687   Zn705   1.935   .     S
O688   Zn715   1.935   .     S
O689   Zn714   1.935   .     S
O690   Zn717   1.935   .     S
O691   Zn716   1.935   .     S
O692   Zn718   1.935   .     S
O693   Zn719   1.935   .     S
O694   Zn716   1.935   .     S
O695   Zn717   1.935   .     S
O696   Zn714   1.935   .     S
O697   Zn708   1.919   .     S
O698   Zn715   1.935   .     S
O699   Zn705   1.935   .     S
O700   Zn713   1.935   .     S
O701   Zn707   1.919   .     S
O702   Zn710   1.919   .     S
O703   Zn709   1.919   .     S
O704   Zn712   1.919   .     S
Zn713  O484    1.936   1_655 S
Zn714  O315    1.936   1_565 S
Zn716  O473    1.936   1_655 S
Zn719  O326    1.936   1_565 S
