data_str_m2_o1_o17_pcu_sym.111
_audit_creation_date              2020-01-03
_audit_creation_method            'Materials Studio'
_symmetry_space_group_name_H-M    'P1'
_symmetry_Int_Tables_number       1
_symmetry_cell_setting            triclinic
loop_
_symmetry_equiv_pos_as_xyz
  x,y,z
_cell_length_a                    33.1902
_cell_length_b                    28.4965
_cell_length_c                    30.1532
_cell_angle_alpha                 90.0809
_cell_angle_beta                  90.3924
_cell_angle_gamma                 90.1064
loop_
_atom_site_label
_atom_site_type_symbol
_atom_site_fract_x
_atom_site_fract_y
_atom_site_fract_z
_atom_site_U_iso_or_equiv
_atom_site_adp_type
_atom_site_occupancy
C1     C     0.08730   0.16659   0.25059   0.00000  Uiso   1.00
C2     C     0.24595   0.16671   0.24935   0.00000  Uiso   1.00
C3     C     0.09325   0.18369   0.02275   0.00000  Uiso   1.00
C4     C     0.23976   0.18249   0.47701   0.00000  Uiso   1.00
C5     C     0.02079   0.12387   0.24481   0.00000  Uiso   1.00
C6     C     0.31221   0.20888   0.25740   0.00000  Uiso   1.00
C7     C     0.31195   0.12439   0.24181   0.00000  Uiso   1.00
C8     C     0.02102   0.20892   0.25701   0.00000  Uiso   1.00
C9     C     0.29056   0.16677   0.24903   0.00000  Uiso   1.00
C10    C     0.04255   0.16638   0.25129   0.00000  Uiso   1.00
C11    C     0.14737   0.02473   0.21720   0.00000  Uiso   1.00
C12    C     0.18602   0.30860   0.28275   0.00000  Uiso   1.00
C13    C     0.18623   0.02491   0.28262   0.00000  Uiso   1.00
C14    C     0.14763   0.30844   0.21704   0.00000  Uiso   1.00
C15    C     0.16699   0.16676   0.16448   0.00000  Uiso   1.00
C16    C     0.16672   0.16672   0.33551   0.00000  Uiso   1.00
C17    C     0.20245   0.16268   0.40758   0.00000  Uiso   1.00
C18    C     0.13054   0.16481   0.09269   0.00000  Uiso   1.00
C19    C     0.16619   0.16763   0.38390   0.00000  Uiso   1.00
C20    C     0.16718   0.16805   0.11604   0.00000  Uiso   1.00
C21    C     0.12965   0.17564   0.40595   0.00000  Uiso   1.00
C22    C     0.20356   0.17637   0.09381   0.00000  Uiso   1.00
C23    C     0.12961   0.18029   0.45277   0.00000  Uiso   1.00
C24    C     0.20342   0.18080   0.04699   0.00000  Uiso   1.00
C25    C     0.16645   0.17665   0.47649   0.00000  Uiso   1.00
C26    C     0.16648   0.17701   0.02341   0.00000  Uiso   1.00
C27    C     0.20341   0.17271   0.45357   0.00000  Uiso   1.00
C28    C     0.12950   0.17402   0.04647   0.00000  Uiso   1.00
C29    C     0.09441   0.19130   0.47676   0.00000  Uiso   1.00
C30    C     0.23864   0.19129   0.02278   0.00000  Uiso   1.00
Cu31   Cu    0.16667   0.21355   0.25000   0.00000  Uiso   1.00
Cu32   Cu    0.16667   0.11978   0.25000   0.00000  Uiso   1.00
H33    H     0.13170   0.04335   0.19107   0.00000  Uiso   1.00
H34    H     0.20137   0.28995   0.30905   0.00000  Uiso   1.00
H35    H     0.20206   0.04366   0.30865   0.00000  Uiso   1.00
H36    H     0.13227   0.28968   0.19068   0.00000  Uiso   1.00
N37    N     0.16667   0.28402   0.25000   0.00000  Uiso   1.00
N38    N     0.16667   0.04931   0.25000   0.00000  Uiso   1.00
O39    O     0.10655   0.20625   0.25000   0.00000  Uiso   1.00
O40    O     0.22679   0.12709   0.25001   0.00000  Uiso   1.00
O41    O     0.22679   0.20625   0.25001   0.00000  Uiso   1.00
O42    O     0.10655   0.12709   0.24999   0.00000  Uiso   1.00
O43    O     0.16666   0.20627   0.18513   0.00000  Uiso   1.00
O44    O     0.16668   0.12707   0.31487   0.00000  Uiso   1.00
O45    O     0.16668   0.20627   0.31487   0.00000  Uiso   1.00
O46    O     0.16666   0.12707   0.18513   0.00000  Uiso   1.00
C47    C     0.23762   0.14172   0.38484   0.00000  Uiso   1.00
O48    O     0.25095   0.10405   0.39754   0.00000  Uiso   1.00
O49    O     0.25592   0.16539   0.34984   0.00000  Uiso   1.00
H50    H     0.28080   0.14847   0.33897   0.00000  Uiso   1.00
C51    C     0.09450   0.14802   0.11666   0.00000  Uiso   1.00
O52    O     0.07999   0.10975   0.10744   0.00000  Uiso   1.00
O53    O     0.07669   0.17650   0.14870   0.00000  Uiso   1.00
H54    H     0.05041   0.16291   0.15977   0.00000  Uiso   1.00
C55    C     0.09148   0.17186   0.38016   0.00000  Uiso   1.00
O56    O     0.08404   0.20009   0.35081   0.00000  Uiso   1.00
O57    O     0.06419   0.13592   0.38967   0.00000  Uiso   1.00
H58    H     0.03952   0.13673   0.36964   0.00000  Uiso   1.00
C59    C     0.24179   0.17484   0.11958   0.00000  Uiso   1.00
O60    O     0.26575   0.14301   0.11331   0.00000  Uiso   1.00
O61    O     0.25070   0.21049   0.14995   0.00000  Uiso   1.00
H62    H     0.27858   0.20704   0.16342   0.00000  Uiso   1.00
C63    C     0.06256   0.21891   0.45643   0.00000  Uiso   1.00
N64    N     0.03758   0.24166   0.44037   0.00000  Uiso   1.00
C65    C     0.27041   0.21982   0.04232   0.00000  Uiso   1.00
N66    N     0.29530   0.24335   0.05771   0.00000  Uiso   1.00
C67    C     0.05440   0.19051   0.04552   0.00000  Uiso   1.00
O68    O     0.04897   0.22548   0.06822   0.00000  Uiso   1.00
O69    O     0.02471   0.15592   0.04176   0.00000  Uiso   1.00
H70    H     0.00125   0.16150   0.06234   0.00000  Uiso   1.00
C71    C     0.27869   0.18803   0.45406   0.00000  Uiso   1.00
O72    O     0.28379   0.22061   0.42836   0.00000  Uiso   1.00
O73    O     0.30888   0.15479   0.46121   0.00000  Uiso   1.00
H74    H     0.33247   0.15891   0.44053   0.00000  Uiso   1.00
C75    C     0.04136   0.07800   0.23877   0.00000  Uiso   1.00
O76    O     0.05439   0.05706   0.27112   0.00000  Uiso   1.00
O77    O     0.04489   0.05788   0.19670   0.00000  Uiso   1.00
H78    H     0.03188   0.07763   0.17267   0.00000  Uiso   1.00
C79    C     0.29178   0.25399   0.26723   0.00000  Uiso   1.00
O80    O     0.28026   0.27905   0.23681   0.00000  Uiso   1.00
O81    O     0.28738   0.26827   0.31127   0.00000  Uiso   1.00
H82    H     0.27472   0.30048   0.31388   0.00000  Uiso   1.00
C83    C     0.29093   0.07971   0.23058   0.00000  Uiso   1.00
O84    O     0.29105   0.04731   0.25712   0.00000  Uiso   1.00
O85    O     0.27113   0.07503   0.18976   0.00000  Uiso   1.00
H86    H     0.25769   0.04326   0.18614   0.00000  Uiso   1.00
C87    C     0.04158   0.25503   0.26020   0.00000  Uiso   1.00
O88    O     0.04916   0.27227   0.29646   0.00000  Uiso   1.00
O89    O     0.05107   0.27895   0.22130   0.00000  Uiso   1.00
H90    H     0.06480   0.30997   0.22752   0.00000  Uiso   1.00
C91    C     0.42063   0.16659   0.25059   0.00000  Uiso   1.00
C92    C     0.57928   0.16671   0.24935   0.00000  Uiso   1.00
C93    C     0.42658   0.18369   0.02275   0.00000  Uiso   1.00
C94    C     0.57309   0.18249   0.47701   0.00000  Uiso   1.00
C95    C     0.35413   0.12387   0.24481   0.00000  Uiso   1.00
C96    C     0.64554   0.20888   0.25740   0.00000  Uiso   1.00
C97    C     0.64528   0.12439   0.24181   0.00000  Uiso   1.00
C98    C     0.35436   0.20892   0.25701   0.00000  Uiso   1.00
C99    C     0.62389   0.16677   0.24903   0.00000  Uiso   1.00
C100   C     0.37588   0.16638   0.25129   0.00000  Uiso   1.00
C101   C     0.48070   0.02473   0.21720   0.00000  Uiso   1.00
C102   C     0.51935   0.30860   0.28275   0.00000  Uiso   1.00
C103   C     0.51957   0.02491   0.28262   0.00000  Uiso   1.00
C104   C     0.48096   0.30844   0.21704   0.00000  Uiso   1.00
C105   C     0.50032   0.16676   0.16448   0.00000  Uiso   1.00
C106   C     0.50006   0.16672   0.33551   0.00000  Uiso   1.00
C107   C     0.53579   0.16268   0.40758   0.00000  Uiso   1.00
C108   C     0.46387   0.16481   0.09269   0.00000  Uiso   1.00
C109   C     0.49952   0.16763   0.38390   0.00000  Uiso   1.00
C110   C     0.50051   0.16805   0.11604   0.00000  Uiso   1.00
C111   C     0.46299   0.17564   0.40595   0.00000  Uiso   1.00
C112   C     0.53689   0.17637   0.09381   0.00000  Uiso   1.00
C113   C     0.46294   0.18029   0.45277   0.00000  Uiso   1.00
C114   C     0.53676   0.18080   0.04699   0.00000  Uiso   1.00
C115   C     0.49979   0.17665   0.47649   0.00000  Uiso   1.00
C116   C     0.49982   0.17701   0.02341   0.00000  Uiso   1.00
C117   C     0.53675   0.17271   0.45357   0.00000  Uiso   1.00
C118   C     0.46284   0.17402   0.04647   0.00000  Uiso   1.00
C119   C     0.42775   0.19130   0.47676   0.00000  Uiso   1.00
C120   C     0.57198   0.19129   0.02278   0.00000  Uiso   1.00
Cu121  Cu    0.50000   0.21355   0.25000   0.00000  Uiso   1.00
Cu122  Cu    0.50000   0.11978   0.25000   0.00000  Uiso   1.00
H123   H     0.46503   0.04335   0.19107   0.00000  Uiso   1.00
H124   H     0.53471   0.28995   0.30905   0.00000  Uiso   1.00
H125   H     0.53539   0.04366   0.30865   0.00000  Uiso   1.00
H126   H     0.46561   0.28968   0.19068   0.00000  Uiso   1.00
N127   N     0.50000   0.28402   0.25000   0.00000  Uiso   1.00
N128   N     0.50000   0.04931   0.25000   0.00000  Uiso   1.00
O129   O     0.43988   0.20625   0.25000   0.00000  Uiso   1.00
O130   O     0.56012   0.12709   0.25001   0.00000  Uiso   1.00
O131   O     0.56012   0.20625   0.25001   0.00000  Uiso   1.00
O132   O     0.43988   0.12709   0.24999   0.00000  Uiso   1.00
O133   O     0.49999   0.20627   0.18513   0.00000  Uiso   1.00
O134   O     0.50001   0.12707   0.31487   0.00000  Uiso   1.00
O135   O     0.50001   0.20627   0.31487   0.00000  Uiso   1.00
O136   O     0.49999   0.12707   0.18513   0.00000  Uiso   1.00
C137   C     0.57095   0.14172   0.38484   0.00000  Uiso   1.00
O138   O     0.58428   0.10405   0.39754   0.00000  Uiso   1.00
O139   O     0.58925   0.16539   0.34984   0.00000  Uiso   1.00
H140   H     0.61414   0.14847   0.33897   0.00000  Uiso   1.00
C141   C     0.42784   0.14802   0.11666   0.00000  Uiso   1.00
O142   O     0.41332   0.10975   0.10744   0.00000  Uiso   1.00
O143   O     0.41002   0.17650   0.14870   0.00000  Uiso   1.00
H144   H     0.38374   0.16291   0.15977   0.00000  Uiso   1.00
C145   C     0.42482   0.17186   0.38016   0.00000  Uiso   1.00
O146   O     0.41738   0.20009   0.35081   0.00000  Uiso   1.00
O147   O     0.39752   0.13592   0.38967   0.00000  Uiso   1.00
H148   H     0.37286   0.13673   0.36964   0.00000  Uiso   1.00
C149   C     0.57513   0.17484   0.11958   0.00000  Uiso   1.00
O150   O     0.59909   0.14301   0.11331   0.00000  Uiso   1.00
O151   O     0.58403   0.21049   0.14995   0.00000  Uiso   1.00
H152   H     0.61192   0.20704   0.16342   0.00000  Uiso   1.00
C153   C     0.39589   0.21891   0.45643   0.00000  Uiso   1.00
N154   N     0.37092   0.24166   0.44037   0.00000  Uiso   1.00
C155   C     0.60375   0.21982   0.04232   0.00000  Uiso   1.00
N156   N     0.62863   0.24335   0.05771   0.00000  Uiso   1.00
C157   C     0.38774   0.19051   0.04552   0.00000  Uiso   1.00
O158   O     0.38230   0.22548   0.06822   0.00000  Uiso   1.00
O159   O     0.35804   0.15592   0.04176   0.00000  Uiso   1.00
H160   H     0.33458   0.16150   0.06234   0.00000  Uiso   1.00
C161   C     0.61202   0.18803   0.45406   0.00000  Uiso   1.00
O162   O     0.61713   0.22061   0.42836   0.00000  Uiso   1.00
O163   O     0.64221   0.15479   0.46121   0.00000  Uiso   1.00
H164   H     0.66580   0.15891   0.44053   0.00000  Uiso   1.00
C165   C     0.37469   0.07800   0.23877   0.00000  Uiso   1.00
O166   O     0.38772   0.05706   0.27112   0.00000  Uiso   1.00
O167   O     0.37822   0.05788   0.19670   0.00000  Uiso   1.00
H168   H     0.36522   0.07763   0.17267   0.00000  Uiso   1.00
C169   C     0.62512   0.25399   0.26723   0.00000  Uiso   1.00
O170   O     0.61360   0.27905   0.23681   0.00000  Uiso   1.00
O171   O     0.62071   0.26827   0.31127   0.00000  Uiso   1.00
H172   H     0.60805   0.30048   0.31388   0.00000  Uiso   1.00
C173   C     0.62426   0.07971   0.23058   0.00000  Uiso   1.00
O174   O     0.62438   0.04731   0.25712   0.00000  Uiso   1.00
O175   O     0.60446   0.07503   0.18976   0.00000  Uiso   1.00
H176   H     0.59102   0.04326   0.18614   0.00000  Uiso   1.00
C177   C     0.37491   0.25503   0.26020   0.00000  Uiso   1.00
O178   O     0.38249   0.27227   0.29646   0.00000  Uiso   1.00
O179   O     0.38441   0.27895   0.22130   0.00000  Uiso   1.00
H180   H     0.39813   0.30997   0.22752   0.00000  Uiso   1.00
C181   C     0.75397   0.16659   0.25059   0.00000  Uiso   1.00
C182   C     0.91262   0.16671   0.24935   0.00000  Uiso   1.00
C183   C     0.75991   0.18369   0.02275   0.00000  Uiso   1.00
C184   C     0.90642   0.18249   0.47701   0.00000  Uiso   1.00
C185   C     0.68746   0.12387   0.24481   0.00000  Uiso   1.00
C186   C     0.97888   0.20888   0.25740   0.00000  Uiso   1.00
C187   C     0.97862   0.12439   0.24181   0.00000  Uiso   1.00
C188   C     0.68769   0.20892   0.25701   0.00000  Uiso   1.00
C189   C     0.95722   0.16677   0.24903   0.00000  Uiso   1.00
C190   C     0.70922   0.16638   0.25129   0.00000  Uiso   1.00
C191   C     0.81404   0.02473   0.21720   0.00000  Uiso   1.00
C192   C     0.85268   0.30860   0.28275   0.00000  Uiso   1.00
C193   C     0.85290   0.02491   0.28262   0.00000  Uiso   1.00
C194   C     0.81430   0.30844   0.21704   0.00000  Uiso   1.00
C195   C     0.83366   0.16676   0.16448   0.00000  Uiso   1.00
C196   C     0.83339   0.16672   0.33551   0.00000  Uiso   1.00
C197   C     0.86912   0.16268   0.40758   0.00000  Uiso   1.00
C198   C     0.79720   0.16481   0.09269   0.00000  Uiso   1.00
C199   C     0.83286   0.16763   0.38390   0.00000  Uiso   1.00
C200   C     0.83385   0.16805   0.11604   0.00000  Uiso   1.00
C201   C     0.79632   0.17564   0.40595   0.00000  Uiso   1.00
C202   C     0.87022   0.17637   0.09381   0.00000  Uiso   1.00
C203   C     0.79628   0.18029   0.45277   0.00000  Uiso   1.00
C204   C     0.87009   0.18080   0.04699   0.00000  Uiso   1.00
C205   C     0.83312   0.17665   0.47649   0.00000  Uiso   1.00
C206   C     0.83315   0.17701   0.02341   0.00000  Uiso   1.00
C207   C     0.87008   0.17271   0.45357   0.00000  Uiso   1.00
C208   C     0.79617   0.17402   0.04647   0.00000  Uiso   1.00
C209   C     0.76108   0.19130   0.47676   0.00000  Uiso   1.00
C210   C     0.90531   0.19129   0.02278   0.00000  Uiso   1.00
Cu211  Cu    0.83333   0.21355   0.25000   0.00000  Uiso   1.00
Cu212  Cu    0.83333   0.11978   0.25000   0.00000  Uiso   1.00
H213   H     0.79837   0.04335   0.19107   0.00000  Uiso   1.00
H214   H     0.86804   0.28995   0.30905   0.00000  Uiso   1.00
H215   H     0.86872   0.04366   0.30865   0.00000  Uiso   1.00
H216   H     0.79894   0.28968   0.19068   0.00000  Uiso   1.00
N217   N     0.83333   0.28402   0.25000   0.00000  Uiso   1.00
N218   N     0.83333   0.04931   0.25000   0.00000  Uiso   1.00
O219   O     0.77321   0.20625   0.25000   0.00000  Uiso   1.00
O220   O     0.89345   0.12709   0.25001   0.00000  Uiso   1.00
O221   O     0.89345   0.20625   0.25001   0.00000  Uiso   1.00
O222   O     0.77321   0.12709   0.24999   0.00000  Uiso   1.00
O223   O     0.83332   0.20627   0.18513   0.00000  Uiso   1.00
O224   O     0.83334   0.12707   0.31487   0.00000  Uiso   1.00
O225   O     0.83334   0.20627   0.31487   0.00000  Uiso   1.00
O226   O     0.83332   0.12707   0.18513   0.00000  Uiso   1.00
C227   C     0.90428   0.14172   0.38484   0.00000  Uiso   1.00
O228   O     0.91761   0.10405   0.39754   0.00000  Uiso   1.00
O229   O     0.92258   0.16539   0.34984   0.00000  Uiso   1.00
H230   H     0.94747   0.14847   0.33897   0.00000  Uiso   1.00
C231   C     0.76117   0.14802   0.11666   0.00000  Uiso   1.00
O232   O     0.74666   0.10975   0.10744   0.00000  Uiso   1.00
O233   O     0.74336   0.17650   0.14870   0.00000  Uiso   1.00
H234   H     0.71707   0.16291   0.15977   0.00000  Uiso   1.00
C235   C     0.75815   0.17186   0.38016   0.00000  Uiso   1.00
O236   O     0.75071   0.20009   0.35081   0.00000  Uiso   1.00
O237   O     0.73085   0.13592   0.38967   0.00000  Uiso   1.00
H238   H     0.70619   0.13673   0.36964   0.00000  Uiso   1.00
C239   C     0.90846   0.17484   0.11958   0.00000  Uiso   1.00
O240   O     0.93242   0.14301   0.11331   0.00000  Uiso   1.00
O241   O     0.91736   0.21049   0.14995   0.00000  Uiso   1.00
H242   H     0.94525   0.20704   0.16342   0.00000  Uiso   1.00
C243   C     0.72922   0.21891   0.45643   0.00000  Uiso   1.00
N244   N     0.70425   0.24166   0.44037   0.00000  Uiso   1.00
C245   C     0.93708   0.21982   0.04232   0.00000  Uiso   1.00
N246   N     0.96197   0.24335   0.05771   0.00000  Uiso   1.00
C247   C     0.72107   0.19051   0.04552   0.00000  Uiso   1.00
O248   O     0.71564   0.22548   0.06822   0.00000  Uiso   1.00
O249   O     0.69138   0.15592   0.04176   0.00000  Uiso   1.00
H250   H     0.66792   0.16150   0.06234   0.00000  Uiso   1.00
C251   C     0.94536   0.18803   0.45406   0.00000  Uiso   1.00
O252   O     0.95046   0.22061   0.42836   0.00000  Uiso   1.00
O253   O     0.97555   0.15479   0.46121   0.00000  Uiso   1.00
H254   H     0.99914   0.15891   0.44053   0.00000  Uiso   1.00
C255   C     0.70803   0.07800   0.23877   0.00000  Uiso   1.00
O256   O     0.72105   0.05706   0.27112   0.00000  Uiso   1.00
O257   O     0.71155   0.05788   0.19670   0.00000  Uiso   1.00
H258   H     0.69855   0.07763   0.17267   0.00000  Uiso   1.00
C259   C     0.95845   0.25399   0.26723   0.00000  Uiso   1.00
O260   O     0.94693   0.27905   0.23681   0.00000  Uiso   1.00
O261   O     0.95405   0.26827   0.31127   0.00000  Uiso   1.00
H262   H     0.94138   0.30048   0.31388   0.00000  Uiso   1.00
C263   C     0.95759   0.07971   0.23058   0.00000  Uiso   1.00
O264   O     0.95772   0.04731   0.25712   0.00000  Uiso   1.00
O265   O     0.93780   0.07503   0.18976   0.00000  Uiso   1.00
H266   H     0.92436   0.04326   0.18614   0.00000  Uiso   1.00
C267   C     0.70825   0.25503   0.26020   0.00000  Uiso   1.00
O268   O     0.71582   0.27227   0.29646   0.00000  Uiso   1.00
O269   O     0.71774   0.27895   0.22130   0.00000  Uiso   1.00
H270   H     0.73146   0.30997   0.22752   0.00000  Uiso   1.00
C271   C     0.08730   0.49992   0.25059   0.00000  Uiso   1.00
C272   C     0.24595   0.50004   0.24935   0.00000  Uiso   1.00
C273   C     0.09325   0.51703   0.02275   0.00000  Uiso   1.00
C274   C     0.23976   0.51582   0.47701   0.00000  Uiso   1.00
C275   C     0.02079   0.45720   0.24481   0.00000  Uiso   1.00
C276   C     0.31221   0.54221   0.25740   0.00000  Uiso   1.00
C277   C     0.31195   0.45772   0.24181   0.00000  Uiso   1.00
C278   C     0.02102   0.54226   0.25701   0.00000  Uiso   1.00
C279   C     0.29056   0.50010   0.24903   0.00000  Uiso   1.00
C280   C     0.04255   0.49971   0.25129   0.00000  Uiso   1.00
C281   C     0.14737   0.35807   0.21720   0.00000  Uiso   1.00
C282   C     0.18602   0.64194   0.28275   0.00000  Uiso   1.00
C283   C     0.18623   0.35824   0.28262   0.00000  Uiso   1.00
C284   C     0.14763   0.64177   0.21704   0.00000  Uiso   1.00
C285   C     0.16699   0.50010   0.16448   0.00000  Uiso   1.00
C286   C     0.16672   0.50006   0.33551   0.00000  Uiso   1.00
C287   C     0.20245   0.49601   0.40758   0.00000  Uiso   1.00
C288   C     0.13054   0.49814   0.09269   0.00000  Uiso   1.00
C289   C     0.16619   0.50096   0.38390   0.00000  Uiso   1.00
C290   C     0.16718   0.50138   0.11604   0.00000  Uiso   1.00
C291   C     0.12965   0.50897   0.40595   0.00000  Uiso   1.00
C292   C     0.20356   0.50970   0.09381   0.00000  Uiso   1.00
C293   C     0.12961   0.51363   0.45277   0.00000  Uiso   1.00
C294   C     0.20342   0.51413   0.04699   0.00000  Uiso   1.00
C295   C     0.16645   0.50999   0.47649   0.00000  Uiso   1.00
C296   C     0.16648   0.51034   0.02341   0.00000  Uiso   1.00
C297   C     0.20341   0.50604   0.45357   0.00000  Uiso   1.00
C298   C     0.12950   0.50735   0.04647   0.00000  Uiso   1.00
C299   C     0.09441   0.52464   0.47676   0.00000  Uiso   1.00
C300   C     0.23864   0.52462   0.02278   0.00000  Uiso   1.00
Cu301  Cu    0.16667   0.54689   0.25000   0.00000  Uiso   1.00
Cu302  Cu    0.16667   0.45311   0.25000   0.00000  Uiso   1.00
H303   H     0.13170   0.37668   0.19107   0.00000  Uiso   1.00
H304   H     0.20137   0.62328   0.30905   0.00000  Uiso   1.00
H305   H     0.20206   0.37700   0.30865   0.00000  Uiso   1.00
H306   H     0.13227   0.62301   0.19068   0.00000  Uiso   1.00
N307   N     0.16667   0.61736   0.25000   0.00000  Uiso   1.00
N308   N     0.16667   0.38264   0.25000   0.00000  Uiso   1.00
O309   O     0.10655   0.53958   0.25000   0.00000  Uiso   1.00
O310   O     0.22679   0.46042   0.25001   0.00000  Uiso   1.00
O311   O     0.22679   0.53958   0.25001   0.00000  Uiso   1.00
O312   O     0.10655   0.46042   0.24999   0.00000  Uiso   1.00
O313   O     0.16666   0.53960   0.18513   0.00000  Uiso   1.00
O314   O     0.16668   0.46040   0.31487   0.00000  Uiso   1.00
O315   O     0.16668   0.53960   0.31487   0.00000  Uiso   1.00
O316   O     0.16666   0.46040   0.18513   0.00000  Uiso   1.00
C317   C     0.23762   0.47506   0.38484   0.00000  Uiso   1.00
O318   O     0.25095   0.43739   0.39754   0.00000  Uiso   1.00
O319   O     0.25592   0.49872   0.34984   0.00000  Uiso   1.00
H320   H     0.28080   0.48180   0.33897   0.00000  Uiso   1.00
C321   C     0.09450   0.48136   0.11666   0.00000  Uiso   1.00
O322   O     0.07999   0.44308   0.10744   0.00000  Uiso   1.00
O323   O     0.07669   0.50983   0.14870   0.00000  Uiso   1.00
H324   H     0.05041   0.49624   0.15977   0.00000  Uiso   1.00
C325   C     0.09148   0.50519   0.38016   0.00000  Uiso   1.00
O326   O     0.08404   0.53343   0.35081   0.00000  Uiso   1.00
O327   O     0.06419   0.46925   0.38967   0.00000  Uiso   1.00
H328   H     0.03952   0.47006   0.36964   0.00000  Uiso   1.00
C329   C     0.24179   0.50817   0.11958   0.00000  Uiso   1.00
O330   O     0.26575   0.47635   0.11331   0.00000  Uiso   1.00
O331   O     0.25070   0.54383   0.14995   0.00000  Uiso   1.00
H332   H     0.27858   0.54037   0.16342   0.00000  Uiso   1.00
C333   C     0.06256   0.55224   0.45643   0.00000  Uiso   1.00
N334   N     0.03758   0.57500   0.44037   0.00000  Uiso   1.00
C335   C     0.27041   0.55315   0.04232   0.00000  Uiso   1.00
N336   N     0.29530   0.57668   0.05771   0.00000  Uiso   1.00
C337   C     0.05440   0.52384   0.04552   0.00000  Uiso   1.00
O338   O     0.04897   0.55881   0.06822   0.00000  Uiso   1.00
O339   O     0.02471   0.48926   0.04176   0.00000  Uiso   1.00
H340   H     0.00125   0.49484   0.06234   0.00000  Uiso   1.00
C341   C     0.27869   0.52136   0.45406   0.00000  Uiso   1.00
O342   O     0.28379   0.55394   0.42836   0.00000  Uiso   1.00
O343   O     0.30888   0.48812   0.46121   0.00000  Uiso   1.00
H344   H     0.33247   0.49224   0.44053   0.00000  Uiso   1.00
C345   C     0.04136   0.41133   0.23877   0.00000  Uiso   1.00
O346   O     0.05439   0.39040   0.27112   0.00000  Uiso   1.00
O347   O     0.04489   0.39122   0.19670   0.00000  Uiso   1.00
H348   H     0.03188   0.41096   0.17267   0.00000  Uiso   1.00
C349   C     0.29178   0.58732   0.26723   0.00000  Uiso   1.00
O350   O     0.28026   0.61238   0.23681   0.00000  Uiso   1.00
O351   O     0.28738   0.60160   0.31127   0.00000  Uiso   1.00
H352   H     0.27472   0.63381   0.31388   0.00000  Uiso   1.00
C353   C     0.29093   0.41305   0.23058   0.00000  Uiso   1.00
O354   O     0.29105   0.38064   0.25712   0.00000  Uiso   1.00
O355   O     0.27113   0.40836   0.18976   0.00000  Uiso   1.00
H356   H     0.25769   0.37659   0.18614   0.00000  Uiso   1.00
C357   C     0.04158   0.58836   0.26020   0.00000  Uiso   1.00
O358   O     0.04916   0.60560   0.29646   0.00000  Uiso   1.00
O359   O     0.05107   0.61228   0.22130   0.00000  Uiso   1.00
H360   H     0.06480   0.64331   0.22752   0.00000  Uiso   1.00
C361   C     0.42063   0.49992   0.25059   0.00000  Uiso   1.00
C362   C     0.57928   0.50004   0.24935   0.00000  Uiso   1.00
C363   C     0.42658   0.51703   0.02275   0.00000  Uiso   1.00
C364   C     0.57309   0.51582   0.47701   0.00000  Uiso   1.00
C365   C     0.35413   0.45720   0.24481   0.00000  Uiso   1.00
C366   C     0.64554   0.54221   0.25740   0.00000  Uiso   1.00
C367   C     0.64528   0.45772   0.24181   0.00000  Uiso   1.00
C368   C     0.35436   0.54226   0.25701   0.00000  Uiso   1.00
C369   C     0.62389   0.50010   0.24903   0.00000  Uiso   1.00
C370   C     0.37588   0.49971   0.25129   0.00000  Uiso   1.00
C371   C     0.48070   0.35807   0.21720   0.00000  Uiso   1.00
C372   C     0.51935   0.64194   0.28275   0.00000  Uiso   1.00
C373   C     0.51957   0.35824   0.28262   0.00000  Uiso   1.00
C374   C     0.48096   0.64177   0.21704   0.00000  Uiso   1.00
C375   C     0.50032   0.50010   0.16448   0.00000  Uiso   1.00
C376   C     0.50006   0.50006   0.33551   0.00000  Uiso   1.00
C377   C     0.53579   0.49601   0.40758   0.00000  Uiso   1.00
C378   C     0.46387   0.49814   0.09269   0.00000  Uiso   1.00
C379   C     0.49952   0.50096   0.38390   0.00000  Uiso   1.00
C380   C     0.50051   0.50138   0.11604   0.00000  Uiso   1.00
C381   C     0.46299   0.50897   0.40595   0.00000  Uiso   1.00
C382   C     0.53689   0.50970   0.09381   0.00000  Uiso   1.00
C383   C     0.46294   0.51363   0.45277   0.00000  Uiso   1.00
C384   C     0.53676   0.51413   0.04699   0.00000  Uiso   1.00
C385   C     0.49979   0.50999   0.47649   0.00000  Uiso   1.00
C386   C     0.49982   0.51034   0.02341   0.00000  Uiso   1.00
C387   C     0.53675   0.50604   0.45357   0.00000  Uiso   1.00
C388   C     0.46284   0.50735   0.04647   0.00000  Uiso   1.00
C389   C     0.42775   0.52464   0.47676   0.00000  Uiso   1.00
C390   C     0.57198   0.52462   0.02278   0.00000  Uiso   1.00
Cu391  Cu    0.50000   0.54689   0.25000   0.00000  Uiso   1.00
Cu392  Cu    0.50000   0.45311   0.25000   0.00000  Uiso   1.00
H393   H     0.46503   0.37668   0.19107   0.00000  Uiso   1.00
H394   H     0.53471   0.62328   0.30905   0.00000  Uiso   1.00
H395   H     0.53539   0.37700   0.30865   0.00000  Uiso   1.00
H396   H     0.46561   0.62301   0.19068   0.00000  Uiso   1.00
N397   N     0.50000   0.61736   0.25000   0.00000  Uiso   1.00
N398   N     0.50000   0.38264   0.25000   0.00000  Uiso   1.00
O399   O     0.43988   0.53958   0.25000   0.00000  Uiso   1.00
O400   O     0.56012   0.46042   0.25001   0.00000  Uiso   1.00
O401   O     0.56012   0.53958   0.25001   0.00000  Uiso   1.00
O402   O     0.43988   0.46042   0.24999   0.00000  Uiso   1.00
O403   O     0.49999   0.53960   0.18513   0.00000  Uiso   1.00
O404   O     0.50001   0.46040   0.31487   0.00000  Uiso   1.00
O405   O     0.50001   0.53960   0.31487   0.00000  Uiso   1.00
O406   O     0.49999   0.46040   0.18513   0.00000  Uiso   1.00
C407   C     0.57095   0.47506   0.38484   0.00000  Uiso   1.00
O408   O     0.58428   0.43739   0.39754   0.00000  Uiso   1.00
O409   O     0.58925   0.49872   0.34984   0.00000  Uiso   1.00
H410   H     0.61414   0.48180   0.33897   0.00000  Uiso   1.00
C411   C     0.42784   0.48136   0.11666   0.00000  Uiso   1.00
O412   O     0.41332   0.44308   0.10744   0.00000  Uiso   1.00
O413   O     0.41002   0.50983   0.14870   0.00000  Uiso   1.00
H414   H     0.38374   0.49624   0.15977   0.00000  Uiso   1.00
C415   C     0.42482   0.50519   0.38016   0.00000  Uiso   1.00
O416   O     0.41738   0.53343   0.35081   0.00000  Uiso   1.00
O417   O     0.39752   0.46925   0.38967   0.00000  Uiso   1.00
H418   H     0.37286   0.47006   0.36964   0.00000  Uiso   1.00
C419   C     0.57513   0.50817   0.11958   0.00000  Uiso   1.00
O420   O     0.59909   0.47635   0.11331   0.00000  Uiso   1.00
O421   O     0.58403   0.54383   0.14995   0.00000  Uiso   1.00
H422   H     0.61192   0.54037   0.16342   0.00000  Uiso   1.00
C423   C     0.39589   0.55224   0.45643   0.00000  Uiso   1.00
N424   N     0.37092   0.57500   0.44037   0.00000  Uiso   1.00
C425   C     0.60375   0.55315   0.04232   0.00000  Uiso   1.00
N426   N     0.62863   0.57668   0.05771   0.00000  Uiso   1.00
C427   C     0.38774   0.52384   0.04552   0.00000  Uiso   1.00
O428   O     0.38230   0.55881   0.06822   0.00000  Uiso   1.00
O429   O     0.35804   0.48926   0.04176   0.00000  Uiso   1.00
H430   H     0.33458   0.49484   0.06234   0.00000  Uiso   1.00
C431   C     0.61202   0.52136   0.45406   0.00000  Uiso   1.00
O432   O     0.61713   0.55394   0.42836   0.00000  Uiso   1.00
O433   O     0.64221   0.48812   0.46121   0.00000  Uiso   1.00
H434   H     0.66580   0.49224   0.44053   0.00000  Uiso   1.00
C435   C     0.37469   0.41133   0.23877   0.00000  Uiso   1.00
O436   O     0.38772   0.39040   0.27112   0.00000  Uiso   1.00
O437   O     0.37822   0.39122   0.19670   0.00000  Uiso   1.00
H438   H     0.36522   0.41096   0.17267   0.00000  Uiso   1.00
C439   C     0.62512   0.58732   0.26723   0.00000  Uiso   1.00
O440   O     0.61360   0.61238   0.23681   0.00000  Uiso   1.00
O441   O     0.62071   0.60160   0.31127   0.00000  Uiso   1.00
H442   H     0.60805   0.63381   0.31388   0.00000  Uiso   1.00
C443   C     0.62426   0.41305   0.23058   0.00000  Uiso   1.00
O444   O     0.62438   0.38064   0.25712   0.00000  Uiso   1.00
O445   O     0.60446   0.40836   0.18976   0.00000  Uiso   1.00
H446   H     0.59102   0.37659   0.18614   0.00000  Uiso   1.00
C447   C     0.37491   0.58836   0.26020   0.00000  Uiso   1.00
O448   O     0.38249   0.60560   0.29646   0.00000  Uiso   1.00
O449   O     0.38441   0.61228   0.22130   0.00000  Uiso   1.00
H450   H     0.39813   0.64331   0.22752   0.00000  Uiso   1.00
C451   C     0.75397   0.49992   0.25059   0.00000  Uiso   1.00
C452   C     0.91262   0.50004   0.24935   0.00000  Uiso   1.00
C453   C     0.75991   0.51703   0.02275   0.00000  Uiso   1.00
C454   C     0.90642   0.51582   0.47701   0.00000  Uiso   1.00
C455   C     0.68746   0.45720   0.24481   0.00000  Uiso   1.00
C456   C     0.97888   0.54221   0.25740   0.00000  Uiso   1.00
C457   C     0.97862   0.45772   0.24181   0.00000  Uiso   1.00
C458   C     0.68769   0.54226   0.25701   0.00000  Uiso   1.00
C459   C     0.95722   0.50010   0.24903   0.00000  Uiso   1.00
C460   C     0.70922   0.49971   0.25129   0.00000  Uiso   1.00
C461   C     0.81404   0.35807   0.21720   0.00000  Uiso   1.00
C462   C     0.85268   0.64194   0.28275   0.00000  Uiso   1.00
C463   C     0.85290   0.35824   0.28262   0.00000  Uiso   1.00
C464   C     0.81430   0.64177   0.21704   0.00000  Uiso   1.00
C465   C     0.83366   0.50010   0.16448   0.00000  Uiso   1.00
C466   C     0.83339   0.50006   0.33551   0.00000  Uiso   1.00
C467   C     0.86912   0.49601   0.40758   0.00000  Uiso   1.00
C468   C     0.79720   0.49814   0.09269   0.00000  Uiso   1.00
C469   C     0.83286   0.50096   0.38390   0.00000  Uiso   1.00
C470   C     0.83385   0.50138   0.11604   0.00000  Uiso   1.00
C471   C     0.79632   0.50897   0.40595   0.00000  Uiso   1.00
C472   C     0.87022   0.50970   0.09381   0.00000  Uiso   1.00
C473   C     0.79628   0.51363   0.45277   0.00000  Uiso   1.00
C474   C     0.87009   0.51413   0.04699   0.00000  Uiso   1.00
C475   C     0.83312   0.50999   0.47649   0.00000  Uiso   1.00
C476   C     0.83315   0.51034   0.02341   0.00000  Uiso   1.00
C477   C     0.87008   0.50604   0.45357   0.00000  Uiso   1.00
C478   C     0.79617   0.50735   0.04647   0.00000  Uiso   1.00
C479   C     0.76108   0.52464   0.47676   0.00000  Uiso   1.00
C480   C     0.90531   0.52462   0.02278   0.00000  Uiso   1.00
Cu481  Cu    0.83333   0.54689   0.25000   0.00000  Uiso   1.00
Cu482  Cu    0.83333   0.45311   0.25000   0.00000  Uiso   1.00
H483   H     0.79837   0.37668   0.19107   0.00000  Uiso   1.00
H484   H     0.86804   0.62328   0.30905   0.00000  Uiso   1.00
H485   H     0.86872   0.37700   0.30865   0.00000  Uiso   1.00
H486   H     0.79894   0.62301   0.19068   0.00000  Uiso   1.00
N487   N     0.83333   0.61736   0.25000   0.00000  Uiso   1.00
N488   N     0.83333   0.38264   0.25000   0.00000  Uiso   1.00
O489   O     0.77321   0.53958   0.25000   0.00000  Uiso   1.00
O490   O     0.89345   0.46042   0.25001   0.00000  Uiso   1.00
O491   O     0.89345   0.53958   0.25001   0.00000  Uiso   1.00
O492   O     0.77321   0.46042   0.24999   0.00000  Uiso   1.00
O493   O     0.83332   0.53960   0.18513   0.00000  Uiso   1.00
O494   O     0.83334   0.46040   0.31487   0.00000  Uiso   1.00
O495   O     0.83334   0.53960   0.31487   0.00000  Uiso   1.00
O496   O     0.83332   0.46040   0.18513   0.00000  Uiso   1.00
C497   C     0.90428   0.47506   0.38484   0.00000  Uiso   1.00
O498   O     0.91761   0.43739   0.39754   0.00000  Uiso   1.00
O499   O     0.92258   0.49872   0.34984   0.00000  Uiso   1.00
H500   H     0.94747   0.48180   0.33897   0.00000  Uiso   1.00
C501   C     0.76117   0.48136   0.11666   0.00000  Uiso   1.00
O502   O     0.74666   0.44308   0.10744   0.00000  Uiso   1.00
O503   O     0.74336   0.50983   0.14870   0.00000  Uiso   1.00
H504   H     0.71707   0.49624   0.15977   0.00000  Uiso   1.00
C505   C     0.75815   0.50519   0.38016   0.00000  Uiso   1.00
O506   O     0.75071   0.53343   0.35081   0.00000  Uiso   1.00
O507   O     0.73085   0.46925   0.38967   0.00000  Uiso   1.00
H508   H     0.70619   0.47006   0.36964   0.00000  Uiso   1.00
C509   C     0.90846   0.50817   0.11958   0.00000  Uiso   1.00
O510   O     0.93242   0.47635   0.11331   0.00000  Uiso   1.00
O511   O     0.91736   0.54383   0.14995   0.00000  Uiso   1.00
H512   H     0.94525   0.54037   0.16342   0.00000  Uiso   1.00
C513   C     0.72922   0.55224   0.45643   0.00000  Uiso   1.00
N514   N     0.70425   0.57500   0.44037   0.00000  Uiso   1.00
C515   C     0.93708   0.55315   0.04232   0.00000  Uiso   1.00
N516   N     0.96197   0.57668   0.05771   0.00000  Uiso   1.00
C517   C     0.72107   0.52384   0.04552   0.00000  Uiso   1.00
O518   O     0.71564   0.55881   0.06822   0.00000  Uiso   1.00
O519   O     0.69138   0.48926   0.04176   0.00000  Uiso   1.00
H520   H     0.66792   0.49484   0.06234   0.00000  Uiso   1.00
C521   C     0.94536   0.52136   0.45406   0.00000  Uiso   1.00
O522   O     0.95046   0.55394   0.42836   0.00000  Uiso   1.00
O523   O     0.97555   0.48812   0.46121   0.00000  Uiso   1.00
H524   H     0.99914   0.49224   0.44053   0.00000  Uiso   1.00
C525   C     0.70803   0.41133   0.23877   0.00000  Uiso   1.00
O526   O     0.72105   0.39040   0.27112   0.00000  Uiso   1.00
O527   O     0.71155   0.39122   0.19670   0.00000  Uiso   1.00
H528   H     0.69855   0.41096   0.17267   0.00000  Uiso   1.00
C529   C     0.95845   0.58732   0.26723   0.00000  Uiso   1.00
O530   O     0.94693   0.61238   0.23681   0.00000  Uiso   1.00
O531   O     0.95405   0.60160   0.31127   0.00000  Uiso   1.00
H532   H     0.94138   0.63381   0.31388   0.00000  Uiso   1.00
C533   C     0.95759   0.41305   0.23058   0.00000  Uiso   1.00
O534   O     0.95772   0.38064   0.25712   0.00000  Uiso   1.00
O535   O     0.93780   0.40836   0.18976   0.00000  Uiso   1.00
H536   H     0.92436   0.37659   0.18614   0.00000  Uiso   1.00
C537   C     0.70825   0.58836   0.26020   0.00000  Uiso   1.00
O538   O     0.71582   0.60560   0.29646   0.00000  Uiso   1.00
O539   O     0.71774   0.61228   0.22130   0.00000  Uiso   1.00
H540   H     0.73146   0.64331   0.22752   0.00000  Uiso   1.00
C541   C     0.08730   0.83325   0.25059   0.00000  Uiso   1.00
C542   C     0.24595   0.83338   0.24935   0.00000  Uiso   1.00
C543   C     0.09325   0.85036   0.02275   0.00000  Uiso   1.00
C544   C     0.23976   0.84915   0.47701   0.00000  Uiso   1.00
C545   C     0.02079   0.79054   0.24481   0.00000  Uiso   1.00
C546   C     0.31221   0.87554   0.25740   0.00000  Uiso   1.00
C547   C     0.31195   0.79106   0.24181   0.00000  Uiso   1.00
C548   C     0.02102   0.87559   0.25701   0.00000  Uiso   1.00
C549   C     0.29056   0.83343   0.24903   0.00000  Uiso   1.00
C550   C     0.04255   0.83304   0.25129   0.00000  Uiso   1.00
C551   C     0.14737   0.69140   0.21720   0.00000  Uiso   1.00
C552   C     0.18602   0.97527   0.28275   0.00000  Uiso   1.00
C553   C     0.18623   0.69157   0.28262   0.00000  Uiso   1.00
C554   C     0.14763   0.97510   0.21704   0.00000  Uiso   1.00
C555   C     0.16699   0.83343   0.16448   0.00000  Uiso   1.00
C556   C     0.16672   0.83339   0.33551   0.00000  Uiso   1.00
C557   C     0.20245   0.82934   0.40758   0.00000  Uiso   1.00
C558   C     0.13054   0.83148   0.09269   0.00000  Uiso   1.00
C559   C     0.16619   0.83429   0.38390   0.00000  Uiso   1.00
C560   C     0.16718   0.83471   0.11604   0.00000  Uiso   1.00
C561   C     0.12965   0.84231   0.40595   0.00000  Uiso   1.00
C562   C     0.20356   0.84304   0.09381   0.00000  Uiso   1.00
C563   C     0.12961   0.84696   0.45277   0.00000  Uiso   1.00
C564   C     0.20342   0.84746   0.04699   0.00000  Uiso   1.00
C565   C     0.16645   0.84332   0.47649   0.00000  Uiso   1.00
C566   C     0.16648   0.84368   0.02341   0.00000  Uiso   1.00
C567   C     0.20341   0.83937   0.45357   0.00000  Uiso   1.00
C568   C     0.12950   0.84068   0.04647   0.00000  Uiso   1.00
C569   C     0.09441   0.85797   0.47676   0.00000  Uiso   1.00
C570   C     0.23864   0.85795   0.02278   0.00000  Uiso   1.00
Cu571  Cu    0.16667   0.88022   0.25000   0.00000  Uiso   1.00
Cu572  Cu    0.16667   0.78645   0.25000   0.00000  Uiso   1.00
H573   H     0.13170   0.71001   0.19107   0.00000  Uiso   1.00
H574   H     0.20137   0.95661   0.30905   0.00000  Uiso   1.00
H575   H     0.20206   0.71033   0.30865   0.00000  Uiso   1.00
H576   H     0.13227   0.95634   0.19068   0.00000  Uiso   1.00
N577   N     0.16667   0.95069   0.25000   0.00000  Uiso   1.00
N578   N     0.16667   0.71598   0.25000   0.00000  Uiso   1.00
O579   O     0.10655   0.87291   0.25000   0.00000  Uiso   1.00
O580   O     0.22679   0.79375   0.25001   0.00000  Uiso   1.00
O581   O     0.22679   0.87291   0.25001   0.00000  Uiso   1.00
O582   O     0.10655   0.79375   0.24999   0.00000  Uiso   1.00
O583   O     0.16666   0.87293   0.18513   0.00000  Uiso   1.00
O584   O     0.16668   0.79373   0.31487   0.00000  Uiso   1.00
O585   O     0.16668   0.87293   0.31487   0.00000  Uiso   1.00
O586   O     0.16666   0.79373   0.18513   0.00000  Uiso   1.00
C587   C     0.23762   0.80839   0.38484   0.00000  Uiso   1.00
O588   O     0.25095   0.77072   0.39754   0.00000  Uiso   1.00
O589   O     0.25592   0.83206   0.34984   0.00000  Uiso   1.00
H590   H     0.28080   0.81514   0.33897   0.00000  Uiso   1.00
C591   C     0.09450   0.81469   0.11666   0.00000  Uiso   1.00
O592   O     0.07999   0.77642   0.10744   0.00000  Uiso   1.00
O593   O     0.07669   0.84317   0.14870   0.00000  Uiso   1.00
H594   H     0.05041   0.82958   0.15977   0.00000  Uiso   1.00
C595   C     0.09148   0.83852   0.38016   0.00000  Uiso   1.00
O596   O     0.08404   0.86676   0.35081   0.00000  Uiso   1.00
O597   O     0.06419   0.80259   0.38967   0.00000  Uiso   1.00
H598   H     0.03952   0.80340   0.36964   0.00000  Uiso   1.00
C599   C     0.24179   0.84150   0.11958   0.00000  Uiso   1.00
O600   O     0.26575   0.80968   0.11331   0.00000  Uiso   1.00
O601   O     0.25070   0.87716   0.14995   0.00000  Uiso   1.00
H602   H     0.27858   0.87371   0.16342   0.00000  Uiso   1.00
C603   C     0.06256   0.88558   0.45643   0.00000  Uiso   1.00
N604   N     0.03758   0.90833   0.44037   0.00000  Uiso   1.00
C605   C     0.27041   0.88649   0.04232   0.00000  Uiso   1.00
N606   N     0.29530   0.91001   0.05771   0.00000  Uiso   1.00
C607   C     0.05440   0.85717   0.04552   0.00000  Uiso   1.00
O608   O     0.04897   0.89214   0.06822   0.00000  Uiso   1.00
O609   O     0.02471   0.82259   0.04176   0.00000  Uiso   1.00
H610   H     0.00125   0.82817   0.06234   0.00000  Uiso   1.00
C611   C     0.27869   0.85469   0.45406   0.00000  Uiso   1.00
O612   O     0.28379   0.88728   0.42836   0.00000  Uiso   1.00
O613   O     0.30888   0.82145   0.46121   0.00000  Uiso   1.00
H614   H     0.33247   0.82557   0.44053   0.00000  Uiso   1.00
C615   C     0.04136   0.74466   0.23877   0.00000  Uiso   1.00
O616   O     0.05439   0.72373   0.27112   0.00000  Uiso   1.00
O617   O     0.04489   0.72455   0.19670   0.00000  Uiso   1.00
H618   H     0.03188   0.74430   0.17267   0.00000  Uiso   1.00
C619   C     0.29178   0.92066   0.26723   0.00000  Uiso   1.00
O620   O     0.28026   0.94571   0.23681   0.00000  Uiso   1.00
O621   O     0.28738   0.93494   0.31127   0.00000  Uiso   1.00
H622   H     0.27472   0.96714   0.31388   0.00000  Uiso   1.00
C623   C     0.29093   0.74638   0.23058   0.00000  Uiso   1.00
O624   O     0.29105   0.71398   0.25712   0.00000  Uiso   1.00
O625   O     0.27113   0.74169   0.18976   0.00000  Uiso   1.00
H626   H     0.25769   0.70992   0.18614   0.00000  Uiso   1.00
C627   C     0.04158   0.92169   0.26020   0.00000  Uiso   1.00
O628   O     0.04916   0.93894   0.29646   0.00000  Uiso   1.00
O629   O     0.05107   0.94561   0.22130   0.00000  Uiso   1.00
H630   H     0.06480   0.97664   0.22752   0.00000  Uiso   1.00
C631   C     0.42063   0.83325   0.25059   0.00000  Uiso   1.00
C632   C     0.57928   0.83338   0.24935   0.00000  Uiso   1.00
C633   C     0.42658   0.85036   0.02275   0.00000  Uiso   1.00
C634   C     0.57309   0.84915   0.47701   0.00000  Uiso   1.00
C635   C     0.35413   0.79054   0.24481   0.00000  Uiso   1.00
C636   C     0.64554   0.87554   0.25740   0.00000  Uiso   1.00
C637   C     0.64528   0.79106   0.24181   0.00000  Uiso   1.00
C638   C     0.35436   0.87559   0.25701   0.00000  Uiso   1.00
C639   C     0.62389   0.83343   0.24903   0.00000  Uiso   1.00
C640   C     0.37588   0.83304   0.25129   0.00000  Uiso   1.00
C641   C     0.48070   0.69140   0.21720   0.00000  Uiso   1.00
C642   C     0.51935   0.97527   0.28275   0.00000  Uiso   1.00
C643   C     0.51957   0.69157   0.28262   0.00000  Uiso   1.00
C644   C     0.48096   0.97510   0.21704   0.00000  Uiso   1.00
C645   C     0.50032   0.83343   0.16448   0.00000  Uiso   1.00
C646   C     0.50006   0.83339   0.33551   0.00000  Uiso   1.00
C647   C     0.53579   0.82934   0.40758   0.00000  Uiso   1.00
C648   C     0.46387   0.83148   0.09269   0.00000  Uiso   1.00
C649   C     0.49952   0.83429   0.38390   0.00000  Uiso   1.00
C650   C     0.50051   0.83471   0.11604   0.00000  Uiso   1.00
C651   C     0.46299   0.84231   0.40595   0.00000  Uiso   1.00
C652   C     0.53689   0.84304   0.09381   0.00000  Uiso   1.00
C653   C     0.46294   0.84696   0.45277   0.00000  Uiso   1.00
C654   C     0.53676   0.84746   0.04699   0.00000  Uiso   1.00
C655   C     0.49979   0.84332   0.47649   0.00000  Uiso   1.00
C656   C     0.49982   0.84368   0.02341   0.00000  Uiso   1.00
C657   C     0.53675   0.83937   0.45357   0.00000  Uiso   1.00
C658   C     0.46284   0.84068   0.04647   0.00000  Uiso   1.00
C659   C     0.42775   0.85797   0.47676   0.00000  Uiso   1.00
C660   C     0.57198   0.85795   0.02278   0.00000  Uiso   1.00
Cu661  Cu    0.50000   0.88022   0.25000   0.00000  Uiso   1.00
Cu662  Cu    0.50000   0.78645   0.25000   0.00000  Uiso   1.00
H663   H     0.46503   0.71001   0.19107   0.00000  Uiso   1.00
H664   H     0.53471   0.95661   0.30905   0.00000  Uiso   1.00
H665   H     0.53539   0.71033   0.30865   0.00000  Uiso   1.00
H666   H     0.46561   0.95634   0.19068   0.00000  Uiso   1.00
N667   N     0.50000   0.95069   0.25000   0.00000  Uiso   1.00
N668   N     0.50000   0.71598   0.25000   0.00000  Uiso   1.00
O669   O     0.43988   0.87291   0.25000   0.00000  Uiso   1.00
O670   O     0.56012   0.79375   0.25001   0.00000  Uiso   1.00
O671   O     0.56012   0.87291   0.25001   0.00000  Uiso   1.00
O672   O     0.43988   0.79375   0.24999   0.00000  Uiso   1.00
O673   O     0.49999   0.87293   0.18513   0.00000  Uiso   1.00
O674   O     0.50001   0.79373   0.31487   0.00000  Uiso   1.00
O675   O     0.50001   0.87293   0.31487   0.00000  Uiso   1.00
O676   O     0.49999   0.79373   0.18513   0.00000  Uiso   1.00
C677   C     0.57095   0.80839   0.38484   0.00000  Uiso   1.00
O678   O     0.58428   0.77072   0.39754   0.00000  Uiso   1.00
O679   O     0.58925   0.83206   0.34984   0.00000  Uiso   1.00
H680   H     0.61414   0.81514   0.33897   0.00000  Uiso   1.00
C681   C     0.42784   0.81469   0.11666   0.00000  Uiso   1.00
O682   O     0.41332   0.77642   0.10744   0.00000  Uiso   1.00
O683   O     0.41002   0.84317   0.14870   0.00000  Uiso   1.00
H684   H     0.38374   0.82958   0.15977   0.00000  Uiso   1.00
C685   C     0.42482   0.83852   0.38016   0.00000  Uiso   1.00
O686   O     0.41738   0.86676   0.35081   0.00000  Uiso   1.00
O687   O     0.39752   0.80259   0.38967   0.00000  Uiso   1.00
H688   H     0.37286   0.80340   0.36964   0.00000  Uiso   1.00
C689   C     0.57513   0.84150   0.11958   0.00000  Uiso   1.00
O690   O     0.59909   0.80968   0.11331   0.00000  Uiso   1.00
O691   O     0.58403   0.87716   0.14995   0.00000  Uiso   1.00
H692   H     0.61192   0.87371   0.16342   0.00000  Uiso   1.00
C693   C     0.39589   0.88558   0.45643   0.00000  Uiso   1.00
N694   N     0.37092   0.90833   0.44037   0.00000  Uiso   1.00
C695   C     0.60375   0.88649   0.04232   0.00000  Uiso   1.00
N696   N     0.62863   0.91001   0.05771   0.00000  Uiso   1.00
C697   C     0.38774   0.85717   0.04552   0.00000  Uiso   1.00
O698   O     0.38230   0.89214   0.06822   0.00000  Uiso   1.00
O699   O     0.35804   0.82259   0.04176   0.00000  Uiso   1.00
H700   H     0.33458   0.82817   0.06234   0.00000  Uiso   1.00
C701   C     0.61202   0.85469   0.45406   0.00000  Uiso   1.00
O702   O     0.61713   0.88728   0.42836   0.00000  Uiso   1.00
O703   O     0.64221   0.82145   0.46121   0.00000  Uiso   1.00
H704   H     0.66580   0.82557   0.44053   0.00000  Uiso   1.00
C705   C     0.37469   0.74466   0.23877   0.00000  Uiso   1.00
O706   O     0.38772   0.72373   0.27112   0.00000  Uiso   1.00
O707   O     0.37822   0.72455   0.19670   0.00000  Uiso   1.00
H708   H     0.36522   0.74430   0.17267   0.00000  Uiso   1.00
C709   C     0.62512   0.92066   0.26723   0.00000  Uiso   1.00
O710   O     0.61360   0.94571   0.23681   0.00000  Uiso   1.00
O711   O     0.62071   0.93494   0.31127   0.00000  Uiso   1.00
H712   H     0.60805   0.96714   0.31388   0.00000  Uiso   1.00
C713   C     0.62426   0.74638   0.23058   0.00000  Uiso   1.00
O714   O     0.62438   0.71398   0.25712   0.00000  Uiso   1.00
O715   O     0.60446   0.74169   0.18976   0.00000  Uiso   1.00
H716   H     0.59102   0.70992   0.18614   0.00000  Uiso   1.00
C717   C     0.37491   0.92169   0.26020   0.00000  Uiso   1.00
O718   O     0.38249   0.93894   0.29646   0.00000  Uiso   1.00
O719   O     0.38441   0.94561   0.22130   0.00000  Uiso   1.00
H720   H     0.39813   0.97664   0.22752   0.00000  Uiso   1.00
C721   C     0.75397   0.83325   0.25059   0.00000  Uiso   1.00
C722   C     0.91262   0.83338   0.24935   0.00000  Uiso   1.00
C723   C     0.75991   0.85036   0.02275   0.00000  Uiso   1.00
C724   C     0.90642   0.84915   0.47701   0.00000  Uiso   1.00
C725   C     0.68746   0.79054   0.24481   0.00000  Uiso   1.00
C726   C     0.97888   0.87554   0.25740   0.00000  Uiso   1.00
C727   C     0.97862   0.79106   0.24181   0.00000  Uiso   1.00
C728   C     0.68769   0.87559   0.25701   0.00000  Uiso   1.00
C729   C     0.95722   0.83343   0.24903   0.00000  Uiso   1.00
C730   C     0.70922   0.83304   0.25129   0.00000  Uiso   1.00
C731   C     0.81404   0.69140   0.21720   0.00000  Uiso   1.00
C732   C     0.85268   0.97527   0.28275   0.00000  Uiso   1.00
C733   C     0.85290   0.69157   0.28262   0.00000  Uiso   1.00
C734   C     0.81430   0.97510   0.21704   0.00000  Uiso   1.00
C735   C     0.83366   0.83343   0.16448   0.00000  Uiso   1.00
C736   C     0.83339   0.83339   0.33551   0.00000  Uiso   1.00
C737   C     0.86912   0.82934   0.40758   0.00000  Uiso   1.00
C738   C     0.79720   0.83148   0.09269   0.00000  Uiso   1.00
C739   C     0.83286   0.83429   0.38390   0.00000  Uiso   1.00
C740   C     0.83385   0.83471   0.11604   0.00000  Uiso   1.00
C741   C     0.79632   0.84231   0.40595   0.00000  Uiso   1.00
C742   C     0.87022   0.84304   0.09381   0.00000  Uiso   1.00
C743   C     0.79628   0.84696   0.45277   0.00000  Uiso   1.00
C744   C     0.87009   0.84746   0.04699   0.00000  Uiso   1.00
C745   C     0.83312   0.84332   0.47649   0.00000  Uiso   1.00
C746   C     0.83315   0.84368   0.02341   0.00000  Uiso   1.00
C747   C     0.87008   0.83937   0.45357   0.00000  Uiso   1.00
C748   C     0.79617   0.84068   0.04647   0.00000  Uiso   1.00
C749   C     0.76108   0.85797   0.47676   0.00000  Uiso   1.00
C750   C     0.90531   0.85795   0.02278   0.00000  Uiso   1.00
Cu751  Cu    0.83333   0.88022   0.25000   0.00000  Uiso   1.00
Cu752  Cu    0.83333   0.78645   0.25000   0.00000  Uiso   1.00
H753   H     0.79837   0.71001   0.19107   0.00000  Uiso   1.00
H754   H     0.86804   0.95661   0.30905   0.00000  Uiso   1.00
H755   H     0.86872   0.71033   0.30865   0.00000  Uiso   1.00
H756   H     0.79894   0.95634   0.19068   0.00000  Uiso   1.00
N757   N     0.83333   0.95069   0.25000   0.00000  Uiso   1.00
N758   N     0.83333   0.71598   0.25000   0.00000  Uiso   1.00
O759   O     0.77321   0.87291   0.25000   0.00000  Uiso   1.00
O760   O     0.89345   0.79375   0.25001   0.00000  Uiso   1.00
O761   O     0.89345   0.87291   0.25001   0.00000  Uiso   1.00
O762   O     0.77321   0.79375   0.24999   0.00000  Uiso   1.00
O763   O     0.83332   0.87293   0.18513   0.00000  Uiso   1.00
O764   O     0.83334   0.79373   0.31487   0.00000  Uiso   1.00
O765   O     0.83334   0.87293   0.31487   0.00000  Uiso   1.00
O766   O     0.83332   0.79373   0.18513   0.00000  Uiso   1.00
C767   C     0.90428   0.80839   0.38484   0.00000  Uiso   1.00
O768   O     0.91761   0.77072   0.39754   0.00000  Uiso   1.00
O769   O     0.92258   0.83206   0.34984   0.00000  Uiso   1.00
H770   H     0.94747   0.81514   0.33897   0.00000  Uiso   1.00
C771   C     0.76117   0.81469   0.11666   0.00000  Uiso   1.00
O772   O     0.74666   0.77642   0.10744   0.00000  Uiso   1.00
O773   O     0.74336   0.84317   0.14870   0.00000  Uiso   1.00
H774   H     0.71707   0.82958   0.15977   0.00000  Uiso   1.00
C775   C     0.75815   0.83852   0.38016   0.00000  Uiso   1.00
O776   O     0.75071   0.86676   0.35081   0.00000  Uiso   1.00
O777   O     0.73085   0.80259   0.38967   0.00000  Uiso   1.00
H778   H     0.70619   0.80340   0.36964   0.00000  Uiso   1.00
C779   C     0.90846   0.84150   0.11958   0.00000  Uiso   1.00
O780   O     0.93242   0.80968   0.11331   0.00000  Uiso   1.00
O781   O     0.91736   0.87716   0.14995   0.00000  Uiso   1.00
H782   H     0.94525   0.87371   0.16342   0.00000  Uiso   1.00
C783   C     0.72922   0.88558   0.45643   0.00000  Uiso   1.00
N784   N     0.70425   0.90833   0.44037   0.00000  Uiso   1.00
C785   C     0.93708   0.88649   0.04232   0.00000  Uiso   1.00
N786   N     0.96197   0.91001   0.05771   0.00000  Uiso   1.00
C787   C     0.72107   0.85717   0.04552   0.00000  Uiso   1.00
O788   O     0.71564   0.89214   0.06822   0.00000  Uiso   1.00
O789   O     0.69138   0.82259   0.04176   0.00000  Uiso   1.00
H790   H     0.66792   0.82817   0.06234   0.00000  Uiso   1.00
C791   C     0.94536   0.85469   0.45406   0.00000  Uiso   1.00
O792   O     0.95046   0.88728   0.42836   0.00000  Uiso   1.00
O793   O     0.97555   0.82145   0.46121   0.00000  Uiso   1.00
H794   H     0.99914   0.82557   0.44053   0.00000  Uiso   1.00
C795   C     0.70803   0.74466   0.23877   0.00000  Uiso   1.00
O796   O     0.72105   0.72373   0.27112   0.00000  Uiso   1.00
O797   O     0.71155   0.72455   0.19670   0.00000  Uiso   1.00
H798   H     0.69855   0.74430   0.17267   0.00000  Uiso   1.00
C799   C     0.95845   0.92066   0.26723   0.00000  Uiso   1.00
O800   O     0.94693   0.94571   0.23681   0.00000  Uiso   1.00
O801   O     0.95405   0.93494   0.31127   0.00000  Uiso   1.00
H802   H     0.94138   0.96714   0.31388   0.00000  Uiso   1.00
C803   C     0.95759   0.74638   0.23058   0.00000  Uiso   1.00
O804   O     0.95772   0.71398   0.25712   0.00000  Uiso   1.00
O805   O     0.93780   0.74169   0.18976   0.00000  Uiso   1.00
H806   H     0.92436   0.70992   0.18614   0.00000  Uiso   1.00
C807   C     0.70825   0.92169   0.26020   0.00000  Uiso   1.00
O808   O     0.71582   0.93894   0.29646   0.00000  Uiso   1.00
O809   O     0.71774   0.94561   0.22130   0.00000  Uiso   1.00
H810   H     0.73146   0.97664   0.22752   0.00000  Uiso   1.00
C811   C     0.08730   0.16659   0.75059   0.00000  Uiso   1.00
C812   C     0.24595   0.16671   0.74935   0.00000  Uiso   1.00
C813   C     0.09325   0.18369   0.52275   0.00000  Uiso   1.00
C814   C     0.23976   0.18249   0.97701   0.00000  Uiso   1.00
C815   C     0.02079   0.12387   0.74481   0.00000  Uiso   1.00
C816   C     0.31221   0.20888   0.75740   0.00000  Uiso   1.00
C817   C     0.31195   0.12439   0.74181   0.00000  Uiso   1.00
C818   C     0.02102   0.20892   0.75701   0.00000  Uiso   1.00
C819   C     0.29056   0.16677   0.74903   0.00000  Uiso   1.00
C820   C     0.04255   0.16638   0.75129   0.00000  Uiso   1.00
C821   C     0.14737   0.02473   0.71720   0.00000  Uiso   1.00
C822   C     0.18602   0.30860   0.78275   0.00000  Uiso   1.00
C823   C     0.18623   0.02491   0.78262   0.00000  Uiso   1.00
C824   C     0.14763   0.30844   0.71704   0.00000  Uiso   1.00
C825   C     0.16699   0.16676   0.66448   0.00000  Uiso   1.00
C826   C     0.16672   0.16672   0.83551   0.00000  Uiso   1.00
C827   C     0.20245   0.16268   0.90758   0.00000  Uiso   1.00
C828   C     0.13054   0.16481   0.59269   0.00000  Uiso   1.00
C829   C     0.16619   0.16763   0.88390   0.00000  Uiso   1.00
C830   C     0.16718   0.16805   0.61604   0.00000  Uiso   1.00
C831   C     0.12965   0.17564   0.90595   0.00000  Uiso   1.00
C832   C     0.20356   0.17637   0.59381   0.00000  Uiso   1.00
C833   C     0.12961   0.18029   0.95277   0.00000  Uiso   1.00
C834   C     0.20342   0.18080   0.54699   0.00000  Uiso   1.00
C835   C     0.16645   0.17665   0.97649   0.00000  Uiso   1.00
C836   C     0.16648   0.17701   0.52341   0.00000  Uiso   1.00
C837   C     0.20341   0.17271   0.95357   0.00000  Uiso   1.00
C838   C     0.12950   0.17402   0.54647   0.00000  Uiso   1.00
C839   C     0.09441   0.19130   0.97676   0.00000  Uiso   1.00
C840   C     0.23864   0.19129   0.52278   0.00000  Uiso   1.00
Cu841  Cu    0.16667   0.21355   0.75000   0.00000  Uiso   1.00
Cu842  Cu    0.16667   0.11978   0.75000   0.00000  Uiso   1.00
H843   H     0.13170   0.04335   0.69107   0.00000  Uiso   1.00
H844   H     0.20137   0.28995   0.80905   0.00000  Uiso   1.00
H845   H     0.20206   0.04366   0.80865   0.00000  Uiso   1.00
H846   H     0.13227   0.28968   0.69068   0.00000  Uiso   1.00
N847   N     0.16667   0.28402   0.75000   0.00000  Uiso   1.00
N848   N     0.16667   0.04931   0.75000   0.00000  Uiso   1.00
O849   O     0.10655   0.20625   0.75000   0.00000  Uiso   1.00
O850   O     0.22679   0.12709   0.75001   0.00000  Uiso   1.00
O851   O     0.22679   0.20625   0.75001   0.00000  Uiso   1.00
O852   O     0.10655   0.12709   0.74999   0.00000  Uiso   1.00
O853   O     0.16666   0.20627   0.68513   0.00000  Uiso   1.00
O854   O     0.16668   0.12707   0.81487   0.00000  Uiso   1.00
O855   O     0.16668   0.20627   0.81487   0.00000  Uiso   1.00
O856   O     0.16666   0.12707   0.68513   0.00000  Uiso   1.00
C857   C     0.23762   0.14172   0.88484   0.00000  Uiso   1.00
O858   O     0.25095   0.10405   0.89754   0.00000  Uiso   1.00
O859   O     0.25592   0.16539   0.84984   0.00000  Uiso   1.00
H860   H     0.28080   0.14847   0.83897   0.00000  Uiso   1.00
C861   C     0.09450   0.14802   0.61666   0.00000  Uiso   1.00
O862   O     0.07999   0.10975   0.60744   0.00000  Uiso   1.00
O863   O     0.07669   0.17650   0.64870   0.00000  Uiso   1.00
H864   H     0.05041   0.16291   0.65977   0.00000  Uiso   1.00
C865   C     0.09148   0.17186   0.88016   0.00000  Uiso   1.00
O866   O     0.08404   0.20009   0.85081   0.00000  Uiso   1.00
O867   O     0.06419   0.13592   0.88967   0.00000  Uiso   1.00
H868   H     0.03952   0.13673   0.86964   0.00000  Uiso   1.00
C869   C     0.24179   0.17484   0.61958   0.00000  Uiso   1.00
O870   O     0.26575   0.14301   0.61331   0.00000  Uiso   1.00
O871   O     0.25070   0.21049   0.64995   0.00000  Uiso   1.00
H872   H     0.27858   0.20704   0.66342   0.00000  Uiso   1.00
C873   C     0.06256   0.21891   0.95643   0.00000  Uiso   1.00
N874   N     0.03758   0.24166   0.94037   0.00000  Uiso   1.00
C875   C     0.27041   0.21982   0.54232   0.00000  Uiso   1.00
N876   N     0.29530   0.24335   0.55771   0.00000  Uiso   1.00
C877   C     0.05440   0.19051   0.54552   0.00000  Uiso   1.00
O878   O     0.04897   0.22548   0.56822   0.00000  Uiso   1.00
O879   O     0.02471   0.15592   0.54176   0.00000  Uiso   1.00
H880   H     0.00125   0.16150   0.56234   0.00000  Uiso   1.00
C881   C     0.27869   0.18803   0.95406   0.00000  Uiso   1.00
O882   O     0.28379   0.22061   0.92836   0.00000  Uiso   1.00
O883   O     0.30888   0.15479   0.96121   0.00000  Uiso   1.00
H884   H     0.33247   0.15891   0.94053   0.00000  Uiso   1.00
C885   C     0.04136   0.07800   0.73877   0.00000  Uiso   1.00
O886   O     0.05439   0.05706   0.77112   0.00000  Uiso   1.00
O887   O     0.04489   0.05788   0.69670   0.00000  Uiso   1.00
H888   H     0.03188   0.07763   0.67267   0.00000  Uiso   1.00
C889   C     0.29178   0.25399   0.76723   0.00000  Uiso   1.00
O890   O     0.28026   0.27905   0.73681   0.00000  Uiso   1.00
O891   O     0.28738   0.26827   0.81127   0.00000  Uiso   1.00
H892   H     0.27472   0.30048   0.81388   0.00000  Uiso   1.00
C893   C     0.29093   0.07971   0.73058   0.00000  Uiso   1.00
O894   O     0.29105   0.04731   0.75712   0.00000  Uiso   1.00
O895   O     0.27113   0.07503   0.68976   0.00000  Uiso   1.00
H896   H     0.25769   0.04326   0.68614   0.00000  Uiso   1.00
C897   C     0.04158   0.25503   0.76020   0.00000  Uiso   1.00
O898   O     0.04916   0.27227   0.79646   0.00000  Uiso   1.00
O899   O     0.05107   0.27895   0.72130   0.00000  Uiso   1.00
H900   H     0.06480   0.30997   0.72752   0.00000  Uiso   1.00
C901   C     0.42063   0.16659   0.75059   0.00000  Uiso   1.00
C902   C     0.57928   0.16671   0.74935   0.00000  Uiso   1.00
C903   C     0.42658   0.18369   0.52275   0.00000  Uiso   1.00
C904   C     0.57309   0.18249   0.97701   0.00000  Uiso   1.00
C905   C     0.35413   0.12387   0.74481   0.00000  Uiso   1.00
C906   C     0.64554   0.20888   0.75740   0.00000  Uiso   1.00
C907   C     0.64528   0.12439   0.74181   0.00000  Uiso   1.00
C908   C     0.35436   0.20892   0.75701   0.00000  Uiso   1.00
C909   C     0.62389   0.16677   0.74903   0.00000  Uiso   1.00
C910   C     0.37588   0.16638   0.75129   0.00000  Uiso   1.00
C911   C     0.48070   0.02473   0.71720   0.00000  Uiso   1.00
C912   C     0.51935   0.30860   0.78275   0.00000  Uiso   1.00
C913   C     0.51957   0.02491   0.78262   0.00000  Uiso   1.00
C914   C     0.48096   0.30844   0.71704   0.00000  Uiso   1.00
C915   C     0.50032   0.16676   0.66448   0.00000  Uiso   1.00
C916   C     0.50006   0.16672   0.83551   0.00000  Uiso   1.00
C917   C     0.53579   0.16268   0.90758   0.00000  Uiso   1.00
C918   C     0.46387   0.16481   0.59269   0.00000  Uiso   1.00
C919   C     0.49952   0.16763   0.88390   0.00000  Uiso   1.00
C920   C     0.50051   0.16805   0.61604   0.00000  Uiso   1.00
C921   C     0.46299   0.17564   0.90595   0.00000  Uiso   1.00
C922   C     0.53689   0.17637   0.59381   0.00000  Uiso   1.00
C923   C     0.46294   0.18029   0.95277   0.00000  Uiso   1.00
C924   C     0.53676   0.18080   0.54699   0.00000  Uiso   1.00
C925   C     0.49979   0.17665   0.97649   0.00000  Uiso   1.00
C926   C     0.49982   0.17701   0.52341   0.00000  Uiso   1.00
C927   C     0.53675   0.17271   0.95357   0.00000  Uiso   1.00
C928   C     0.46284   0.17402   0.54647   0.00000  Uiso   1.00
C929   C     0.42775   0.19130   0.97676   0.00000  Uiso   1.00
C930   C     0.57198   0.19129   0.52278   0.00000  Uiso   1.00
Cu931  Cu    0.50000   0.21355   0.75000   0.00000  Uiso   1.00
Cu932  Cu    0.50000   0.11978   0.75000   0.00000  Uiso   1.00
H933   H     0.46503   0.04335   0.69107   0.00000  Uiso   1.00
H934   H     0.53471   0.28995   0.80905   0.00000  Uiso   1.00
H935   H     0.53539   0.04366   0.80865   0.00000  Uiso   1.00
H936   H     0.46561   0.28968   0.69068   0.00000  Uiso   1.00
N937   N     0.50000   0.28402   0.75000   0.00000  Uiso   1.00
N938   N     0.50000   0.04931   0.75000   0.00000  Uiso   1.00
O939   O     0.43988   0.20625   0.75000   0.00000  Uiso   1.00
O940   O     0.56012   0.12709   0.75001   0.00000  Uiso   1.00
O941   O     0.56012   0.20625   0.75001   0.00000  Uiso   1.00
O942   O     0.43988   0.12709   0.74999   0.00000  Uiso   1.00
O943   O     0.49999   0.20627   0.68513   0.00000  Uiso   1.00
O944   O     0.50001   0.12707   0.81487   0.00000  Uiso   1.00
O945   O     0.50001   0.20627   0.81487   0.00000  Uiso   1.00
O946   O     0.49999   0.12707   0.68513   0.00000  Uiso   1.00
C947   C     0.57095   0.14172   0.88484   0.00000  Uiso   1.00
O948   O     0.58428   0.10405   0.89754   0.00000  Uiso   1.00
O949   O     0.58925   0.16539   0.84984   0.00000  Uiso   1.00
H950   H     0.61414   0.14847   0.83897   0.00000  Uiso   1.00
C951   C     0.42784   0.14802   0.61666   0.00000  Uiso   1.00
O952   O     0.41332   0.10975   0.60744   0.00000  Uiso   1.00
O953   O     0.41002   0.17650   0.64870   0.00000  Uiso   1.00
H954   H     0.38374   0.16291   0.65977   0.00000  Uiso   1.00
C955   C     0.42482   0.17186   0.88016   0.00000  Uiso   1.00
O956   O     0.41738   0.20009   0.85081   0.00000  Uiso   1.00
O957   O     0.39752   0.13592   0.88967   0.00000  Uiso   1.00
H958   H     0.37286   0.13673   0.86964   0.00000  Uiso   1.00
C959   C     0.57513   0.17484   0.61958   0.00000  Uiso   1.00
O960   O     0.59909   0.14301   0.61331   0.00000  Uiso   1.00
O961   O     0.58403   0.21049   0.64995   0.00000  Uiso   1.00
H962   H     0.61192   0.20704   0.66342   0.00000  Uiso   1.00
C963   C     0.39589   0.21891   0.95643   0.00000  Uiso   1.00
N964   N     0.37092   0.24166   0.94037   0.00000  Uiso   1.00
C965   C     0.60375   0.21982   0.54232   0.00000  Uiso   1.00
N966   N     0.62863   0.24335   0.55771   0.00000  Uiso   1.00
C967   C     0.38774   0.19051   0.54552   0.00000  Uiso   1.00
O968   O     0.38230   0.22548   0.56822   0.00000  Uiso   1.00
O969   O     0.35804   0.15592   0.54176   0.00000  Uiso   1.00
H970   H     0.33458   0.16150   0.56234   0.00000  Uiso   1.00
C971   C     0.61202   0.18803   0.95406   0.00000  Uiso   1.00
O972   O     0.61713   0.22061   0.92836   0.00000  Uiso   1.00
O973   O     0.64221   0.15479   0.96121   0.00000  Uiso   1.00
H974   H     0.66580   0.15891   0.94053   0.00000  Uiso   1.00
C975   C     0.37469   0.07800   0.73877   0.00000  Uiso   1.00
O976   O     0.38772   0.05706   0.77112   0.00000  Uiso   1.00
O977   O     0.37822   0.05788   0.69670   0.00000  Uiso   1.00
H978   H     0.36522   0.07763   0.67267   0.00000  Uiso   1.00
C979   C     0.62512   0.25399   0.76723   0.00000  Uiso   1.00
O980   O     0.61360   0.27905   0.73681   0.00000  Uiso   1.00
O981   O     0.62071   0.26827   0.81127   0.00000  Uiso   1.00
H982   H     0.60805   0.30048   0.81388   0.00000  Uiso   1.00
C983   C     0.62426   0.07971   0.73058   0.00000  Uiso   1.00
O984   O     0.62438   0.04731   0.75712   0.00000  Uiso   1.00
O985   O     0.60446   0.07503   0.68976   0.00000  Uiso   1.00
H986   H     0.59102   0.04326   0.68614   0.00000  Uiso   1.00
C987   C     0.37491   0.25503   0.76020   0.00000  Uiso   1.00
O988   O     0.38249   0.27227   0.79646   0.00000  Uiso   1.00
O989   O     0.38441   0.27895   0.72130   0.00000  Uiso   1.00
H990   H     0.39813   0.30997   0.72752   0.00000  Uiso   1.00
C991   C     0.75397   0.16659   0.75059   0.00000  Uiso   1.00
C992   C     0.91262   0.16671   0.74935   0.00000  Uiso   1.00
C993   C     0.75991   0.18369   0.52275   0.00000  Uiso   1.00
C994   C     0.90642   0.18249   0.97701   0.00000  Uiso   1.00
C995   C     0.68746   0.12387   0.74481   0.00000  Uiso   1.00
C996   C     0.97888   0.20888   0.75740   0.00000  Uiso   1.00
C997   C     0.97862   0.12439   0.74181   0.00000  Uiso   1.00
C998   C     0.68769   0.20892   0.75701   0.00000  Uiso   1.00
C999   C     0.95722   0.16677   0.74903   0.00000  Uiso   1.00
C1000  C     0.70922   0.16638   0.75129   0.00000  Uiso   1.00
C1001  C     0.81404   0.02473   0.71720   0.00000  Uiso   1.00
C1002  C     0.85268   0.30860   0.78275   0.00000  Uiso   1.00
C1003  C     0.85290   0.02491   0.78262   0.00000  Uiso   1.00
C1004  C     0.81430   0.30844   0.71704   0.00000  Uiso   1.00
C1005  C     0.83366   0.16676   0.66448   0.00000  Uiso   1.00
C1006  C     0.83339   0.16672   0.83551   0.00000  Uiso   1.00
C1007  C     0.86912   0.16268   0.90758   0.00000  Uiso   1.00
C1008  C     0.79720   0.16481   0.59269   0.00000  Uiso   1.00
C1009  C     0.83286   0.16763   0.88390   0.00000  Uiso   1.00
C1010  C     0.83385   0.16805   0.61604   0.00000  Uiso   1.00
C1011  C     0.79632   0.17564   0.90595   0.00000  Uiso   1.00
C1012  C     0.87022   0.17637   0.59381   0.00000  Uiso   1.00
C1013  C     0.79628   0.18029   0.95277   0.00000  Uiso   1.00
C1014  C     0.87009   0.18080   0.54699   0.00000  Uiso   1.00
C1015  C     0.83312   0.17665   0.97649   0.00000  Uiso   1.00
C1016  C     0.83315   0.17701   0.52341   0.00000  Uiso   1.00
C1017  C     0.87008   0.17271   0.95357   0.00000  Uiso   1.00
C1018  C     0.79617   0.17402   0.54647   0.00000  Uiso   1.00
C1019  C     0.76108   0.19130   0.97676   0.00000  Uiso   1.00
C1020  C     0.90531   0.19129   0.52278   0.00000  Uiso   1.00
Cu1021 Cu    0.83333   0.21355   0.75000   0.00000  Uiso   1.00
Cu1022 Cu    0.83333   0.11978   0.75000   0.00000  Uiso   1.00
H1023  H     0.79837   0.04335   0.69107   0.00000  Uiso   1.00
H1024  H     0.86804   0.28995   0.80905   0.00000  Uiso   1.00
H1025  H     0.86872   0.04366   0.80865   0.00000  Uiso   1.00
H1026  H     0.79894   0.28968   0.69068   0.00000  Uiso   1.00
N1027  N     0.83333   0.28402   0.75000   0.00000  Uiso   1.00
N1028  N     0.83333   0.04931   0.75000   0.00000  Uiso   1.00
O1029  O     0.77321   0.20625   0.75000   0.00000  Uiso   1.00
O1030  O     0.89345   0.12709   0.75001   0.00000  Uiso   1.00
O1031  O     0.89345   0.20625   0.75001   0.00000  Uiso   1.00
O1032  O     0.77321   0.12709   0.74999   0.00000  Uiso   1.00
O1033  O     0.83332   0.20627   0.68513   0.00000  Uiso   1.00
O1034  O     0.83334   0.12707   0.81487   0.00000  Uiso   1.00
O1035  O     0.83334   0.20627   0.81487   0.00000  Uiso   1.00
O1036  O     0.83332   0.12707   0.68513   0.00000  Uiso   1.00
C1037  C     0.90428   0.14172   0.88484   0.00000  Uiso   1.00
O1038  O     0.91761   0.10405   0.89754   0.00000  Uiso   1.00
O1039  O     0.92258   0.16539   0.84984   0.00000  Uiso   1.00
H1040  H     0.94747   0.14847   0.83897   0.00000  Uiso   1.00
C1041  C     0.76117   0.14802   0.61666   0.00000  Uiso   1.00
O1042  O     0.74666   0.10975   0.60744   0.00000  Uiso   1.00
O1043  O     0.74336   0.17650   0.64870   0.00000  Uiso   1.00
H1044  H     0.71707   0.16291   0.65977   0.00000  Uiso   1.00
C1045  C     0.75815   0.17186   0.88016   0.00000  Uiso   1.00
O1046  O     0.75071   0.20009   0.85081   0.00000  Uiso   1.00
O1047  O     0.73085   0.13592   0.88967   0.00000  Uiso   1.00
H1048  H     0.70619   0.13673   0.86964   0.00000  Uiso   1.00
C1049  C     0.90846   0.17484   0.61958   0.00000  Uiso   1.00
O1050  O     0.93242   0.14301   0.61331   0.00000  Uiso   1.00
O1051  O     0.91736   0.21049   0.64995   0.00000  Uiso   1.00
H1052  H     0.94525   0.20704   0.66342   0.00000  Uiso   1.00
C1053  C     0.72922   0.21891   0.95643   0.00000  Uiso   1.00
N1054  N     0.70425   0.24166   0.94037   0.00000  Uiso   1.00
C1055  C     0.93708   0.21982   0.54232   0.00000  Uiso   1.00
N1056  N     0.96197   0.24335   0.55771   0.00000  Uiso   1.00
C1057  C     0.72107   0.19051   0.54552   0.00000  Uiso   1.00
O1058  O     0.71564   0.22548   0.56822   0.00000  Uiso   1.00
O1059  O     0.69138   0.15592   0.54176   0.00000  Uiso   1.00
H1060  H     0.66792   0.16150   0.56234   0.00000  Uiso   1.00
C1061  C     0.94536   0.18803   0.95406   0.00000  Uiso   1.00
O1062  O     0.95046   0.22061   0.92836   0.00000  Uiso   1.00
O1063  O     0.97555   0.15479   0.96121   0.00000  Uiso   1.00
H1064  H     0.99914   0.15891   0.94053   0.00000  Uiso   1.00
C1065  C     0.70803   0.07800   0.73877   0.00000  Uiso   1.00
O1066  O     0.72105   0.05706   0.77112   0.00000  Uiso   1.00
O1067  O     0.71155   0.05788   0.69670   0.00000  Uiso   1.00
H1068  H     0.69855   0.07763   0.67267   0.00000  Uiso   1.00
C1069  C     0.95845   0.25399   0.76723   0.00000  Uiso   1.00
O1070  O     0.94693   0.27905   0.73681   0.00000  Uiso   1.00
O1071  O     0.95405   0.26827   0.81127   0.00000  Uiso   1.00
H1072  H     0.94138   0.30048   0.81388   0.00000  Uiso   1.00
C1073  C     0.95759   0.07971   0.73058   0.00000  Uiso   1.00
O1074  O     0.95772   0.04731   0.75712   0.00000  Uiso   1.00
O1075  O     0.93780   0.07503   0.68976   0.00000  Uiso   1.00
H1076  H     0.92436   0.04326   0.68614   0.00000  Uiso   1.00
C1077  C     0.70825   0.25503   0.76020   0.00000  Uiso   1.00
O1078  O     0.71582   0.27227   0.79646   0.00000  Uiso   1.00
O1079  O     0.71774   0.27895   0.72130   0.00000  Uiso   1.00
H1080  H     0.73146   0.30997   0.72752   0.00000  Uiso   1.00
C1081  C     0.08730   0.49992   0.75059   0.00000  Uiso   1.00
C1082  C     0.24595   0.50004   0.74935   0.00000  Uiso   1.00
C1083  C     0.09325   0.51703   0.52275   0.00000  Uiso   1.00
C1084  C     0.23976   0.51582   0.97701   0.00000  Uiso   1.00
C1085  C     0.02079   0.45720   0.74481   0.00000  Uiso   1.00
C1086  C     0.31221   0.54221   0.75740   0.00000  Uiso   1.00
C1087  C     0.31195   0.45772   0.74181   0.00000  Uiso   1.00
C1088  C     0.02102   0.54226   0.75701   0.00000  Uiso   1.00
C1089  C     0.29056   0.50010   0.74903   0.00000  Uiso   1.00
C1090  C     0.04255   0.49971   0.75129   0.00000  Uiso   1.00
C1091  C     0.14737   0.35807   0.71720   0.00000  Uiso   1.00
C1092  C     0.18602   0.64194   0.78275   0.00000  Uiso   1.00
C1093  C     0.18623   0.35824   0.78262   0.00000  Uiso   1.00
C1094  C     0.14763   0.64177   0.71704   0.00000  Uiso   1.00
C1095  C     0.16699   0.50010   0.66448   0.00000  Uiso   1.00
C1096  C     0.16672   0.50006   0.83551   0.00000  Uiso   1.00
C1097  C     0.20245   0.49601   0.90758   0.00000  Uiso   1.00
C1098  C     0.13054   0.49814   0.59269   0.00000  Uiso   1.00
C1099  C     0.16619   0.50096   0.88390   0.00000  Uiso   1.00
C1100  C     0.16718   0.50138   0.61604   0.00000  Uiso   1.00
C1101  C     0.12965   0.50897   0.90595   0.00000  Uiso   1.00
C1102  C     0.20356   0.50970   0.59381   0.00000  Uiso   1.00
C1103  C     0.12961   0.51363   0.95277   0.00000  Uiso   1.00
C1104  C     0.20342   0.51413   0.54699   0.00000  Uiso   1.00
C1105  C     0.16645   0.50999   0.97649   0.00000  Uiso   1.00
C1106  C     0.16648   0.51034   0.52341   0.00000  Uiso   1.00
C1107  C     0.20341   0.50604   0.95357   0.00000  Uiso   1.00
C1108  C     0.12950   0.50735   0.54647   0.00000  Uiso   1.00
C1109  C     0.09441   0.52464   0.97676   0.00000  Uiso   1.00
C1110  C     0.23864   0.52462   0.52278   0.00000  Uiso   1.00
Cu1111 Cu    0.16667   0.54689   0.75000   0.00000  Uiso   1.00
Cu1112 Cu    0.16667   0.45311   0.75000   0.00000  Uiso   1.00
H1113  H     0.13170   0.37668   0.69107   0.00000  Uiso   1.00
H1114  H     0.20137   0.62328   0.80905   0.00000  Uiso   1.00
H1115  H     0.20206   0.37700   0.80865   0.00000  Uiso   1.00
H1116  H     0.13227   0.62301   0.69068   0.00000  Uiso   1.00
N1117  N     0.16667   0.61736   0.75000   0.00000  Uiso   1.00
N1118  N     0.16667   0.38264   0.75000   0.00000  Uiso   1.00
O1119  O     0.10655   0.53958   0.75000   0.00000  Uiso   1.00
O1120  O     0.22679   0.46042   0.75001   0.00000  Uiso   1.00
O1121  O     0.22679   0.53958   0.75001   0.00000  Uiso   1.00
O1122  O     0.10655   0.46042   0.74999   0.00000  Uiso   1.00
O1123  O     0.16666   0.53960   0.68513   0.00000  Uiso   1.00
O1124  O     0.16668   0.46040   0.81487   0.00000  Uiso   1.00
O1125  O     0.16668   0.53960   0.81487   0.00000  Uiso   1.00
O1126  O     0.16666   0.46040   0.68513   0.00000  Uiso   1.00
C1127  C     0.23762   0.47506   0.88484   0.00000  Uiso   1.00
O1128  O     0.25095   0.43739   0.89754   0.00000  Uiso   1.00
O1129  O     0.25592   0.49872   0.84984   0.00000  Uiso   1.00
H1130  H     0.28080   0.48180   0.83897   0.00000  Uiso   1.00
C1131  C     0.09450   0.48136   0.61666   0.00000  Uiso   1.00
O1132  O     0.07999   0.44308   0.60744   0.00000  Uiso   1.00
O1133  O     0.07669   0.50983   0.64870   0.00000  Uiso   1.00
H1134  H     0.05041   0.49624   0.65977   0.00000  Uiso   1.00
C1135  C     0.09148   0.50519   0.88016   0.00000  Uiso   1.00
O1136  O     0.08404   0.53343   0.85081   0.00000  Uiso   1.00
O1137  O     0.06419   0.46925   0.88967   0.00000  Uiso   1.00
H1138  H     0.03952   0.47006   0.86964   0.00000  Uiso   1.00
C1139  C     0.24179   0.50817   0.61958   0.00000  Uiso   1.00
O1140  O     0.26575   0.47635   0.61331   0.00000  Uiso   1.00
O1141  O     0.25070   0.54383   0.64995   0.00000  Uiso   1.00
H1142  H     0.27858   0.54037   0.66342   0.00000  Uiso   1.00
C1143  C     0.06256   0.55224   0.95643   0.00000  Uiso   1.00
N1144  N     0.03758   0.57500   0.94037   0.00000  Uiso   1.00
C1145  C     0.27041   0.55315   0.54232   0.00000  Uiso   1.00
N1146  N     0.29530   0.57668   0.55771   0.00000  Uiso   1.00
C1147  C     0.05440   0.52384   0.54552   0.00000  Uiso   1.00
O1148  O     0.04897   0.55881   0.56822   0.00000  Uiso   1.00
O1149  O     0.02471   0.48926   0.54176   0.00000  Uiso   1.00
H1150  H     0.00125   0.49484   0.56234   0.00000  Uiso   1.00
C1151  C     0.27869   0.52136   0.95406   0.00000  Uiso   1.00
O1152  O     0.28379   0.55394   0.92836   0.00000  Uiso   1.00
O1153  O     0.30888   0.48812   0.96121   0.00000  Uiso   1.00
H1154  H     0.33247   0.49224   0.94053   0.00000  Uiso   1.00
C1155  C     0.04136   0.41133   0.73877   0.00000  Uiso   1.00
O1156  O     0.05439   0.39040   0.77112   0.00000  Uiso   1.00
O1157  O     0.04489   0.39122   0.69670   0.00000  Uiso   1.00
H1158  H     0.03188   0.41096   0.67267   0.00000  Uiso   1.00
C1159  C     0.29178   0.58732   0.76723   0.00000  Uiso   1.00
O1160  O     0.28026   0.61238   0.73681   0.00000  Uiso   1.00
O1161  O     0.28738   0.60160   0.81127   0.00000  Uiso   1.00
H1162  H     0.27472   0.63381   0.81388   0.00000  Uiso   1.00
C1163  C     0.29093   0.41305   0.73058   0.00000  Uiso   1.00
O1164  O     0.29105   0.38064   0.75712   0.00000  Uiso   1.00
O1165  O     0.27113   0.40836   0.68976   0.00000  Uiso   1.00
H1166  H     0.25769   0.37659   0.68614   0.00000  Uiso   1.00
C1167  C     0.04158   0.58836   0.76020   0.00000  Uiso   1.00
O1168  O     0.04916   0.60560   0.79646   0.00000  Uiso   1.00
O1169  O     0.05107   0.61228   0.72130   0.00000  Uiso   1.00
H1170  H     0.06480   0.64331   0.72752   0.00000  Uiso   1.00
C1171  C     0.42063   0.49992   0.75059   0.00000  Uiso   1.00
C1172  C     0.57928   0.50004   0.74935   0.00000  Uiso   1.00
C1173  C     0.42658   0.51703   0.52275   0.00000  Uiso   1.00
C1174  C     0.57309   0.51582   0.97701   0.00000  Uiso   1.00
C1175  C     0.35413   0.45720   0.74481   0.00000  Uiso   1.00
C1176  C     0.64554   0.54221   0.75740   0.00000  Uiso   1.00
C1177  C     0.64528   0.45772   0.74181   0.00000  Uiso   1.00
C1178  C     0.35436   0.54226   0.75701   0.00000  Uiso   1.00
C1179  C     0.62389   0.50010   0.74903   0.00000  Uiso   1.00
C1180  C     0.37588   0.49971   0.75129   0.00000  Uiso   1.00
C1181  C     0.48070   0.35807   0.71720   0.00000  Uiso   1.00
C1182  C     0.51935   0.64194   0.78275   0.00000  Uiso   1.00
C1183  C     0.51957   0.35824   0.78262   0.00000  Uiso   1.00
C1184  C     0.48096   0.64177   0.71704   0.00000  Uiso   1.00
C1185  C     0.50032   0.50010   0.66448   0.00000  Uiso   1.00
C1186  C     0.50006   0.50006   0.83551   0.00000  Uiso   1.00
C1187  C     0.53579   0.49601   0.90758   0.00000  Uiso   1.00
C1188  C     0.46387   0.49814   0.59269   0.00000  Uiso   1.00
C1189  C     0.49952   0.50096   0.88390   0.00000  Uiso   1.00
C1190  C     0.50051   0.50138   0.61604   0.00000  Uiso   1.00
C1191  C     0.46299   0.50897   0.90595   0.00000  Uiso   1.00
C1192  C     0.53689   0.50970   0.59381   0.00000  Uiso   1.00
C1193  C     0.46294   0.51363   0.95277   0.00000  Uiso   1.00
C1194  C     0.53676   0.51413   0.54699   0.00000  Uiso   1.00
C1195  C     0.49979   0.50999   0.97649   0.00000  Uiso   1.00
C1196  C     0.49982   0.51034   0.52341   0.00000  Uiso   1.00
C1197  C     0.53675   0.50604   0.95357   0.00000  Uiso   1.00
C1198  C     0.46284   0.50735   0.54647   0.00000  Uiso   1.00
C1199  C     0.42775   0.52464   0.97676   0.00000  Uiso   1.00
C1200  C     0.57198   0.52462   0.52278   0.00000  Uiso   1.00
Cu1201 Cu    0.50000   0.54689   0.75000   0.00000  Uiso   1.00
Cu1202 Cu    0.50000   0.45311   0.75000   0.00000  Uiso   1.00
H1203  H     0.46503   0.37668   0.69107   0.00000  Uiso   1.00
H1204  H     0.53471   0.62328   0.80905   0.00000  Uiso   1.00
H1205  H     0.53539   0.37700   0.80865   0.00000  Uiso   1.00
H1206  H     0.46561   0.62301   0.69068   0.00000  Uiso   1.00
N1207  N     0.50000   0.61736   0.75000   0.00000  Uiso   1.00
N1208  N     0.50000   0.38264   0.75000   0.00000  Uiso   1.00
O1209  O     0.43988   0.53958   0.75000   0.00000  Uiso   1.00
O1210  O     0.56012   0.46042   0.75001   0.00000  Uiso   1.00
O1211  O     0.56012   0.53958   0.75001   0.00000  Uiso   1.00
O1212  O     0.43988   0.46042   0.74999   0.00000  Uiso   1.00
O1213  O     0.49999   0.53960   0.68513   0.00000  Uiso   1.00
O1214  O     0.50001   0.46040   0.81487   0.00000  Uiso   1.00
O1215  O     0.50001   0.53960   0.81487   0.00000  Uiso   1.00
O1216  O     0.49999   0.46040   0.68513   0.00000  Uiso   1.00
C1217  C     0.57095   0.47506   0.88484   0.00000  Uiso   1.00
O1218  O     0.58428   0.43739   0.89754   0.00000  Uiso   1.00
O1219  O     0.58925   0.49872   0.84984   0.00000  Uiso   1.00
H1220  H     0.61414   0.48180   0.83897   0.00000  Uiso   1.00
C1221  C     0.42784   0.48136   0.61666   0.00000  Uiso   1.00
O1222  O     0.41332   0.44308   0.60744   0.00000  Uiso   1.00
O1223  O     0.41002   0.50983   0.64870   0.00000  Uiso   1.00
H1224  H     0.38374   0.49624   0.65977   0.00000  Uiso   1.00
C1225  C     0.42482   0.50519   0.88016   0.00000  Uiso   1.00
O1226  O     0.41738   0.53343   0.85081   0.00000  Uiso   1.00
O1227  O     0.39752   0.46925   0.88967   0.00000  Uiso   1.00
H1228  H     0.37286   0.47006   0.86964   0.00000  Uiso   1.00
C1229  C     0.57513   0.50817   0.61958   0.00000  Uiso   1.00
O1230  O     0.59909   0.47635   0.61331   0.00000  Uiso   1.00
O1231  O     0.58403   0.54383   0.64995   0.00000  Uiso   1.00
H1232  H     0.61192   0.54037   0.66342   0.00000  Uiso   1.00
C1233  C     0.39589   0.55224   0.95643   0.00000  Uiso   1.00
N1234  N     0.37092   0.57500   0.94037   0.00000  Uiso   1.00
C1235  C     0.60375   0.55315   0.54232   0.00000  Uiso   1.00
N1236  N     0.62863   0.57668   0.55771   0.00000  Uiso   1.00
C1237  C     0.38774   0.52384   0.54552   0.00000  Uiso   1.00
O1238  O     0.38230   0.55881   0.56822   0.00000  Uiso   1.00
O1239  O     0.35804   0.48926   0.54176   0.00000  Uiso   1.00
H1240  H     0.33458   0.49484   0.56234   0.00000  Uiso   1.00
C1241  C     0.61202   0.52136   0.95406   0.00000  Uiso   1.00
O1242  O     0.61713   0.55394   0.92836   0.00000  Uiso   1.00
O1243  O     0.64221   0.48812   0.96121   0.00000  Uiso   1.00
H1244  H     0.66580   0.49224   0.94053   0.00000  Uiso   1.00
C1245  C     0.37469   0.41133   0.73877   0.00000  Uiso   1.00
O1246  O     0.38772   0.39040   0.77112   0.00000  Uiso   1.00
O1247  O     0.37822   0.39122   0.69670   0.00000  Uiso   1.00
H1248  H     0.36522   0.41096   0.67267   0.00000  Uiso   1.00
C1249  C     0.62512   0.58732   0.76723   0.00000  Uiso   1.00
O1250  O     0.61360   0.61238   0.73681   0.00000  Uiso   1.00
O1251  O     0.62071   0.60160   0.81127   0.00000  Uiso   1.00
H1252  H     0.60805   0.63381   0.81388   0.00000  Uiso   1.00
C1253  C     0.62426   0.41305   0.73058   0.00000  Uiso   1.00
O1254  O     0.62438   0.38064   0.75712   0.00000  Uiso   1.00
O1255  O     0.60446   0.40836   0.68976   0.00000  Uiso   1.00
H1256  H     0.59102   0.37659   0.68614   0.00000  Uiso   1.00
C1257  C     0.37491   0.58836   0.76020   0.00000  Uiso   1.00
O1258  O     0.38249   0.60560   0.79646   0.00000  Uiso   1.00
O1259  O     0.38441   0.61228   0.72130   0.00000  Uiso   1.00
H1260  H     0.39813   0.64331   0.72752   0.00000  Uiso   1.00
C1261  C     0.75397   0.49992   0.75059   0.00000  Uiso   1.00
C1262  C     0.91262   0.50004   0.74935   0.00000  Uiso   1.00
C1263  C     0.75991   0.51703   0.52275   0.00000  Uiso   1.00
C1264  C     0.90642   0.51582   0.97701   0.00000  Uiso   1.00
C1265  C     0.68746   0.45720   0.74481   0.00000  Uiso   1.00
C1266  C     0.97888   0.54221   0.75740   0.00000  Uiso   1.00
C1267  C     0.97862   0.45772   0.74181   0.00000  Uiso   1.00
C1268  C     0.68769   0.54226   0.75701   0.00000  Uiso   1.00
C1269  C     0.95722   0.50010   0.74903   0.00000  Uiso   1.00
C1270  C     0.70922   0.49971   0.75129   0.00000  Uiso   1.00
C1271  C     0.81404   0.35807   0.71720   0.00000  Uiso   1.00
C1272  C     0.85268   0.64194   0.78275   0.00000  Uiso   1.00
C1273  C     0.85290   0.35824   0.78262   0.00000  Uiso   1.00
C1274  C     0.81430   0.64177   0.71704   0.00000  Uiso   1.00
C1275  C     0.83366   0.50010   0.66448   0.00000  Uiso   1.00
C1276  C     0.83339   0.50006   0.83551   0.00000  Uiso   1.00
C1277  C     0.86912   0.49601   0.90758   0.00000  Uiso   1.00
C1278  C     0.79720   0.49814   0.59269   0.00000  Uiso   1.00
C1279  C     0.83286   0.50096   0.88390   0.00000  Uiso   1.00
C1280  C     0.83385   0.50138   0.61604   0.00000  Uiso   1.00
C1281  C     0.79632   0.50897   0.90595   0.00000  Uiso   1.00
C1282  C     0.87022   0.50970   0.59381   0.00000  Uiso   1.00
C1283  C     0.79628   0.51363   0.95277   0.00000  Uiso   1.00
C1284  C     0.87009   0.51413   0.54699   0.00000  Uiso   1.00
C1285  C     0.83312   0.50999   0.97649   0.00000  Uiso   1.00
C1286  C     0.83315   0.51034   0.52341   0.00000  Uiso   1.00
C1287  C     0.87008   0.50604   0.95357   0.00000  Uiso   1.00
C1288  C     0.79617   0.50735   0.54647   0.00000  Uiso   1.00
C1289  C     0.76108   0.52464   0.97676   0.00000  Uiso   1.00
C1290  C     0.90531   0.52462   0.52278   0.00000  Uiso   1.00
Cu1291 Cu    0.83333   0.54689   0.75000   0.00000  Uiso   1.00
Cu1292 Cu    0.83333   0.45311   0.75000   0.00000  Uiso   1.00
H1293  H     0.79837   0.37668   0.69107   0.00000  Uiso   1.00
H1294  H     0.86804   0.62328   0.80905   0.00000  Uiso   1.00
H1295  H     0.86872   0.37700   0.80865   0.00000  Uiso   1.00
H1296  H     0.79894   0.62301   0.69068   0.00000  Uiso   1.00
N1297  N     0.83333   0.61736   0.75000   0.00000  Uiso   1.00
N1298  N     0.83333   0.38264   0.75000   0.00000  Uiso   1.00
O1299  O     0.77321   0.53958   0.75000   0.00000  Uiso   1.00
O1300  O     0.89345   0.46042   0.75001   0.00000  Uiso   1.00
O1301  O     0.89345   0.53958   0.75001   0.00000  Uiso   1.00
O1302  O     0.77321   0.46042   0.74999   0.00000  Uiso   1.00
O1303  O     0.83332   0.53960   0.68513   0.00000  Uiso   1.00
O1304  O     0.83334   0.46040   0.81487   0.00000  Uiso   1.00
O1305  O     0.83334   0.53960   0.81487   0.00000  Uiso   1.00
O1306  O     0.83332   0.46040   0.68513   0.00000  Uiso   1.00
C1307  C     0.90428   0.47506   0.88484   0.00000  Uiso   1.00
O1308  O     0.91761   0.43739   0.89754   0.00000  Uiso   1.00
O1309  O     0.92258   0.49872   0.84984   0.00000  Uiso   1.00
H1310  H     0.94747   0.48180   0.83897   0.00000  Uiso   1.00
C1311  C     0.76117   0.48136   0.61666   0.00000  Uiso   1.00
O1312  O     0.74666   0.44308   0.60744   0.00000  Uiso   1.00
O1313  O     0.74336   0.50983   0.64870   0.00000  Uiso   1.00
H1314  H     0.71707   0.49624   0.65977   0.00000  Uiso   1.00
C1315  C     0.75815   0.50519   0.88016   0.00000  Uiso   1.00
O1316  O     0.75071   0.53343   0.85081   0.00000  Uiso   1.00
O1317  O     0.73085   0.46925   0.88967   0.00000  Uiso   1.00
H1318  H     0.70619   0.47006   0.86964   0.00000  Uiso   1.00
C1319  C     0.90846   0.50817   0.61958   0.00000  Uiso   1.00
O1320  O     0.93242   0.47635   0.61331   0.00000  Uiso   1.00
O1321  O     0.91736   0.54383   0.64995   0.00000  Uiso   1.00
H1322  H     0.94525   0.54037   0.66342   0.00000  Uiso   1.00
C1323  C     0.72922   0.55224   0.95643   0.00000  Uiso   1.00
N1324  N     0.70425   0.57500   0.94037   0.00000  Uiso   1.00
C1325  C     0.93708   0.55315   0.54232   0.00000  Uiso   1.00
N1326  N     0.96197   0.57668   0.55771   0.00000  Uiso   1.00
C1327  C     0.72107   0.52384   0.54552   0.00000  Uiso   1.00
O1328  O     0.71564   0.55881   0.56822   0.00000  Uiso   1.00
O1329  O     0.69138   0.48926   0.54176   0.00000  Uiso   1.00
H1330  H     0.66792   0.49484   0.56234   0.00000  Uiso   1.00
C1331  C     0.94536   0.52136   0.95406   0.00000  Uiso   1.00
O1332  O     0.95046   0.55394   0.92836   0.00000  Uiso   1.00
O1333  O     0.97555   0.48812   0.96121   0.00000  Uiso   1.00
H1334  H     0.99914   0.49224   0.94053   0.00000  Uiso   1.00
C1335  C     0.70803   0.41133   0.73877   0.00000  Uiso   1.00
O1336  O     0.72105   0.39040   0.77112   0.00000  Uiso   1.00
O1337  O     0.71155   0.39122   0.69670   0.00000  Uiso   1.00
H1338  H     0.69855   0.41096   0.67267   0.00000  Uiso   1.00
C1339  C     0.95845   0.58732   0.76723   0.00000  Uiso   1.00
O1340  O     0.94693   0.61238   0.73681   0.00000  Uiso   1.00
O1341  O     0.95405   0.60160   0.81127   0.00000  Uiso   1.00
H1342  H     0.94138   0.63381   0.81388   0.00000  Uiso   1.00
C1343  C     0.95759   0.41305   0.73058   0.00000  Uiso   1.00
O1344  O     0.95772   0.38064   0.75712   0.00000  Uiso   1.00
O1345  O     0.93780   0.40836   0.68976   0.00000  Uiso   1.00
H1346  H     0.92436   0.37659   0.68614   0.00000  Uiso   1.00
C1347  C     0.70825   0.58836   0.76020   0.00000  Uiso   1.00
O1348  O     0.71582   0.60560   0.79646   0.00000  Uiso   1.00
O1349  O     0.71774   0.61228   0.72130   0.00000  Uiso   1.00
H1350  H     0.73146   0.64331   0.72752   0.00000  Uiso   1.00
C1351  C     0.08730   0.83325   0.75059   0.00000  Uiso   1.00
C1352  C     0.24595   0.83338   0.74935   0.00000  Uiso   1.00
C1353  C     0.09325   0.85036   0.52275   0.00000  Uiso   1.00
C1354  C     0.23976   0.84915   0.97701   0.00000  Uiso   1.00
C1355  C     0.02079   0.79054   0.74481   0.00000  Uiso   1.00
C1356  C     0.31221   0.87554   0.75740   0.00000  Uiso   1.00
C1357  C     0.31195   0.79106   0.74181   0.00000  Uiso   1.00
C1358  C     0.02102   0.87559   0.75701   0.00000  Uiso   1.00
C1359  C     0.29056   0.83343   0.74903   0.00000  Uiso   1.00
C1360  C     0.04255   0.83304   0.75129   0.00000  Uiso   1.00
C1361  C     0.14737   0.69140   0.71720   0.00000  Uiso   1.00
C1362  C     0.18602   0.97527   0.78275   0.00000  Uiso   1.00
C1363  C     0.18623   0.69157   0.78262   0.00000  Uiso   1.00
C1364  C     0.14763   0.97510   0.71704   0.00000  Uiso   1.00
C1365  C     0.16699   0.83343   0.66448   0.00000  Uiso   1.00
C1366  C     0.16672   0.83339   0.83551   0.00000  Uiso   1.00
C1367  C     0.20245   0.82934   0.90758   0.00000  Uiso   1.00
C1368  C     0.13054   0.83148   0.59269   0.00000  Uiso   1.00
C1369  C     0.16619   0.83429   0.88390   0.00000  Uiso   1.00
C1370  C     0.16718   0.83471   0.61604   0.00000  Uiso   1.00
C1371  C     0.12965   0.84231   0.90595   0.00000  Uiso   1.00
C1372  C     0.20356   0.84304   0.59381   0.00000  Uiso   1.00
C1373  C     0.12961   0.84696   0.95277   0.00000  Uiso   1.00
C1374  C     0.20342   0.84746   0.54699   0.00000  Uiso   1.00
C1375  C     0.16645   0.84332   0.97649   0.00000  Uiso   1.00
C1376  C     0.16648   0.84368   0.52341   0.00000  Uiso   1.00
C1377  C     0.20341   0.83937   0.95357   0.00000  Uiso   1.00
C1378  C     0.12950   0.84068   0.54647   0.00000  Uiso   1.00
C1379  C     0.09441   0.85797   0.97676   0.00000  Uiso   1.00
C1380  C     0.23864   0.85795   0.52278   0.00000  Uiso   1.00
Cu1381 Cu    0.16667   0.88022   0.75000   0.00000  Uiso   1.00
Cu1382 Cu    0.16667   0.78645   0.75000   0.00000  Uiso   1.00
H1383  H     0.13170   0.71001   0.69107   0.00000  Uiso   1.00
H1384  H     0.20137   0.95661   0.80905   0.00000  Uiso   1.00
H1385  H     0.20206   0.71033   0.80865   0.00000  Uiso   1.00
H1386  H     0.13227   0.95634   0.69068   0.00000  Uiso   1.00
N1387  N     0.16667   0.95069   0.75000   0.00000  Uiso   1.00
N1388  N     0.16667   0.71598   0.75000   0.00000  Uiso   1.00
O1389  O     0.10655   0.87291   0.75000   0.00000  Uiso   1.00
O1390  O     0.22679   0.79375   0.75001   0.00000  Uiso   1.00
O1391  O     0.22679   0.87291   0.75001   0.00000  Uiso   1.00
O1392  O     0.10655   0.79375   0.74999   0.00000  Uiso   1.00
O1393  O     0.16666   0.87293   0.68513   0.00000  Uiso   1.00
O1394  O     0.16668   0.79373   0.81487   0.00000  Uiso   1.00
O1395  O     0.16668   0.87293   0.81487   0.00000  Uiso   1.00
O1396  O     0.16666   0.79373   0.68513   0.00000  Uiso   1.00
C1397  C     0.23762   0.80839   0.88484   0.00000  Uiso   1.00
O1398  O     0.25095   0.77072   0.89754   0.00000  Uiso   1.00
O1399  O     0.25592   0.83206   0.84984   0.00000  Uiso   1.00
H1400  H     0.28080   0.81514   0.83897   0.00000  Uiso   1.00
C1401  C     0.09450   0.81469   0.61666   0.00000  Uiso   1.00
O1402  O     0.07999   0.77642   0.60744   0.00000  Uiso   1.00
O1403  O     0.07669   0.84317   0.64870   0.00000  Uiso   1.00
H1404  H     0.05041   0.82958   0.65977   0.00000  Uiso   1.00
C1405  C     0.09148   0.83852   0.88016   0.00000  Uiso   1.00
O1406  O     0.08404   0.86676   0.85081   0.00000  Uiso   1.00
O1407  O     0.06419   0.80259   0.88967   0.00000  Uiso   1.00
H1408  H     0.03952   0.80340   0.86964   0.00000  Uiso   1.00
C1409  C     0.24179   0.84150   0.61958   0.00000  Uiso   1.00
O1410  O     0.26575   0.80968   0.61331   0.00000  Uiso   1.00
O1411  O     0.25070   0.87716   0.64995   0.00000  Uiso   1.00
H1412  H     0.27858   0.87371   0.66342   0.00000  Uiso   1.00
C1413  C     0.06256   0.88558   0.95643   0.00000  Uiso   1.00
N1414  N     0.03758   0.90833   0.94037   0.00000  Uiso   1.00
C1415  C     0.27041   0.88649   0.54232   0.00000  Uiso   1.00
N1416  N     0.29530   0.91001   0.55771   0.00000  Uiso   1.00
C1417  C     0.05440   0.85717   0.54552   0.00000  Uiso   1.00
O1418  O     0.04897   0.89214   0.56822   0.00000  Uiso   1.00
O1419  O     0.02471   0.82259   0.54176   0.00000  Uiso   1.00
H1420  H     0.00125   0.82817   0.56234   0.00000  Uiso   1.00
C1421  C     0.27869   0.85469   0.95406   0.00000  Uiso   1.00
O1422  O     0.28379   0.88728   0.92836   0.00000  Uiso   1.00
O1423  O     0.30888   0.82145   0.96121   0.00000  Uiso   1.00
H1424  H     0.33247   0.82557   0.94053   0.00000  Uiso   1.00
C1425  C     0.04136   0.74466   0.73877   0.00000  Uiso   1.00
O1426  O     0.05439   0.72373   0.77112   0.00000  Uiso   1.00
O1427  O     0.04489   0.72455   0.69670   0.00000  Uiso   1.00
H1428  H     0.03188   0.74430   0.67267   0.00000  Uiso   1.00
C1429  C     0.29178   0.92066   0.76723   0.00000  Uiso   1.00
O1430  O     0.28026   0.94571   0.73681   0.00000  Uiso   1.00
O1431  O     0.28738   0.93494   0.81127   0.00000  Uiso   1.00
H1432  H     0.27472   0.96714   0.81388   0.00000  Uiso   1.00
C1433  C     0.29093   0.74638   0.73058   0.00000  Uiso   1.00
O1434  O     0.29105   0.71398   0.75712   0.00000  Uiso   1.00
O1435  O     0.27113   0.74169   0.68976   0.00000  Uiso   1.00
H1436  H     0.25769   0.70992   0.68614   0.00000  Uiso   1.00
C1437  C     0.04158   0.92169   0.76020   0.00000  Uiso   1.00
O1438  O     0.04916   0.93894   0.79646   0.00000  Uiso   1.00
O1439  O     0.05107   0.94561   0.72130   0.00000  Uiso   1.00
H1440  H     0.06480   0.97664   0.72752   0.00000  Uiso   1.00
C1441  C     0.42063   0.83325   0.75059   0.00000  Uiso   1.00
C1442  C     0.57928   0.83338   0.74935   0.00000  Uiso   1.00
C1443  C     0.42658   0.85036   0.52275   0.00000  Uiso   1.00
C1444  C     0.57309   0.84915   0.97701   0.00000  Uiso   1.00
C1445  C     0.35413   0.79054   0.74481   0.00000  Uiso   1.00
C1446  C     0.64554   0.87554   0.75740   0.00000  Uiso   1.00
C1447  C     0.64528   0.79106   0.74181   0.00000  Uiso   1.00
C1448  C     0.35436   0.87559   0.75701   0.00000  Uiso   1.00
C1449  C     0.62389   0.83343   0.74903   0.00000  Uiso   1.00
C1450  C     0.37588   0.83304   0.75129   0.00000  Uiso   1.00
C1451  C     0.48070   0.69140   0.71720   0.00000  Uiso   1.00
C1452  C     0.51935   0.97527   0.78275   0.00000  Uiso   1.00
C1453  C     0.51957   0.69157   0.78262   0.00000  Uiso   1.00
C1454  C     0.48096   0.97510   0.71704   0.00000  Uiso   1.00
C1455  C     0.50032   0.83343   0.66448   0.00000  Uiso   1.00
C1456  C     0.50006   0.83339   0.83551   0.00000  Uiso   1.00
C1457  C     0.53579   0.82934   0.90758   0.00000  Uiso   1.00
C1458  C     0.46387   0.83148   0.59269   0.00000  Uiso   1.00
C1459  C     0.49952   0.83429   0.88390   0.00000  Uiso   1.00
C1460  C     0.50051   0.83471   0.61604   0.00000  Uiso   1.00
C1461  C     0.46299   0.84231   0.90595   0.00000  Uiso   1.00
C1462  C     0.53689   0.84304   0.59381   0.00000  Uiso   1.00
C1463  C     0.46294   0.84696   0.95277   0.00000  Uiso   1.00
C1464  C     0.53676   0.84746   0.54699   0.00000  Uiso   1.00
C1465  C     0.49979   0.84332   0.97649   0.00000  Uiso   1.00
C1466  C     0.49982   0.84368   0.52341   0.00000  Uiso   1.00
C1467  C     0.53675   0.83937   0.95357   0.00000  Uiso   1.00
C1468  C     0.46284   0.84068   0.54647   0.00000  Uiso   1.00
C1469  C     0.42775   0.85797   0.97676   0.00000  Uiso   1.00
C1470  C     0.57198   0.85795   0.52278   0.00000  Uiso   1.00
Cu1471 Cu    0.50000   0.88022   0.75000   0.00000  Uiso   1.00
Cu1472 Cu    0.50000   0.78645   0.75000   0.00000  Uiso   1.00
H1473  H     0.46503   0.71001   0.69107   0.00000  Uiso   1.00
H1474  H     0.53471   0.95661   0.80905   0.00000  Uiso   1.00
H1475  H     0.53539   0.71033   0.80865   0.00000  Uiso   1.00
H1476  H     0.46561   0.95634   0.69068   0.00000  Uiso   1.00
N1477  N     0.50000   0.95069   0.75000   0.00000  Uiso   1.00
N1478  N     0.50000   0.71598   0.75000   0.00000  Uiso   1.00
O1479  O     0.43988   0.87291   0.75000   0.00000  Uiso   1.00
O1480  O     0.56012   0.79375   0.75001   0.00000  Uiso   1.00
O1481  O     0.56012   0.87291   0.75001   0.00000  Uiso   1.00
O1482  O     0.43988   0.79375   0.74999   0.00000  Uiso   1.00
O1483  O     0.49999   0.87293   0.68513   0.00000  Uiso   1.00
O1484  O     0.50001   0.79373   0.81487   0.00000  Uiso   1.00
O1485  O     0.50001   0.87293   0.81487   0.00000  Uiso   1.00
O1486  O     0.49999   0.79373   0.68513   0.00000  Uiso   1.00
C1487  C     0.57095   0.80839   0.88484   0.00000  Uiso   1.00
O1488  O     0.58428   0.77072   0.89754   0.00000  Uiso   1.00
O1489  O     0.58925   0.83206   0.84984   0.00000  Uiso   1.00
H1490  H     0.61414   0.81514   0.83897   0.00000  Uiso   1.00
C1491  C     0.42784   0.81469   0.61666   0.00000  Uiso   1.00
O1492  O     0.41332   0.77642   0.60744   0.00000  Uiso   1.00
O1493  O     0.41002   0.84317   0.64870   0.00000  Uiso   1.00
H1494  H     0.38374   0.82958   0.65977   0.00000  Uiso   1.00
C1495  C     0.42482   0.83852   0.88016   0.00000  Uiso   1.00
O1496  O     0.41738   0.86676   0.85081   0.00000  Uiso   1.00
O1497  O     0.39752   0.80259   0.88967   0.00000  Uiso   1.00
H1498  H     0.37286   0.80340   0.86964   0.00000  Uiso   1.00
C1499  C     0.57513   0.84150   0.61958   0.00000  Uiso   1.00
O1500  O     0.59909   0.80968   0.61331   0.00000  Uiso   1.00
O1501  O     0.58403   0.87716   0.64995   0.00000  Uiso   1.00
H1502  H     0.61192   0.87371   0.66342   0.00000  Uiso   1.00
C1503  C     0.39589   0.88558   0.95643   0.00000  Uiso   1.00
N1504  N     0.37092   0.90833   0.94037   0.00000  Uiso   1.00
C1505  C     0.60375   0.88649   0.54232   0.00000  Uiso   1.00
N1506  N     0.62863   0.91001   0.55771   0.00000  Uiso   1.00
C1507  C     0.38774   0.85717   0.54552   0.00000  Uiso   1.00
O1508  O     0.38230   0.89214   0.56822   0.00000  Uiso   1.00
O1509  O     0.35804   0.82259   0.54176   0.00000  Uiso   1.00
H1510  H     0.33458   0.82817   0.56234   0.00000  Uiso   1.00
C1511  C     0.61202   0.85469   0.95406   0.00000  Uiso   1.00
O1512  O     0.61713   0.88728   0.92836   0.00000  Uiso   1.00
O1513  O     0.64221   0.82145   0.96121   0.00000  Uiso   1.00
H1514  H     0.66580   0.82557   0.94053   0.00000  Uiso   1.00
C1515  C     0.37469   0.74466   0.73877   0.00000  Uiso   1.00
O1516  O     0.38772   0.72373   0.77112   0.00000  Uiso   1.00
O1517  O     0.37822   0.72455   0.69670   0.00000  Uiso   1.00
H1518  H     0.36522   0.74430   0.67267   0.00000  Uiso   1.00
C1519  C     0.62512   0.92066   0.76723   0.00000  Uiso   1.00
O1520  O     0.61360   0.94571   0.73681   0.00000  Uiso   1.00
O1521  O     0.62071   0.93494   0.81127   0.00000  Uiso   1.00
H1522  H     0.60805   0.96714   0.81388   0.00000  Uiso   1.00
C1523  C     0.62426   0.74638   0.73058   0.00000  Uiso   1.00
O1524  O     0.62438   0.71398   0.75712   0.00000  Uiso   1.00
O1525  O     0.60446   0.74169   0.68976   0.00000  Uiso   1.00
H1526  H     0.59102   0.70992   0.68614   0.00000  Uiso   1.00
C1527  C     0.37491   0.92169   0.76020   0.00000  Uiso   1.00
O1528  O     0.38249   0.93894   0.79646   0.00000  Uiso   1.00
O1529  O     0.38441   0.94561   0.72130   0.00000  Uiso   1.00
H1530  H     0.39813   0.97664   0.72752   0.00000  Uiso   1.00
C1531  C     0.75397   0.83325   0.75059   0.00000  Uiso   1.00
C1532  C     0.91262   0.83338   0.74935   0.00000  Uiso   1.00
C1533  C     0.75991   0.85036   0.52275   0.00000  Uiso   1.00
C1534  C     0.90642   0.84915   0.97701   0.00000  Uiso   1.00
C1535  C     0.68746   0.79054   0.74481   0.00000  Uiso   1.00
C1536  C     0.97888   0.87554   0.75740   0.00000  Uiso   1.00
C1537  C     0.97862   0.79106   0.74181   0.00000  Uiso   1.00
C1538  C     0.68769   0.87559   0.75701   0.00000  Uiso   1.00
C1539  C     0.95722   0.83343   0.74903   0.00000  Uiso   1.00
C1540  C     0.70922   0.83304   0.75129   0.00000  Uiso   1.00
C1541  C     0.81404   0.69140   0.71720   0.00000  Uiso   1.00
C1542  C     0.85268   0.97527   0.78275   0.00000  Uiso   1.00
C1543  C     0.85290   0.69157   0.78262   0.00000  Uiso   1.00
C1544  C     0.81430   0.97510   0.71704   0.00000  Uiso   1.00
C1545  C     0.83366   0.83343   0.66448   0.00000  Uiso   1.00
C1546  C     0.83339   0.83339   0.83551   0.00000  Uiso   1.00
C1547  C     0.86912   0.82934   0.90758   0.00000  Uiso   1.00
C1548  C     0.79720   0.83148   0.59269   0.00000  Uiso   1.00
C1549  C     0.83286   0.83429   0.88390   0.00000  Uiso   1.00
C1550  C     0.83385   0.83471   0.61604   0.00000  Uiso   1.00
C1551  C     0.79632   0.84231   0.90595   0.00000  Uiso   1.00
C1552  C     0.87022   0.84304   0.59381   0.00000  Uiso   1.00
C1553  C     0.79628   0.84696   0.95277   0.00000  Uiso   1.00
C1554  C     0.87009   0.84746   0.54699   0.00000  Uiso   1.00
C1555  C     0.83312   0.84332   0.97649   0.00000  Uiso   1.00
C1556  C     0.83315   0.84368   0.52341   0.00000  Uiso   1.00
C1557  C     0.87008   0.83937   0.95357   0.00000  Uiso   1.00
C1558  C     0.79617   0.84068   0.54647   0.00000  Uiso   1.00
C1559  C     0.76108   0.85797   0.97676   0.00000  Uiso   1.00
C1560  C     0.90531   0.85795   0.52278   0.00000  Uiso   1.00
Cu1561 Cu    0.83333   0.88022   0.75000   0.00000  Uiso   1.00
Cu1562 Cu    0.83333   0.78645   0.75000   0.00000  Uiso   1.00
H1563  H     0.79837   0.71001   0.69107   0.00000  Uiso   1.00
H1564  H     0.86804   0.95661   0.80905   0.00000  Uiso   1.00
H1565  H     0.86872   0.71033   0.80865   0.00000  Uiso   1.00
H1566  H     0.79894   0.95634   0.69068   0.00000  Uiso   1.00
N1567  N     0.83333   0.95069   0.75000   0.00000  Uiso   1.00
N1568  N     0.83333   0.71598   0.75000   0.00000  Uiso   1.00
O1569  O     0.77321   0.87291   0.75000   0.00000  Uiso   1.00
O1570  O     0.89345   0.79375   0.75001   0.00000  Uiso   1.00
O1571  O     0.89345   0.87291   0.75001   0.00000  Uiso   1.00
O1572  O     0.77321   0.79375   0.74999   0.00000  Uiso   1.00
O1573  O     0.83332   0.87293   0.68513   0.00000  Uiso   1.00
O1574  O     0.83334   0.79373   0.81487   0.00000  Uiso   1.00
O1575  O     0.83334   0.87293   0.81487   0.00000  Uiso   1.00
O1576  O     0.83332   0.79373   0.68513   0.00000  Uiso   1.00
C1577  C     0.90428   0.80839   0.88484   0.00000  Uiso   1.00
O1578  O     0.91761   0.77072   0.89754   0.00000  Uiso   1.00
O1579  O     0.92258   0.83206   0.84984   0.00000  Uiso   1.00
H1580  H     0.94747   0.81514   0.83897   0.00000  Uiso   1.00
C1581  C     0.76117   0.81469   0.61666   0.00000  Uiso   1.00
O1582  O     0.74666   0.77642   0.60744   0.00000  Uiso   1.00
O1583  O     0.74336   0.84317   0.64870   0.00000  Uiso   1.00
H1584  H     0.71707   0.82958   0.65977   0.00000  Uiso   1.00
C1585  C     0.75815   0.83852   0.88016   0.00000  Uiso   1.00
O1586  O     0.75071   0.86676   0.85081   0.00000  Uiso   1.00
O1587  O     0.73085   0.80259   0.88967   0.00000  Uiso   1.00
H1588  H     0.70619   0.80340   0.86964   0.00000  Uiso   1.00
C1589  C     0.90846   0.84150   0.61958   0.00000  Uiso   1.00
O1590  O     0.93242   0.80968   0.61331   0.00000  Uiso   1.00
O1591  O     0.91736   0.87716   0.64995   0.00000  Uiso   1.00
H1592  H     0.94525   0.87371   0.66342   0.00000  Uiso   1.00
C1593  C     0.72922   0.88558   0.95643   0.00000  Uiso   1.00
N1594  N     0.70425   0.90833   0.94037   0.00000  Uiso   1.00
C1595  C     0.93708   0.88649   0.54232   0.00000  Uiso   1.00
N1596  N     0.96197   0.91001   0.55771   0.00000  Uiso   1.00
C1597  C     0.72107   0.85717   0.54552   0.00000  Uiso   1.00
O1598  O     0.71564   0.89214   0.56822   0.00000  Uiso   1.00
O1599  O     0.69138   0.82259   0.54176   0.00000  Uiso   1.00
H1600  H     0.66792   0.82817   0.56234   0.00000  Uiso   1.00
C1601  C     0.94536   0.85469   0.95406   0.00000  Uiso   1.00
O1602  O     0.95046   0.88728   0.92836   0.00000  Uiso   1.00
O1603  O     0.97555   0.82145   0.96121   0.00000  Uiso   1.00
H1604  H     0.99914   0.82557   0.94053   0.00000  Uiso   1.00
C1605  C     0.70803   0.74466   0.73877   0.00000  Uiso   1.00
O1606  O     0.72105   0.72373   0.77112   0.00000  Uiso   1.00
O1607  O     0.71155   0.72455   0.69670   0.00000  Uiso   1.00
H1608  H     0.69855   0.74430   0.67267   0.00000  Uiso   1.00
C1609  C     0.95845   0.92066   0.76723   0.00000  Uiso   1.00
O1610  O     0.94693   0.94571   0.73681   0.00000  Uiso   1.00
O1611  O     0.95405   0.93494   0.81127   0.00000  Uiso   1.00
H1612  H     0.94138   0.96714   0.81388   0.00000  Uiso   1.00
C1613  C     0.95759   0.74638   0.73058   0.00000  Uiso   1.00
O1614  O     0.95772   0.71398   0.75712   0.00000  Uiso   1.00
O1615  O     0.93780   0.74169   0.68976   0.00000  Uiso   1.00
H1616  H     0.92436   0.70992   0.68614   0.00000  Uiso   1.00
C1617  C     0.70825   0.92169   0.76020   0.00000  Uiso   1.00
O1618  O     0.71582   0.93894   0.79646   0.00000  Uiso   1.00
O1619  O     0.71774   0.94561   0.72130   0.00000  Uiso   1.00
H1620  H     0.73146   0.97664   0.72752   0.00000  Uiso   1.00
loop_
_geom_bond_atom_site_label_1
_geom_bond_atom_site_label_2
_geom_bond_distance
_geom_bond_site_symmetry_2
_ccdc_geom_bond_type
C1     C10     1.486   .     S
C1     O39     1.297   .     A
C1     O42     1.295   .     A
C2     O41     1.295   .     A
C2     O40     1.295   .     A
C2     C9      1.481   .     S
C3     C28     1.423   .     A
C3     C67     1.478   .     S
C3     C839    1.405   1_554 S
C4     C27     1.421   .     A
C4     C71     1.478   .     S
C4     C840    1.403   .     S
C5     C75     1.487   .     S
C5     C10     1.422   .     A
C5     C187    1.402   1_455 S
C6     C9      1.419   .     A
C6     C79     1.485   .     S
C6     C98     1.399   .     S
C7     C83     1.488   .     S
C7     C9      1.419   .     A
C7     C95     1.402   .     S
C8     C87     1.482   .     S
C8     C10     1.419   .     A
C8     C186    1.399   1_455 S
C11    H33     1.081   .     S
C11    N38     1.366   .     A
C11    C554    1.414   1_545 S
C12    N37     1.366   .     A
C12    H34     1.081   .     S
C12    C283    1.414   .     S
C13    H35     1.082   .     S
C13    N38     1.367   .     A
C13    C552    1.414   1_545 S
C14    H36     1.081   .     S
C14    N37     1.366   .     A
C14    C281    1.414   .     S
C15    C20     1.461   .     S
C15    O43     1.286   .     A
C15    O46     1.292   .     A
C16    O44     1.289   .     A
C16    O45     1.288   .     A
C16    C19     1.459   .     S
C17    C27     1.416   .     A
C17    C47     1.484   .     S
C17    C19     1.403   .     A
C18    C51     1.481   .     S
C18    C28     1.419   .     A
C18    C20     1.404   .     A
C19    C21     1.406   .     A
C20    C22     1.405   .     A
C21    C55     1.486   .     S
C21    C23     1.418   .     A
C22    C59     1.484   .     S
C22    C24     1.417   .     A
C23    C29     1.414   .     A
C23    C25     1.417   .     A
C24    C26     1.417   .     A
C24    C30     1.414   .     A
C25    C27     1.417   .     A
C25    C836    1.415   .     S
C26    C28     1.417   .     A
C26    C835    1.415   1_554 S
C29    C63     1.452   .     S
C29    C813    1.405   .     S
C30    C65     1.452   .     S
C30    C814    1.403   1_554 S
Cu31   O43     1.967   .     S
Cu31   Cu32    2.672   .     S
Cu31   O41     2.007   .     S
Cu31   O39     2.006   .     S
Cu31   N37     2.008   .     S
Cu31   O45     1.967   .     S
Cu32   N38     2.008   .     S
Cu32   O40     2.006   .     S
Cu32   O44     1.967   .     S
Cu32   O46     1.967   .     S
Cu32   O42     2.007   .     S
C47    O49     1.395   .     S
C47    O48     1.223   .     D
O49    H50     1.013   .     S
C51    O52     1.222   .     D
C51    O53     1.396   .     S
O53    H54     1.013   .     S
C55    O56     1.221   .     D
C55    O57     1.397   .     S
O57    H58     1.014   .     S
C59    O60     1.223   .     D
C59    O61     1.397   .     S
O61    H62     1.013   .     S
C63    N64     1.157   .     T
C65    N66     1.157   .     T
C67    O68     1.222   .     D
C67    O69     1.396   .     S
O69    H70     1.012   .     S
C71    O72     1.223   .     D
C71    O73     1.396   .     S
O73    H74     1.011   .     S
C75    O76     1.221   .     D
C75    O77     1.397   .     S
O77    H78     1.013   .     S
C79    O81     1.397   .     S
C79    O80     1.223   .     D
O81    H82     1.013   .     S
C83    O84     1.223   .     D
C83    O85     1.398   .     S
O85    H86     1.014   .     S
C87    O88     1.222   .     D
C87    O89     1.395   .     S
O89    H90     1.011   .     S
C91    C100    1.486   .     S
C91    O129    1.297   .     A
C91    O132    1.295   .     A
C92    O131    1.295   .     A
C92    O130    1.295   .     A
C92    C99     1.481   .     S
C93    C118    1.423   .     A
C93    C157    1.478   .     S
C93    C929    1.405   1_554 S
C94    C117    1.421   .     A
C94    C161    1.478   .     S
C94    C930    1.403   .     S
C95    C165    1.487   .     S
C95    C100    1.422   .     A
C96    C99     1.419   .     A
C96    C169    1.485   .     S
C96    C188    1.399   .     S
C97    C173    1.488   .     S
C97    C99     1.419   .     A
C97    C185    1.402   .     S
C98    C177    1.482   .     S
C98    C100    1.419   .     A
C101   H123    1.081   .     S
C101   N128    1.366   .     A
C101   C644    1.414   1_545 S
C102   N127    1.366   .     A
C102   H124    1.081   .     S
C102   C373    1.414   .     S
C103   H125    1.082   .     S
C103   N128    1.367   .     A
C103   C642    1.414   1_545 S
C104   H126    1.081   .     S
C104   N127    1.366   .     A
C104   C371    1.414   .     S
C105   C110    1.461   .     S
C105   O133    1.286   .     A
C105   O136    1.292   .     A
C106   O134    1.289   .     A
C106   O135    1.288   .     A
C106   C109    1.459   .     S
C107   C117    1.416   .     A
C107   C137    1.484   .     S
C107   C109    1.403   .     A
C108   C141    1.481   .     S
C108   C118    1.419   .     A
C108   C110    1.404   .     A
C109   C111    1.406   .     A
C110   C112    1.405   .     A
C111   C145    1.486   .     S
C111   C113    1.418   .     A
C112   C149    1.484   .     S
C112   C114    1.417   .     A
C113   C119    1.414   .     A
C113   C115    1.417   .     A
C114   C116    1.417   .     A
C114   C120    1.414   .     A
C115   C117    1.417   .     A
C115   C926    1.415   .     S
C116   C118    1.417   .     A
C116   C925    1.415   1_554 S
C119   C153    1.452   .     S
C119   C903    1.405   .     S
C120   C155    1.452   .     S
C120   C904    1.403   1_554 S
Cu121  O133    1.967   .     S
Cu121  Cu122   2.672   .     S
Cu121  O131    2.007   .     S
Cu121  O129    2.006   .     S
Cu121  N127    2.008   .     S
Cu121  O135    1.967   .     S
Cu122  N128    2.008   .     S
Cu122  O130    2.006   .     S
Cu122  O134    1.967   .     S
Cu122  O136    1.967   .     S
Cu122  O132    2.007   .     S
C137   O139    1.395   .     S
C137   O138    1.223   .     D
O139   H140    1.013   .     S
C141   O142    1.222   .     D
C141   O143    1.396   .     S
O143   H144    1.013   .     S
C145   O146    1.221   .     D
C145   O147    1.397   .     S
O147   H148    1.014   .     S
C149   O150    1.223   .     D
C149   O151    1.397   .     S
O151   H152    1.013   .     S
C153   N154    1.157   .     T
C155   N156    1.157   .     T
C157   O158    1.222   .     D
C157   O159    1.396   .     S
O159   H160    1.012   .     S
C161   O162    1.223   .     D
C161   O163    1.396   .     S
O163   H164    1.011   .     S
C165   O166    1.221   .     D
C165   O167    1.397   .     S
O167   H168    1.013   .     S
C169   O171    1.397   .     S
C169   O170    1.223   .     D
O171   H172    1.013   .     S
C173   O174    1.223   .     D
C173   O175    1.398   .     S
O175   H176    1.014   .     S
C177   O178    1.222   .     D
C177   O179    1.395   .     S
O179   H180    1.011   .     S
C181   C190    1.486   .     S
C181   O219    1.297   .     A
C181   O222    1.295   .     A
C182   O221    1.295   .     A
C182   O220    1.295   .     A
C182   C189    1.481   .     S
C183   C208    1.423   .     A
C183   C247    1.478   .     S
C183   C1019   1.405   1_554 S
C184   C207    1.421   .     A
C184   C251    1.478   .     S
C184   C1020   1.403   .     S
C185   C255    1.487   .     S
C185   C190    1.422   .     A
C186   C189    1.419   .     A
C186   C259    1.485   .     S
C186   C8      1.399   1_655 S
C187   C263    1.488   .     S
C187   C189    1.419   .     A
C187   C5      1.402   1_655 S
C188   C267    1.482   .     S
C188   C190    1.419   .     A
C191   H213    1.081   .     S
C191   N218    1.366   .     A
C191   C734    1.414   1_545 S
C192   N217    1.366   .     A
C192   H214    1.081   .     S
C192   C463    1.414   .     S
C193   H215    1.082   .     S
C193   N218    1.367   .     A
C193   C732    1.414   1_545 S
C194   H216    1.081   .     S
C194   N217    1.366   .     A
C194   C461    1.414   .     S
C195   C200    1.461   .     S
C195   O223    1.286   .     A
C195   O226    1.292   .     A
C196   O224    1.289   .     A
C196   O225    1.288   .     A
C196   C199    1.459   .     S
C197   C207    1.416   .     A
C197   C227    1.484   .     S
C197   C199    1.403   .     A
C198   C231    1.481   .     S
C198   C208    1.419   .     A
C198   C200    1.404   .     A
C199   C201    1.406   .     A
C200   C202    1.405   .     A
C201   C235    1.486   .     S
C201   C203    1.418   .     A
C202   C239    1.484   .     S
C202   C204    1.417   .     A
C203   C209    1.414   .     A
C203   C205    1.417   .     A
C204   C206    1.417   .     A
C204   C210    1.414   .     A
C205   C207    1.417   .     A
C205   C1016   1.415   .     S
C206   C208    1.417   .     A
C206   C1015   1.415   1_554 S
C209   C243    1.452   .     S
C209   C993    1.405   .     S
C210   C245    1.452   .     S
C210   C994    1.403   1_554 S
Cu211  O223    1.967   .     S
Cu211  Cu212   2.672   .     S
Cu211  O221    2.007   .     S
Cu211  O219    2.006   .     S
Cu211  N217    2.008   .     S
Cu211  O225    1.967   .     S
Cu212  N218    2.008   .     S
Cu212  O220    2.006   .     S
Cu212  O224    1.967   .     S
Cu212  O226    1.967   .     S
Cu212  O222    2.007   .     S
C227   O229    1.395   .     S
C227   O228    1.223   .     D
O229   H230    1.013   .     S
C231   O232    1.222   .     D
C231   O233    1.396   .     S
O233   H234    1.013   .     S
C235   O236    1.221   .     D
C235   O237    1.397   .     S
O237   H238    1.014   .     S
C239   O240    1.223   .     D
C239   O241    1.397   .     S
O241   H242    1.013   .     S
C243   N244    1.157   .     T
C245   N246    1.157   .     T
C247   O248    1.222   .     D
C247   O249    1.396   .     S
O249   H250    1.012   .     S
C251   O252    1.223   .     D
C251   O253    1.396   .     S
O253   H254    1.011   .     S
C255   O256    1.221   .     D
C255   O257    1.397   .     S
O257   H258    1.013   .     S
C259   O261    1.397   .     S
C259   O260    1.223   .     D
O261   H262    1.013   .     S
C263   O264    1.223   .     D
C263   O265    1.398   .     S
O265   H266    1.014   .     S
C267   O268    1.222   .     D
C267   O269    1.395   .     S
O269   H270    1.011   .     S
C271   C280    1.486   .     S
C271   O309    1.297   .     A
C271   O312    1.295   .     A
C272   O311    1.295   .     A
C272   O310    1.295   .     A
C272   C279    1.481   .     S
C273   C298    1.423   .     A
C273   C337    1.478   .     S
C273   C1109   1.405   1_554 S
C274   C297    1.421   .     A
C274   C341    1.478   .     S
C274   C1110   1.403   .     S
C275   C345    1.487   .     S
C275   C280    1.422   .     A
C275   C457    1.402   1_455 S
C276   C279    1.419   .     A
C276   C349    1.485   .     S
C276   C368    1.399   .     S
C277   C353    1.488   .     S
C277   C279    1.419   .     A
C277   C365    1.402   .     S
C278   C357    1.482   .     S
C278   C280    1.419   .     A
C278   C456    1.399   1_455 S
C281   H303    1.081   .     S
C281   N308    1.366   .     A
C282   N307    1.366   .     A
C282   H304    1.081   .     S
C282   C553    1.414   .     S
C283   H305    1.082   .     S
C283   N308    1.367   .     A
C284   H306    1.081   .     S
C284   N307    1.366   .     A
C284   C551    1.414   .     S
C285   C290    1.461   .     S
C285   O313    1.286   .     A
C285   O316    1.292   .     A
C286   O314    1.289   .     A
C286   O315    1.288   .     A
C286   C289    1.459   .     S
C287   C297    1.416   .     A
C287   C317    1.484   .     S
C287   C289    1.403   .     A
C288   C321    1.481   .     S
C288   C298    1.419   .     A
C288   C290    1.404   .     A
C289   C291    1.406   .     A
C290   C292    1.405   .     A
C291   C325    1.486   .     S
C291   C293    1.418   .     A
C292   C329    1.484   .     S
C292   C294    1.417   .     A
C293   C299    1.414   .     A
C293   C295    1.417   .     A
C294   C296    1.417   .     A
C294   C300    1.414   .     A
C295   C297    1.417   .     A
C295   C1106   1.415   .     S
C296   C298    1.417   .     A
C296   C1105   1.415   1_554 S
C299   C333    1.452   .     S
C299   C1083   1.405   .     S
C300   C335    1.452   .     S
C300   C1084   1.403   1_554 S
Cu301  O313    1.967   .     S
Cu301  Cu302   2.672   .     S
Cu301  O311    2.007   .     S
Cu301  O309    2.006   .     S
Cu301  N307    2.008   .     S
Cu301  O315    1.967   .     S
Cu302  N308    2.008   .     S
Cu302  O310    2.006   .     S
Cu302  O314    1.967   .     S
Cu302  O316    1.967   .     S
Cu302  O312    2.007   .     S
C317   O319    1.395   .     S
C317   O318    1.223   .     D
O319   H320    1.013   .     S
C321   O322    1.222   .     D
C321   O323    1.396   .     S
O323   H324    1.013   .     S
C325   O326    1.221   .     D
C325   O327    1.397   .     S
O327   H328    1.014   .     S
C329   O330    1.223   .     D
C329   O331    1.397   .     S
O331   H332    1.013   .     S
C333   N334    1.157   .     T
C335   N336    1.157   .     T
C337   O338    1.222   .     D
C337   O339    1.396   .     S
O339   H340    1.012   .     S
C341   O342    1.223   .     D
C341   O343    1.396   .     S
O343   H344    1.011   .     S
C345   O346    1.221   .     D
C345   O347    1.397   .     S
O347   H348    1.013   .     S
C349   O351    1.397   .     S
C349   O350    1.223   .     D
O351   H352    1.013   .     S
C353   O354    1.223   .     D
C353   O355    1.398   .     S
O355   H356    1.014   .     S
C357   O358    1.222   .     D
C357   O359    1.395   .     S
O359   H360    1.011   .     S
C361   C370    1.486   .     S
C361   O399    1.297   .     A
C361   O402    1.295   .     A
C362   O401    1.295   .     A
C362   O400    1.295   .     A
C362   C369    1.481   .     S
C363   C388    1.423   .     A
C363   C427    1.478   .     S
C363   C1199   1.405   1_554 S
C364   C387    1.421   .     A
C364   C431    1.478   .     S
C364   C1200   1.403   .     S
C365   C435    1.487   .     S
C365   C370    1.422   .     A
C366   C369    1.419   .     A
C366   C439    1.485   .     S
C366   C458    1.399   .     S
C367   C443    1.488   .     S
C367   C369    1.419   .     A
C367   C455    1.402   .     S
C368   C447    1.482   .     S
C368   C370    1.419   .     A
C371   H393    1.081   .     S
C371   N398    1.366   .     A
C372   N397    1.366   .     A
C372   H394    1.081   .     S
C372   C643    1.414   .     S
C373   H395    1.082   .     S
C373   N398    1.367   .     A
C374   H396    1.081   .     S
C374   N397    1.366   .     A
C374   C641    1.414   .     S
C375   C380    1.461   .     S
C375   O403    1.286   .     A
C375   O406    1.292   .     A
C376   O404    1.289   .     A
C376   O405    1.288   .     A
C376   C379    1.459   .     S
C377   C387    1.416   .     A
C377   C407    1.484   .     S
C377   C379    1.403   .     A
C378   C411    1.481   .     S
C378   C388    1.419   .     A
C378   C380    1.404   .     A
C379   C381    1.406   .     A
C380   C382    1.405   .     A
C381   C415    1.486   .     S
C381   C383    1.418   .     A
C382   C419    1.484   .     S
C382   C384    1.417   .     A
C383   C389    1.414   .     A
C383   C385    1.417   .     A
C384   C386    1.417   .     A
C384   C390    1.414   .     A
C385   C387    1.417   .     A
C385   C1196   1.415   .     S
C386   C388    1.417   .     A
C386   C1195   1.415   1_554 S
C389   C423    1.452   .     S
C389   C1173   1.405   .     S
C390   C425    1.452   .     S
C390   C1174   1.403   1_554 S
Cu391  O403    1.967   .     S
Cu391  Cu392   2.672   .     S
Cu391  O401    2.007   .     S
Cu391  O399    2.006   .     S
Cu391  N397    2.008   .     S
Cu391  O405    1.967   .     S
Cu392  N398    2.008   .     S
Cu392  O400    2.006   .     S
Cu392  O404    1.967   .     S
Cu392  O406    1.967   .     S
Cu392  O402    2.007   .     S
C407   O409    1.395   .     S
C407   O408    1.223   .     D
O409   H410    1.013   .     S
C411   O412    1.222   .     D
C411   O413    1.396   .     S
O413   H414    1.013   .     S
C415   O416    1.221   .     D
C415   O417    1.397   .     S
O417   H418    1.014   .     S
C419   O420    1.223   .     D
C419   O421    1.397   .     S
O421   H422    1.013   .     S
C423   N424    1.157   .     T
C425   N426    1.157   .     T
C427   O428    1.222   .     D
C427   O429    1.396   .     S
O429   H430    1.012   .     S
C431   O432    1.223   .     D
C431   O433    1.396   .     S
O433   H434    1.011   .     S
C435   O436    1.221   .     D
C435   O437    1.397   .     S
O437   H438    1.013   .     S
C439   O441    1.397   .     S
C439   O440    1.223   .     D
O441   H442    1.013   .     S
C443   O444    1.223   .     D
C443   O445    1.398   .     S
O445   H446    1.014   .     S
C447   O448    1.222   .     D
C447   O449    1.395   .     S
O449   H450    1.011   .     S
C451   C460    1.486   .     S
C451   O489    1.297   .     A
C451   O492    1.295   .     A
C452   O491    1.295   .     A
C452   O490    1.295   .     A
C452   C459    1.481   .     S
C453   C478    1.423   .     A
C453   C517    1.478   .     S
C453   C1289   1.405   1_554 S
C454   C477    1.421   .     A
C454   C521    1.478   .     S
C454   C1290   1.403   .     S
C455   C525    1.487   .     S
C455   C460    1.422   .     A
C456   C459    1.419   .     A
C456   C529    1.485   .     S
C456   C278    1.399   1_655 S
C457   C533    1.488   .     S
C457   C459    1.419   .     A
C457   C275    1.402   1_655 S
C458   C537    1.482   .     S
C458   C460    1.419   .     A
C461   H483    1.081   .     S
C461   N488    1.366   .     A
C462   N487    1.366   .     A
C462   H484    1.081   .     S
C462   C733    1.414   .     S
C463   H485    1.082   .     S
C463   N488    1.367   .     A
C464   H486    1.081   .     S
C464   N487    1.366   .     A
C464   C731    1.414   .     S
C465   C470    1.461   .     S
C465   O493    1.286   .     A
C465   O496    1.292   .     A
C466   O494    1.289   .     A
C466   O495    1.288   .     A
C466   C469    1.459   .     S
C467   C477    1.416   .     A
C467   C497    1.484   .     S
C467   C469    1.403   .     A
C468   C501    1.481   .     S
C468   C478    1.419   .     A
C468   C470    1.404   .     A
C469   C471    1.406   .     A
C470   C472    1.405   .     A
C471   C505    1.486   .     S
C471   C473    1.418   .     A
C472   C509    1.484   .     S
C472   C474    1.417   .     A
C473   C479    1.414   .     A
C473   C475    1.417   .     A
C474   C476    1.417   .     A
C474   C480    1.414   .     A
C475   C477    1.417   .     A
C475   C1286   1.415   .     S
C476   C478    1.417   .     A
C476   C1285   1.415   1_554 S
C479   C513    1.452   .     S
C479   C1263   1.405   .     S
C480   C515    1.452   .     S
C480   C1264   1.403   1_554 S
Cu481  O493    1.967   .     S
Cu481  Cu482   2.672   .     S
Cu481  O491    2.007   .     S
Cu481  O489    2.006   .     S
Cu481  N487    2.008   .     S
Cu481  O495    1.967   .     S
Cu482  N488    2.008   .     S
Cu482  O490    2.006   .     S
Cu482  O494    1.967   .     S
Cu482  O496    1.967   .     S
Cu482  O492    2.007   .     S
C497   O499    1.395   .     S
C497   O498    1.223   .     D
O499   H500    1.013   .     S
C501   O502    1.222   .     D
C501   O503    1.396   .     S
O503   H504    1.013   .     S
C505   O506    1.221   .     D
C505   O507    1.397   .     S
O507   H508    1.014   .     S
C509   O510    1.223   .     D
C509   O511    1.397   .     S
O511   H512    1.013   .     S
C513   N514    1.157   .     T
C515   N516    1.157   .     T
C517   O518    1.222   .     D
C517   O519    1.396   .     S
O519   H520    1.012   .     S
C521   O522    1.223   .     D
C521   O523    1.396   .     S
O523   H524    1.011   .     S
C525   O526    1.221   .     D
C525   O527    1.397   .     S
O527   H528    1.013   .     S
C529   O531    1.397   .     S
C529   O530    1.223   .     D
O531   H532    1.013   .     S
C533   O534    1.223   .     D
C533   O535    1.398   .     S
O535   H536    1.014   .     S
C537   O538    1.222   .     D
C537   O539    1.395   .     S
O539   H540    1.011   .     S
C541   C550    1.486   .     S
C541   O579    1.297   .     A
C541   O582    1.295   .     A
C542   O581    1.295   .     A
C542   O580    1.295   .     A
C542   C549    1.481   .     S
C543   C568    1.423   .     A
C543   C607    1.478   .     S
C543   C1379   1.405   1_554 S
C544   C567    1.421   .     A
C544   C611    1.478   .     S
C544   C1380   1.403   .     S
C545   C615    1.487   .     S
C545   C550    1.422   .     A
C545   C727    1.402   1_455 S
C546   C549    1.419   .     A
C546   C619    1.485   .     S
C546   C638    1.399   .     S
C547   C623    1.488   .     S
C547   C549    1.419   .     A
C547   C635    1.402   .     S
C548   C627    1.482   .     S
C548   C550    1.419   .     A
C548   C726    1.399   1_455 S
C551   H573    1.081   .     S
C551   N578    1.366   .     A
C552   N577    1.366   .     A
C552   H574    1.081   .     S
C552   C13     1.414   1_565 S
C553   H575    1.082   .     S
C553   N578    1.367   .     A
C554   H576    1.081   .     S
C554   N577    1.366   .     A
C554   C11     1.414   1_565 S
C555   C560    1.461   .     S
C555   O583    1.286   .     A
C555   O586    1.292   .     A
C556   O584    1.289   .     A
C556   O585    1.288   .     A
C556   C559    1.459   .     S
C557   C567    1.416   .     A
C557   C587    1.484   .     S
C557   C559    1.403   .     A
C558   C591    1.481   .     S
C558   C568    1.419   .     A
C558   C560    1.404   .     A
C559   C561    1.406   .     A
C560   C562    1.405   .     A
C561   C595    1.486   .     S
C561   C563    1.418   .     A
C562   C599    1.484   .     S
C562   C564    1.417   .     A
C563   C569    1.414   .     A
C563   C565    1.417   .     A
C564   C566    1.417   .     A
C564   C570    1.414   .     A
C565   C567    1.417   .     A
C565   C1376   1.415   .     S
C566   C568    1.417   .     A
C566   C1375   1.415   1_554 S
C569   C603    1.452   .     S
C569   C1353   1.405   .     S
C570   C605    1.452   .     S
C570   C1354   1.403   1_554 S
Cu571  O583    1.967   .     S
Cu571  Cu572   2.672   .     S
Cu571  O581    2.007   .     S
Cu571  O579    2.006   .     S
Cu571  N577    2.008   .     S
Cu571  O585    1.967   .     S
Cu572  N578    2.008   .     S
Cu572  O580    2.006   .     S
Cu572  O584    1.967   .     S
Cu572  O586    1.967   .     S
Cu572  O582    2.007   .     S
C587   O589    1.395   .     S
C587   O588    1.223   .     D
O589   H590    1.013   .     S
C591   O592    1.222   .     D
C591   O593    1.396   .     S
O593   H594    1.013   .     S
C595   O596    1.221   .     D
C595   O597    1.397   .     S
O597   H598    1.014   .     S
C599   O600    1.223   .     D
C599   O601    1.397   .     S
O601   H602    1.013   .     S
C603   N604    1.157   .     T
C605   N606    1.157   .     T
C607   O608    1.222   .     D
C607   O609    1.396   .     S
O609   H610    1.012   .     S
C611   O612    1.223   .     D
C611   O613    1.396   .     S
O613   H614    1.011   .     S
C615   O616    1.221   .     D
C615   O617    1.397   .     S
O617   H618    1.013   .     S
C619   O621    1.397   .     S
C619   O620    1.223   .     D
O621   H622    1.013   .     S
C623   O624    1.223   .     D
C623   O625    1.398   .     S
O625   H626    1.014   .     S
C627   O628    1.222   .     D
C627   O629    1.395   .     S
O629   H630    1.011   .     S
C631   C640    1.486   .     S
C631   O669    1.297   .     A
C631   O672    1.295   .     A
C632   O671    1.295   .     A
C632   O670    1.295   .     A
C632   C639    1.481   .     S
C633   C658    1.423   .     A
C633   C697    1.478   .     S
C633   C1469   1.405   1_554 S
C634   C657    1.421   .     A
C634   C701    1.478   .     S
C634   C1470   1.403   .     S
C635   C705    1.487   .     S
C635   C640    1.422   .     A
C636   C639    1.419   .     A
C636   C709    1.485   .     S
C636   C728    1.399   .     S
C637   C713    1.488   .     S
C637   C639    1.419   .     A
C637   C725    1.402   .     S
C638   C717    1.482   .     S
C638   C640    1.419   .     A
C641   H663    1.081   .     S
C641   N668    1.366   .     A
C642   N667    1.366   .     A
C642   H664    1.081   .     S
C642   C103    1.414   1_565 S
C643   H665    1.082   .     S
C643   N668    1.367   .     A
C644   H666    1.081   .     S
C644   N667    1.366   .     A
C644   C101    1.414   1_565 S
C645   C650    1.461   .     S
C645   O673    1.286   .     A
C645   O676    1.292   .     A
C646   O674    1.289   .     A
C646   O675    1.288   .     A
C646   C649    1.459   .     S
C647   C657    1.416   .     A
C647   C677    1.484   .     S
C647   C649    1.403   .     A
C648   C681    1.481   .     S
C648   C658    1.419   .     A
C648   C650    1.404   .     A
C649   C651    1.406   .     A
C650   C652    1.405   .     A
C651   C685    1.486   .     S
C651   C653    1.418   .     A
C652   C689    1.484   .     S
C652   C654    1.417   .     A
C653   C659    1.414   .     A
C653   C655    1.417   .     A
C654   C656    1.417   .     A
C654   C660    1.414   .     A
C655   C657    1.417   .     A
C655   C1466   1.415   .     S
C656   C658    1.417   .     A
C656   C1465   1.415   1_554 S
C659   C693    1.452   .     S
C659   C1443   1.405   .     S
C660   C695    1.452   .     S
C660   C1444   1.403   1_554 S
Cu661  O673    1.967   .     S
Cu661  Cu662   2.672   .     S
Cu661  O671    2.007   .     S
Cu661  O669    2.006   .     S
Cu661  N667    2.008   .     S
Cu661  O675    1.967   .     S
Cu662  N668    2.008   .     S
Cu662  O670    2.006   .     S
Cu662  O674    1.967   .     S
Cu662  O676    1.967   .     S
Cu662  O672    2.007   .     S
C677   O679    1.395   .     S
C677   O678    1.223   .     D
O679   H680    1.013   .     S
C681   O682    1.222   .     D
C681   O683    1.396   .     S
O683   H684    1.013   .     S
C685   O686    1.221   .     D
C685   O687    1.397   .     S
O687   H688    1.014   .     S
C689   O690    1.223   .     D
C689   O691    1.397   .     S
O691   H692    1.013   .     S
C693   N694    1.157   .     T
C695   N696    1.157   .     T
C697   O698    1.222   .     D
C697   O699    1.396   .     S
O699   H700    1.012   .     S
C701   O702    1.223   .     D
C701   O703    1.396   .     S
O703   H704    1.011   .     S
C705   O706    1.221   .     D
C705   O707    1.397   .     S
O707   H708    1.013   .     S
C709   O711    1.397   .     S
C709   O710    1.223   .     D
O711   H712    1.013   .     S
C713   O714    1.223   .     D
C713   O715    1.398   .     S
O715   H716    1.014   .     S
C717   O718    1.222   .     D
C717   O719    1.395   .     S
O719   H720    1.011   .     S
C721   C730    1.486   .     S
C721   O759    1.297   .     A
C721   O762    1.295   .     A
C722   O761    1.295   .     A
C722   O760    1.295   .     A
C722   C729    1.481   .     S
C723   C748    1.423   .     A
C723   C787    1.478   .     S
C723   C1559   1.405   1_554 S
C724   C747    1.421   .     A
C724   C791    1.478   .     S
C724   C1560   1.403   .     S
C725   C795    1.487   .     S
C725   C730    1.422   .     A
C726   C729    1.419   .     A
C726   C799    1.485   .     S
C726   C548    1.399   1_655 S
C727   C803    1.488   .     S
C727   C729    1.419   .     A
C727   C545    1.402   1_655 S
C728   C807    1.482   .     S
C728   C730    1.419   .     A
C731   H753    1.081   .     S
C731   N758    1.366   .     A
C732   N757    1.366   .     A
C732   H754    1.081   .     S
C732   C193    1.414   1_565 S
C733   H755    1.082   .     S
C733   N758    1.367   .     A
C734   H756    1.081   .     S
C734   N757    1.366   .     A
C734   C191    1.414   1_565 S
C735   C740    1.461   .     S
C735   O763    1.286   .     A
C735   O766    1.292   .     A
C736   O764    1.289   .     A
C736   O765    1.288   .     A
C736   C739    1.459   .     S
C737   C747    1.416   .     A
C737   C767    1.484   .     S
C737   C739    1.403   .     A
C738   C771    1.481   .     S
C738   C748    1.419   .     A
C738   C740    1.404   .     A
C739   C741    1.406   .     A
C740   C742    1.405   .     A
C741   C775    1.486   .     S
C741   C743    1.418   .     A
C742   C779    1.484   .     S
C742   C744    1.417   .     A
C743   C749    1.414   .     A
C743   C745    1.417   .     A
C744   C746    1.417   .     A
C744   C750    1.414   .     A
C745   C747    1.417   .     A
C745   C1556   1.415   .     S
C746   C748    1.417   .     A
C746   C1555   1.415   1_554 S
C749   C783    1.452   .     S
C749   C1533   1.405   .     S
C750   C785    1.452   .     S
C750   C1534   1.403   1_554 S
Cu751  O763    1.967   .     S
Cu751  Cu752   2.672   .     S
Cu751  O761    2.007   .     S
Cu751  O759    2.006   .     S
Cu751  N757    2.008   .     S
Cu751  O765    1.967   .     S
Cu752  N758    2.008   .     S
Cu752  O760    2.006   .     S
Cu752  O764    1.967   .     S
Cu752  O766    1.967   .     S
Cu752  O762    2.007   .     S
C767   O769    1.395   .     S
C767   O768    1.223   .     D
O769   H770    1.013   .     S
C771   O772    1.222   .     D
C771   O773    1.396   .     S
O773   H774    1.013   .     S
C775   O776    1.221   .     D
C775   O777    1.397   .     S
O777   H778    1.014   .     S
C779   O780    1.223   .     D
C779   O781    1.397   .     S
O781   H782    1.013   .     S
C783   N784    1.157   .     T
C785   N786    1.157   .     T
C787   O788    1.222   .     D
C787   O789    1.396   .     S
O789   H790    1.012   .     S
C791   O792    1.223   .     D
C791   O793    1.396   .     S
O793   H794    1.011   .     S
C795   O796    1.221   .     D
C795   O797    1.397   .     S
O797   H798    1.013   .     S
C799   O801    1.397   .     S
C799   O800    1.223   .     D
O801   H802    1.013   .     S
C803   O804    1.223   .     D
C803   O805    1.398   .     S
O805   H806    1.014   .     S
C807   O808    1.222   .     D
C807   O809    1.395   .     S
O809   H810    1.011   .     S
C811   C820    1.486   .     S
C811   O849    1.297   .     A
C811   O852    1.295   .     A
C812   O851    1.295   .     A
C812   O850    1.295   .     A
C812   C819    1.481   .     S
C813   C838    1.423   .     A
C813   C877    1.478   .     S
C814   C837    1.421   .     A
C814   C881    1.478   .     S
C814   C30     1.403   1_556 S
C815   C885    1.487   .     S
C815   C820    1.422   .     A
C815   C997    1.402   1_455 S
C816   C819    1.419   .     A
C816   C889    1.485   .     S
C816   C908    1.399   .     S
C817   C893    1.488   .     S
C817   C819    1.419   .     A
C817   C905    1.402   .     S
C818   C897    1.482   .     S
C818   C820    1.419   .     A
C818   C996    1.399   1_455 S
C821   H843    1.081   .     S
C821   N848    1.366   .     A
C821   C1364   1.414   1_545 S
C822   N847    1.366   .     A
C822   H844    1.081   .     S
C822   C1093   1.414   .     S
C823   H845    1.082   .     S
C823   N848    1.367   .     A
C823   C1362   1.414   1_545 S
C824   H846    1.081   .     S
C824   N847    1.366   .     A
C824   C1091   1.414   .     S
C825   C830    1.461   .     S
C825   O853    1.286   .     A
C825   O856    1.292   .     A
C826   O854    1.289   .     A
C826   O855    1.288   .     A
C826   C829    1.459   .     S
C827   C837    1.416   .     A
C827   C857    1.484   .     S
C827   C829    1.403   .     A
C828   C861    1.481   .     S
C828   C838    1.419   .     A
C828   C830    1.404   .     A
C829   C831    1.406   .     A
C830   C832    1.405   .     A
C831   C865    1.486   .     S
C831   C833    1.418   .     A
C832   C869    1.484   .     S
C832   C834    1.417   .     A
C833   C839    1.414   .     A
C833   C835    1.417   .     A
C834   C836    1.417   .     A
C834   C840    1.414   .     A
C835   C837    1.417   .     A
C835   C26     1.415   1_556 S
C836   C838    1.417   .     A
C839   C873    1.452   .     S
C839   C3      1.405   1_556 S
C840   C875    1.452   .     S
Cu841  O853    1.967   .     S
Cu841  Cu842   2.672   .     S
Cu841  O851    2.007   .     S
Cu841  O849    2.006   .     S
Cu841  N847    2.008   .     S
Cu841  O855    1.967   .     S
Cu842  N848    2.008   .     S
Cu842  O850    2.006   .     S
Cu842  O854    1.967   .     S
Cu842  O856    1.967   .     S
Cu842  O852    2.007   .     S
C857   O859    1.395   .     S
C857   O858    1.223   .     D
O859   H860    1.013   .     S
C861   O862    1.222   .     D
C861   O863    1.396   .     S
O863   H864    1.013   .     S
C865   O866    1.221   .     D
C865   O867    1.397   .     S
O867   H868    1.014   .     S
C869   O870    1.223   .     D
C869   O871    1.397   .     S
O871   H872    1.013   .     S
C873   N874    1.157   .     T
C875   N876    1.157   .     T
C877   O878    1.222   .     D
C877   O879    1.396   .     S
O879   H880    1.012   .     S
C881   O882    1.223   .     D
C881   O883    1.396   .     S
O883   H884    1.011   .     S
C885   O886    1.221   .     D
C885   O887    1.397   .     S
O887   H888    1.013   .     S
C889   O891    1.397   .     S
C889   O890    1.223   .     D
O891   H892    1.013   .     S
C893   O894    1.223   .     D
C893   O895    1.398   .     S
O895   H896    1.014   .     S
C897   O898    1.222   .     D
C897   O899    1.395   .     S
O899   H900    1.011   .     S
C901   C910    1.486   .     S
C901   O939    1.297   .     A
C901   O942    1.295   .     A
C902   O941    1.295   .     A
C902   O940    1.295   .     A
C902   C909    1.481   .     S
C903   C928    1.423   .     A
C903   C967    1.478   .     S
C904   C927    1.421   .     A
C904   C971    1.478   .     S
C904   C120    1.403   1_556 S
C905   C975    1.487   .     S
C905   C910    1.422   .     A
C906   C909    1.419   .     A
C906   C979    1.485   .     S
C906   C998    1.399   .     S
C907   C983    1.488   .     S
C907   C909    1.419   .     A
C907   C995    1.402   .     S
C908   C987    1.482   .     S
C908   C910    1.419   .     A
C911   H933    1.081   .     S
C911   N938    1.366   .     A
C911   C1454   1.414   1_545 S
C912   N937    1.366   .     A
C912   H934    1.081   .     S
C912   C1183   1.414   .     S
C913   H935    1.082   .     S
C913   N938    1.367   .     A
C913   C1452   1.414   1_545 S
C914   H936    1.081   .     S
C914   N937    1.366   .     A
C914   C1181   1.414   .     S
C915   C920    1.461   .     S
C915   O943    1.286   .     A
C915   O946    1.292   .     A
C916   O944    1.289   .     A
C916   O945    1.288   .     A
C916   C919    1.459   .     S
C917   C927    1.416   .     A
C917   C947    1.484   .     S
C917   C919    1.403   .     A
C918   C951    1.481   .     S
C918   C928    1.419   .     A
C918   C920    1.404   .     A
C919   C921    1.406   .     A
C920   C922    1.405   .     A
C921   C955    1.486   .     S
C921   C923    1.418   .     A
C922   C959    1.484   .     S
C922   C924    1.417   .     A
C923   C929    1.414   .     A
C923   C925    1.417   .     A
C924   C926    1.417   .     A
C924   C930    1.414   .     A
C925   C927    1.417   .     A
C925   C116    1.415   1_556 S
C926   C928    1.417   .     A
C929   C963    1.452   .     S
C929   C93     1.405   1_556 S
C930   C965    1.452   .     S
Cu931  O943    1.967   .     S
Cu931  Cu932   2.672   .     S
Cu931  O941    2.007   .     S
Cu931  O939    2.006   .     S
Cu931  N937    2.008   .     S
Cu931  O945    1.967   .     S
Cu932  N938    2.008   .     S
Cu932  O940    2.006   .     S
Cu932  O944    1.967   .     S
Cu932  O946    1.967   .     S
Cu932  O942    2.007   .     S
C947   O949    1.395   .     S
C947   O948    1.223   .     D
O949   H950    1.013   .     S
C951   O952    1.222   .     D
C951   O953    1.396   .     S
O953   H954    1.013   .     S
C955   O956    1.221   .     D
C955   O957    1.397   .     S
O957   H958    1.014   .     S
C959   O960    1.223   .     D
C959   O961    1.397   .     S
O961   H962    1.013   .     S
C963   N964    1.157   .     T
C965   N966    1.157   .     T
C967   O968    1.222   .     D
C967   O969    1.396   .     S
O969   H970    1.012   .     S
C971   O972    1.223   .     D
C971   O973    1.396   .     S
O973   H974    1.011   .     S
C975   O976    1.221   .     D
C975   O977    1.397   .     S
O977   H978    1.013   .     S
C979   O981    1.397   .     S
C979   O980    1.223   .     D
O981   H982    1.013   .     S
C983   O984    1.223   .     D
C983   O985    1.398   .     S
O985   H986    1.014   .     S
C987   O988    1.222   .     D
C987   O989    1.395   .     S
O989   H990    1.011   .     S
C991   C1000   1.486   .     S
C991   O1029   1.297   .     A
C991   O1032   1.295   .     A
C992   O1031   1.295   .     A
C992   O1030   1.295   .     A
C992   C999    1.481   .     S
C993   C1018   1.423   .     A
C993   C1057   1.478   .     S
C994   C1017   1.421   .     A
C994   C1061   1.478   .     S
C994   C210    1.403   1_556 S
C995   C1065   1.487   .     S
C995   C1000   1.422   .     A
C996   C999    1.419   .     A
C996   C1069   1.485   .     S
C996   C818    1.399   1_655 S
C997   C1073   1.488   .     S
C997   C999    1.419   .     A
C997   C815    1.402   1_655 S
C998   C1077   1.482   .     S
C998   C1000   1.419   .     A
C1001  H1023   1.081   .     S
C1001  N1028   1.366   .     A
C1001  C1544   1.414   1_545 S
C1002  N1027   1.366   .     A
C1002  H1024   1.081   .     S
C1002  C1273   1.414   .     S
C1003  H1025   1.082   .     S
C1003  N1028   1.367   .     A
C1003  C1542   1.414   1_545 S
C1004  H1026   1.081   .     S
C1004  N1027   1.366   .     A
C1004  C1271   1.414   .     S
C1005  C1010   1.461   .     S
C1005  O1033   1.286   .     A
C1005  O1036   1.292   .     A
C1006  O1034   1.289   .     A
C1006  O1035   1.288   .     A
C1006  C1009   1.459   .     S
C1007  C1017   1.416   .     A
C1007  C1037   1.484   .     S
C1007  C1009   1.403   .     A
C1008  C1041   1.481   .     S
C1008  C1018   1.419   .     A
C1008  C1010   1.404   .     A
C1009  C1011   1.406   .     A
C1010  C1012   1.405   .     A
C1011  C1045   1.486   .     S
C1011  C1013   1.418   .     A
C1012  C1049   1.484   .     S
C1012  C1014   1.417   .     A
C1013  C1019   1.414   .     A
C1013  C1015   1.417   .     A
C1014  C1016   1.417   .     A
C1014  C1020   1.414   .     A
C1015  C1017   1.417   .     A
C1015  C206    1.415   1_556 S
C1016  C1018   1.417   .     A
C1019  C1053   1.452   .     S
C1019  C183    1.405   1_556 S
C1020  C1055   1.452   .     S
Cu1021 O1033   1.967   .     S
Cu1021 Cu1022  2.672   .     S
Cu1021 O1031   2.007   .     S
Cu1021 O1029   2.006   .     S
Cu1021 N1027   2.008   .     S
Cu1021 O1035   1.967   .     S
Cu1022 N1028   2.008   .     S
Cu1022 O1030   2.006   .     S
Cu1022 O1034   1.967   .     S
Cu1022 O1036   1.967   .     S
Cu1022 O1032   2.007   .     S
C1037  O1039   1.395   .     S
C1037  O1038   1.223   .     D
O1039  H1040   1.013   .     S
C1041  O1042   1.222   .     D
C1041  O1043   1.396   .     S
O1043  H1044   1.013   .     S
C1045  O1046   1.221   .     D
C1045  O1047   1.397   .     S
O1047  H1048   1.014   .     S
C1049  O1050   1.223   .     D
C1049  O1051   1.397   .     S
O1051  H1052   1.013   .     S
C1053  N1054   1.157   .     T
C1055  N1056   1.157   .     T
C1057  O1058   1.222   .     D
C1057  O1059   1.396   .     S
O1059  H1060   1.012   .     S
C1061  O1062   1.223   .     D
C1061  O1063   1.396   .     S
O1063  H1064   1.011   .     S
C1065  O1066   1.221   .     D
C1065  O1067   1.397   .     S
O1067  H1068   1.013   .     S
C1069  O1071   1.397   .     S
C1069  O1070   1.223   .     D
O1071  H1072   1.013   .     S
C1073  O1074   1.223   .     D
C1073  O1075   1.398   .     S
O1075  H1076   1.014   .     S
C1077  O1078   1.222   .     D
C1077  O1079   1.395   .     S
O1079  H1080   1.011   .     S
C1081  C1090   1.486   .     S
C1081  O1119   1.297   .     A
C1081  O1122   1.295   .     A
C1082  O1121   1.295   .     A
C1082  O1120   1.295   .     A
C1082  C1089   1.481   .     S
C1083  C1108   1.423   .     A
C1083  C1147   1.478   .     S
C1084  C1107   1.421   .     A
C1084  C1151   1.478   .     S
C1084  C300    1.403   1_556 S
C1085  C1155   1.487   .     S
C1085  C1090   1.422   .     A
C1085  C1267   1.402   1_455 S
C1086  C1089   1.419   .     A
C1086  C1159   1.485   .     S
C1086  C1178   1.399   .     S
C1087  C1163   1.488   .     S
C1087  C1089   1.419   .     A
C1087  C1175   1.402   .     S
C1088  C1167   1.482   .     S
C1088  C1090   1.419   .     A
C1088  C1266   1.399   1_455 S
C1091  H1113   1.081   .     S
C1091  N1118   1.366   .     A
C1092  N1117   1.366   .     A
C1092  H1114   1.081   .     S
C1092  C1363   1.414   .     S
C1093  H1115   1.082   .     S
C1093  N1118   1.367   .     A
C1094  H1116   1.081   .     S
C1094  N1117   1.366   .     A
C1094  C1361   1.414   .     S
C1095  C1100   1.461   .     S
C1095  O1123   1.286   .     A
C1095  O1126   1.292   .     A
C1096  O1124   1.289   .     A
C1096  O1125   1.288   .     A
C1096  C1099   1.459   .     S
C1097  C1107   1.416   .     A
C1097  C1127   1.484   .     S
C1097  C1099   1.403   .     A
C1098  C1131   1.481   .     S
C1098  C1108   1.419   .     A
C1098  C1100   1.404   .     A
C1099  C1101   1.406   .     A
C1100  C1102   1.405   .     A
C1101  C1135   1.486   .     S
C1101  C1103   1.418   .     A
C1102  C1139   1.484   .     S
C1102  C1104   1.417   .     A
C1103  C1109   1.414   .     A
C1103  C1105   1.417   .     A
C1104  C1106   1.417   .     A
C1104  C1110   1.414   .     A
C1105  C1107   1.417   .     A
C1105  C296    1.415   1_556 S
C1106  C1108   1.417   .     A
C1109  C1143   1.452   .     S
C1109  C273    1.405   1_556 S
C1110  C1145   1.452   .     S
Cu1111 O1123   1.967   .     S
Cu1111 Cu1112  2.672   .     S
Cu1111 O1121   2.007   .     S
Cu1111 O1119   2.006   .     S
Cu1111 N1117   2.008   .     S
Cu1111 O1125   1.967   .     S
Cu1112 N1118   2.008   .     S
Cu1112 O1120   2.006   .     S
Cu1112 O1124   1.967   .     S
Cu1112 O1126   1.967   .     S
Cu1112 O1122   2.007   .     S
C1127  O1129   1.395   .     S
C1127  O1128   1.223   .     D
O1129  H1130   1.013   .     S
C1131  O1132   1.222   .     D
C1131  O1133   1.396   .     S
O1133  H1134   1.013   .     S
C1135  O1136   1.221   .     D
C1135  O1137   1.397   .     S
O1137  H1138   1.014   .     S
C1139  O1140   1.223   .     D
C1139  O1141   1.397   .     S
O1141  H1142   1.013   .     S
C1143  N1144   1.157   .     T
C1145  N1146   1.157   .     T
C1147  O1148   1.222   .     D
C1147  O1149   1.396   .     S
O1149  H1150   1.012   .     S
C1151  O1152   1.223   .     D
C1151  O1153   1.396   .     S
O1153  H1154   1.011   .     S
C1155  O1156   1.221   .     D
C1155  O1157   1.397   .     S
O1157  H1158   1.013   .     S
C1159  O1161   1.397   .     S
C1159  O1160   1.223   .     D
O1161  H1162   1.013   .     S
C1163  O1164   1.223   .     D
C1163  O1165   1.398   .     S
O1165  H1166   1.014   .     S
C1167  O1168   1.222   .     D
C1167  O1169   1.395   .     S
O1169  H1170   1.011   .     S
C1171  C1180   1.486   .     S
C1171  O1209   1.297   .     A
C1171  O1212   1.295   .     A
C1172  O1211   1.295   .     A
C1172  O1210   1.295   .     A
C1172  C1179   1.481   .     S
C1173  C1198   1.423   .     A
C1173  C1237   1.478   .     S
C1174  C1197   1.421   .     A
C1174  C1241   1.478   .     S
C1174  C390    1.403   1_556 S
C1175  C1245   1.487   .     S
C1175  C1180   1.422   .     A
C1176  C1179   1.419   .     A
C1176  C1249   1.485   .     S
C1176  C1268   1.399   .     S
C1177  C1253   1.488   .     S
C1177  C1179   1.419   .     A
C1177  C1265   1.402   .     S
C1178  C1257   1.482   .     S
C1178  C1180   1.419   .     A
C1181  H1203   1.081   .     S
C1181  N1208   1.366   .     A
C1182  N1207   1.366   .     A
C1182  H1204   1.081   .     S
C1182  C1453   1.414   .     S
C1183  H1205   1.082   .     S
C1183  N1208   1.367   .     A
C1184  H1206   1.081   .     S
C1184  N1207   1.366   .     A
C1184  C1451   1.414   .     S
C1185  C1190   1.461   .     S
C1185  O1213   1.286   .     A
C1185  O1216   1.292   .     A
C1186  O1214   1.289   .     A
C1186  O1215   1.288   .     A
C1186  C1189   1.459   .     S
C1187  C1197   1.416   .     A
C1187  C1217   1.484   .     S
C1187  C1189   1.403   .     A
C1188  C1221   1.481   .     S
C1188  C1198   1.419   .     A
C1188  C1190   1.404   .     A
C1189  C1191   1.406   .     A
C1190  C1192   1.405   .     A
C1191  C1225   1.486   .     S
C1191  C1193   1.418   .     A
C1192  C1229   1.484   .     S
C1192  C1194   1.417   .     A
C1193  C1199   1.414   .     A
C1193  C1195   1.417   .     A
C1194  C1196   1.417   .     A
C1194  C1200   1.414   .     A
C1195  C1197   1.417   .     A
C1195  C386    1.415   1_556 S
C1196  C1198   1.417   .     A
C1199  C1233   1.452   .     S
C1199  C363    1.405   1_556 S
C1200  C1235   1.452   .     S
Cu1201 O1213   1.967   .     S
Cu1201 Cu1202  2.672   .     S
Cu1201 O1211   2.007   .     S
Cu1201 O1209   2.006   .     S
Cu1201 N1207   2.008   .     S
Cu1201 O1215   1.967   .     S
Cu1202 N1208   2.008   .     S
Cu1202 O1210   2.006   .     S
Cu1202 O1214   1.967   .     S
Cu1202 O1216   1.967   .     S
Cu1202 O1212   2.007   .     S
C1217  O1219   1.395   .     S
C1217  O1218   1.223   .     D
O1219  H1220   1.013   .     S
C1221  O1222   1.222   .     D
C1221  O1223   1.396   .     S
O1223  H1224   1.013   .     S
C1225  O1226   1.221   .     D
C1225  O1227   1.397   .     S
O1227  H1228   1.014   .     S
C1229  O1230   1.223   .     D
C1229  O1231   1.397   .     S
O1231  H1232   1.013   .     S
C1233  N1234   1.157   .     T
C1235  N1236   1.157   .     T
C1237  O1238   1.222   .     D
C1237  O1239   1.396   .     S
O1239  H1240   1.012   .     S
C1241  O1242   1.223   .     D
C1241  O1243   1.396   .     S
O1243  H1244   1.011   .     S
C1245  O1246   1.221   .     D
C1245  O1247   1.397   .     S
O1247  H1248   1.013   .     S
C1249  O1251   1.397   .     S
C1249  O1250   1.223   .     D
O1251  H1252   1.013   .     S
C1253  O1254   1.223   .     D
C1253  O1255   1.398   .     S
O1255  H1256   1.014   .     S
C1257  O1258   1.222   .     D
C1257  O1259   1.395   .     S
O1259  H1260   1.011   .     S
C1261  C1270   1.486   .     S
C1261  O1299   1.297   .     A
C1261  O1302   1.295   .     A
C1262  O1301   1.295   .     A
C1262  O1300   1.295   .     A
C1262  C1269   1.481   .     S
C1263  C1288   1.423   .     A
C1263  C1327   1.478   .     S
C1264  C1287   1.421   .     A
C1264  C1331   1.478   .     S
C1264  C480    1.403   1_556 S
C1265  C1335   1.487   .     S
C1265  C1270   1.422   .     A
C1266  C1269   1.419   .     A
C1266  C1339   1.485   .     S
C1266  C1088   1.399   1_655 S
C1267  C1343   1.488   .     S
C1267  C1269   1.419   .     A
C1267  C1085   1.402   1_655 S
C1268  C1347   1.482   .     S
C1268  C1270   1.419   .     A
C1271  H1293   1.081   .     S
C1271  N1298   1.366   .     A
C1272  N1297   1.366   .     A
C1272  H1294   1.081   .     S
C1272  C1543   1.414   .     S
C1273  H1295   1.082   .     S
C1273  N1298   1.367   .     A
C1274  H1296   1.081   .     S
C1274  N1297   1.366   .     A
C1274  C1541   1.414   .     S
C1275  C1280   1.461   .     S
C1275  O1303   1.286   .     A
C1275  O1306   1.292   .     A
C1276  O1304   1.289   .     A
C1276  O1305   1.288   .     A
C1276  C1279   1.459   .     S
C1277  C1287   1.416   .     A
C1277  C1307   1.484   .     S
C1277  C1279   1.403   .     A
C1278  C1311   1.481   .     S
C1278  C1288   1.419   .     A
C1278  C1280   1.404   .     A
C1279  C1281   1.406   .     A
C1280  C1282   1.405   .     A
C1281  C1315   1.486   .     S
C1281  C1283   1.418   .     A
C1282  C1319   1.484   .     S
C1282  C1284   1.417   .     A
C1283  C1289   1.414   .     A
C1283  C1285   1.417   .     A
C1284  C1286   1.417   .     A
C1284  C1290   1.414   .     A
C1285  C1287   1.417   .     A
C1285  C476    1.415   1_556 S
C1286  C1288   1.417   .     A
C1289  C1323   1.452   .     S
C1289  C453    1.405   1_556 S
C1290  C1325   1.452   .     S
Cu1291 O1303   1.967   .     S
Cu1291 Cu1292  2.672   .     S
Cu1291 O1301   2.007   .     S
Cu1291 O1299   2.006   .     S
Cu1291 N1297   2.008   .     S
Cu1291 O1305   1.967   .     S
Cu1292 N1298   2.008   .     S
Cu1292 O1300   2.006   .     S
Cu1292 O1304   1.967   .     S
Cu1292 O1306   1.967   .     S
Cu1292 O1302   2.007   .     S
C1307  O1309   1.395   .     S
C1307  O1308   1.223   .     D
O1309  H1310   1.013   .     S
C1311  O1312   1.222   .     D
C1311  O1313   1.396   .     S
O1313  H1314   1.013   .     S
C1315  O1316   1.221   .     D
C1315  O1317   1.397   .     S
O1317  H1318   1.014   .     S
C1319  O1320   1.223   .     D
C1319  O1321   1.397   .     S
O1321  H1322   1.013   .     S
C1323  N1324   1.157   .     T
C1325  N1326   1.157   .     T
C1327  O1328   1.222   .     D
C1327  O1329   1.396   .     S
O1329  H1330   1.012   .     S
C1331  O1332   1.223   .     D
C1331  O1333   1.396   .     S
O1333  H1334   1.011   .     S
C1335  O1336   1.221   .     D
C1335  O1337   1.397   .     S
O1337  H1338   1.013   .     S
C1339  O1341   1.397   .     S
C1339  O1340   1.223   .     D
O1341  H1342   1.013   .     S
C1343  O1344   1.223   .     D
C1343  O1345   1.398   .     S
O1345  H1346   1.014   .     S
C1347  O1348   1.222   .     D
C1347  O1349   1.395   .     S
O1349  H1350   1.011   .     S
C1351  C1360   1.486   .     S
C1351  O1389   1.297   .     A
C1351  O1392   1.295   .     A
C1352  O1391   1.295   .     A
C1352  O1390   1.295   .     A
C1352  C1359   1.481   .     S
C1353  C1378   1.423   .     A
C1353  C1417   1.478   .     S
C1354  C1377   1.421   .     A
C1354  C1421   1.478   .     S
C1354  C570    1.403   1_556 S
C1355  C1425   1.487   .     S
C1355  C1360   1.422   .     A
C1355  C1537   1.402   1_455 S
C1356  C1359   1.419   .     A
C1356  C1429   1.485   .     S
C1356  C1448   1.399   .     S
C1357  C1433   1.488   .     S
C1357  C1359   1.419   .     A
C1357  C1445   1.402   .     S
C1358  C1437   1.482   .     S
C1358  C1360   1.419   .     A
C1358  C1536   1.399   1_455 S
C1361  H1383   1.081   .     S
C1361  N1388   1.366   .     A
C1362  N1387   1.366   .     A
C1362  H1384   1.081   .     S
C1362  C823    1.414   1_565 S
C1363  H1385   1.082   .     S
C1363  N1388   1.367   .     A
C1364  H1386   1.081   .     S
C1364  N1387   1.366   .     A
C1364  C821    1.414   1_565 S
C1365  C1370   1.461   .     S
C1365  O1393   1.286   .     A
C1365  O1396   1.292   .     A
C1366  O1394   1.289   .     A
C1366  O1395   1.288   .     A
C1366  C1369   1.459   .     S
C1367  C1377   1.416   .     A
C1367  C1397   1.484   .     S
C1367  C1369   1.403   .     A
C1368  C1401   1.481   .     S
C1368  C1378   1.419   .     A
C1368  C1370   1.404   .     A
C1369  C1371   1.406   .     A
C1370  C1372   1.405   .     A
C1371  C1405   1.486   .     S
C1371  C1373   1.418   .     A
C1372  C1409   1.484   .     S
C1372  C1374   1.417   .     A
C1373  C1379   1.414   .     A
C1373  C1375   1.417   .     A
C1374  C1376   1.417   .     A
C1374  C1380   1.414   .     A
C1375  C1377   1.417   .     A
C1375  C566    1.415   1_556 S
C1376  C1378   1.417   .     A
C1379  C1413   1.452   .     S
C1379  C543    1.405   1_556 S
C1380  C1415   1.452   .     S
Cu1381 O1393   1.967   .     S
Cu1381 Cu1382  2.672   .     S
Cu1381 O1391   2.007   .     S
Cu1381 O1389   2.006   .     S
Cu1381 N1387   2.008   .     S
Cu1381 O1395   1.967   .     S
Cu1382 N1388   2.008   .     S
Cu1382 O1390   2.006   .     S
Cu1382 O1394   1.967   .     S
Cu1382 O1396   1.967   .     S
Cu1382 O1392   2.007   .     S
C1397  O1399   1.395   .     S
C1397  O1398   1.223   .     D
O1399  H1400   1.013   .     S
C1401  O1402   1.222   .     D
C1401  O1403   1.396   .     S
O1403  H1404   1.013   .     S
C1405  O1406   1.221   .     D
C1405  O1407   1.397   .     S
O1407  H1408   1.014   .     S
C1409  O1410   1.223   .     D
C1409  O1411   1.397   .     S
O1411  H1412   1.013   .     S
C1413  N1414   1.157   .     T
C1415  N1416   1.157   .     T
C1417  O1418   1.222   .     D
C1417  O1419   1.396   .     S
O1419  H1420   1.012   .     S
C1421  O1422   1.223   .     D
C1421  O1423   1.396   .     S
O1423  H1424   1.011   .     S
C1425  O1426   1.221   .     D
C1425  O1427   1.397   .     S
O1427  H1428   1.013   .     S
C1429  O1431   1.397   .     S
C1429  O1430   1.223   .     D
O1431  H1432   1.013   .     S
C1433  O1434   1.223   .     D
C1433  O1435   1.398   .     S
O1435  H1436   1.014   .     S
C1437  O1438   1.222   .     D
C1437  O1439   1.395   .     S
O1439  H1440   1.011   .     S
C1441  C1450   1.486   .     S
C1441  O1479   1.297   .     A
C1441  O1482   1.295   .     A
C1442  O1481   1.295   .     A
C1442  O1480   1.295   .     A
C1442  C1449   1.481   .     S
C1443  C1468   1.423   .     A
C1443  C1507   1.478   .     S
C1444  C1467   1.421   .     A
C1444  C1511   1.478   .     S
C1444  C660    1.403   1_556 S
C1445  C1515   1.487   .     S
C1445  C1450   1.422   .     A
C1446  C1449   1.419   .     A
C1446  C1519   1.485   .     S
C1446  C1538   1.399   .     S
C1447  C1523   1.488   .     S
C1447  C1449   1.419   .     A
C1447  C1535   1.402   .     S
C1448  C1527   1.482   .     S
C1448  C1450   1.419   .     A
C1451  H1473   1.081   .     S
C1451  N1478   1.366   .     A
C1452  N1477   1.366   .     A
C1452  H1474   1.081   .     S
C1452  C913    1.414   1_565 S
C1453  H1475   1.082   .     S
C1453  N1478   1.367   .     A
C1454  H1476   1.081   .     S
C1454  N1477   1.366   .     A
C1454  C911    1.414   1_565 S
C1455  C1460   1.461   .     S
C1455  O1483   1.286   .     A
C1455  O1486   1.292   .     A
C1456  O1484   1.289   .     A
C1456  O1485   1.288   .     A
C1456  C1459   1.459   .     S
C1457  C1467   1.416   .     A
C1457  C1487   1.484   .     S
C1457  C1459   1.403   .     A
C1458  C1491   1.481   .     S
C1458  C1468   1.419   .     A
C1458  C1460   1.404   .     A
C1459  C1461   1.406   .     A
C1460  C1462   1.405   .     A
C1461  C1495   1.486   .     S
C1461  C1463   1.418   .     A
C1462  C1499   1.484   .     S
C1462  C1464   1.417   .     A
C1463  C1469   1.414   .     A
C1463  C1465   1.417   .     A
C1464  C1466   1.417   .     A
C1464  C1470   1.414   .     A
C1465  C1467   1.417   .     A
C1465  C656    1.415   1_556 S
C1466  C1468   1.417   .     A
C1469  C1503   1.452   .     S
C1469  C633    1.405   1_556 S
C1470  C1505   1.452   .     S
Cu1471 O1483   1.967   .     S
Cu1471 Cu1472  2.672   .     S
Cu1471 O1481   2.007   .     S
Cu1471 O1479   2.006   .     S
Cu1471 N1477   2.008   .     S
Cu1471 O1485   1.967   .     S
Cu1472 N1478   2.008   .     S
Cu1472 O1480   2.006   .     S
Cu1472 O1484   1.967   .     S
Cu1472 O1486   1.967   .     S
Cu1472 O1482   2.007   .     S
C1487  O1489   1.395   .     S
C1487  O1488   1.223   .     D
O1489  H1490   1.013   .     S
C1491  O1492   1.222   .     D
C1491  O1493   1.396   .     S
O1493  H1494   1.013   .     S
C1495  O1496   1.221   .     D
C1495  O1497   1.397   .     S
O1497  H1498   1.014   .     S
C1499  O1500   1.223   .     D
C1499  O1501   1.397   .     S
O1501  H1502   1.013   .     S
C1503  N1504   1.157   .     T
C1505  N1506   1.157   .     T
C1507  O1508   1.222   .     D
C1507  O1509   1.396   .     S
O1509  H1510   1.012   .     S
C1511  O1512   1.223   .     D
C1511  O1513   1.396   .     S
O1513  H1514   1.011   .     S
C1515  O1516   1.221   .     D
C1515  O1517   1.397   .     S
O1517  H1518   1.013   .     S
C1519  O1521   1.397   .     S
C1519  O1520   1.223   .     D
O1521  H1522   1.013   .     S
C1523  O1524   1.223   .     D
C1523  O1525   1.398   .     S
O1525  H1526   1.014   .     S
C1527  O1528   1.222   .     D
C1527  O1529   1.395   .     S
O1529  H1530   1.011   .     S
C1531  C1540   1.486   .     S
C1531  O1569   1.297   .     A
C1531  O1572   1.295   .     A
C1532  O1571   1.295   .     A
C1532  O1570   1.295   .     A
C1532  C1539   1.481   .     S
C1533  C1558   1.423   .     A
C1533  C1597   1.478   .     S
C1534  C1557   1.421   .     A
C1534  C1601   1.478   .     S
C1534  C750    1.403   1_556 S
C1535  C1605   1.487   .     S
C1535  C1540   1.422   .     A
C1536  C1539   1.419   .     A
C1536  C1609   1.485   .     S
C1536  C1358   1.399   1_655 S
C1537  C1613   1.488   .     S
C1537  C1539   1.419   .     A
C1537  C1355   1.402   1_655 S
C1538  C1617   1.482   .     S
C1538  C1540   1.419   .     A
C1541  H1563   1.081   .     S
C1541  N1568   1.366   .     A
C1542  N1567   1.366   .     A
C1542  H1564   1.081   .     S
C1542  C1003   1.414   1_565 S
C1543  H1565   1.082   .     S
C1543  N1568   1.367   .     A
C1544  H1566   1.081   .     S
C1544  N1567   1.366   .     A
C1544  C1001   1.414   1_565 S
C1545  C1550   1.461   .     S
C1545  O1573   1.286   .     A
C1545  O1576   1.292   .     A
C1546  O1574   1.289   .     A
C1546  O1575   1.288   .     A
C1546  C1549   1.459   .     S
C1547  C1557   1.416   .     A
C1547  C1577   1.484   .     S
C1547  C1549   1.403   .     A
C1548  C1581   1.481   .     S
C1548  C1558   1.419   .     A
C1548  C1550   1.404   .     A
C1549  C1551   1.406   .     A
C1550  C1552   1.405   .     A
C1551  C1585   1.486   .     S
C1551  C1553   1.418   .     A
C1552  C1589   1.484   .     S
C1552  C1554   1.417   .     A
C1553  C1559   1.414   .     A
C1553  C1555   1.417   .     A
C1554  C1556   1.417   .     A
C1554  C1560   1.414   .     A
C1555  C1557   1.417   .     A
C1555  C746    1.415   1_556 S
C1556  C1558   1.417   .     A
C1559  C1593   1.452   .     S
C1559  C723    1.405   1_556 S
C1560  C1595   1.452   .     S
Cu1561 O1573   1.967   .     S
Cu1561 Cu1562  2.672   .     S
Cu1561 O1571   2.007   .     S
Cu1561 O1569   2.006   .     S
Cu1561 N1567   2.008   .     S
Cu1561 O1575   1.967   .     S
Cu1562 N1568   2.008   .     S
Cu1562 O1570   2.006   .     S
Cu1562 O1574   1.967   .     S
Cu1562 O1576   1.967   .     S
Cu1562 O1572   2.007   .     S
C1577  O1579   1.395   .     S
C1577  O1578   1.223   .     D
O1579  H1580   1.013   .     S
C1581  O1582   1.222   .     D
C1581  O1583   1.396   .     S
O1583  H1584   1.013   .     S
C1585  O1586   1.221   .     D
C1585  O1587   1.397   .     S
O1587  H1588   1.014   .     S
C1589  O1590   1.223   .     D
C1589  O1591   1.397   .     S
O1591  H1592   1.013   .     S
C1593  N1594   1.157   .     T
C1595  N1596   1.157   .     T
C1597  O1598   1.222   .     D
C1597  O1599   1.396   .     S
O1599  H1600   1.012   .     S
C1601  O1602   1.223   .     D
C1601  O1603   1.396   .     S
O1603  H1604   1.011   .     S
C1605  O1606   1.221   .     D
C1605  O1607   1.397   .     S
O1607  H1608   1.013   .     S
C1609  O1611   1.397   .     S
C1609  O1610   1.223   .     D
O1611  H1612   1.013   .     S
C1613  O1614   1.223   .     D
C1613  O1615   1.398   .     S
O1615  H1616   1.014   .     S
C1617  O1618   1.222   .     D
C1617  O1619   1.395   .     S
O1619  H1620   1.011   .     S
