data_str_m2_o1_o17_pcu_sym.201
_audit_creation_date              2020-01-03
_audit_creation_method            'Materials Studio'
_symmetry_space_group_name_H-M    'P1'
_symmetry_Int_Tables_number       1
_symmetry_cell_setting            triclinic
loop_
_symmetry_equiv_pos_as_xyz
  x,y,z
_cell_length_a                    32.4380
_cell_length_b                    28.5618
_cell_length_c                    30.0631
_cell_angle_alpha                 90.5462
_cell_angle_beta                  90.3517
_cell_angle_gamma                 89.8682
loop_
_atom_site_label
_atom_site_type_symbol
_atom_site_fract_x
_atom_site_fract_y
_atom_site_fract_z
_atom_site_U_iso_or_equiv
_atom_site_adp_type
_atom_site_occupancy
C1     C     0.08736   0.16668   0.24968   0.00000  Uiso   1.00
C2     C     0.24596   0.16662   0.24949   0.00000  Uiso   1.00
C3     C     0.09694   0.13082   0.02014   0.00000  Uiso   1.00
C4     C     0.22878   0.21604   0.47952   0.00000  Uiso   1.00
C5     C     0.02141   0.12444   0.25407   0.00000  Uiso   1.00
C6     C     0.31189   0.20857   0.24270   0.00000  Uiso   1.00
C7     C     0.31213   0.12439   0.25395   0.00000  Uiso   1.00
C8     C     0.02118   0.20866   0.24307   0.00000  Uiso   1.00
C9     C     0.29057   0.16650   0.24857   0.00000  Uiso   1.00
C10    C     0.04274   0.16662   0.24896   0.00000  Uiso   1.00
C11    C     0.13636   0.02463   0.22858   0.00000  Uiso   1.00
C12    C     0.19666   0.30867   0.27210   0.00000  Uiso   1.00
C13    C     0.19672   0.02494   0.27200   0.00000  Uiso   1.00
C14    C     0.13651   0.30841   0.22822   0.00000  Uiso   1.00
C15    C     0.16555   0.16645   0.16441   0.00000  Uiso   1.00
C16    C     0.16710   0.16690   0.33552   0.00000  Uiso   1.00
C17    C     0.19972   0.18970   0.40725   0.00000  Uiso   1.00
C18    C     0.13270   0.14359   0.09236   0.00000  Uiso   1.00
C19    C     0.16750   0.16759   0.38368   0.00000  Uiso   1.00
C20    C     0.16461   0.16623   0.11609   0.00000  Uiso   1.00
C21    C     0.13469   0.14710   0.40581   0.00000  Uiso   1.00
C22    C     0.19557   0.19023   0.09395   0.00000  Uiso   1.00
C23    C     0.13305   0.14864   0.45197   0.00000  Uiso   1.00
C24    C     0.19599   0.19133   0.04776   0.00000  Uiso   1.00
C25    C     0.16509   0.17030   0.47645   0.00000  Uiso   1.00
C26    C     0.16396   0.16975   0.02325   0.00000  Uiso   1.00
C27    C     0.19827   0.19222   0.45418   0.00000  Uiso   1.00
C28    C     0.13087   0.14767   0.04549   0.00000  Uiso   1.00
C29    C     0.09913   0.12982   0.47380   0.00000  Uiso   1.00
C30    C     0.22781   0.21438   0.02592   0.00000  Uiso   1.00
Cu31   Cu    0.16667   0.21355   0.25000   0.00000  Uiso   1.00
Cu32   Cu    0.16667   0.11978   0.25000   0.00000  Uiso   1.00
H33    H     0.10998   0.13072   0.38681   0.00000  Uiso   1.00
H34    H     0.21987   0.20739   0.11295   0.00000  Uiso   1.00
H35    H     0.07374   0.11482   0.45489   0.00000  Uiso   1.00
H36    H     0.25213   0.23146   0.04487   0.00000  Uiso   1.00
H37    H     0.03756   0.09157   0.25857   0.00000  Uiso   1.00
H38    H     0.29571   0.24143   0.23822   0.00000  Uiso   1.00
H39    H     0.29618   0.09153   0.25852   0.00000  Uiso   1.00
H40    H     0.03716   0.24155   0.23873   0.00000  Uiso   1.00
N41    N     0.16667   0.28402   0.25000   0.00000  Uiso   1.00
N42    N     0.16667   0.04931   0.25000   0.00000  Uiso   1.00
O43    O     0.10655   0.20625   0.25000   0.00000  Uiso   1.00
O44    O     0.22679   0.12709   0.25001   0.00000  Uiso   1.00
O45    O     0.22679   0.20625   0.25001   0.00000  Uiso   1.00
O46    O     0.10655   0.12709   0.25000   0.00000  Uiso   1.00
O47    O     0.16666   0.20627   0.18513   0.00000  Uiso   1.00
O48    O     0.16668   0.12707   0.31487   0.00000  Uiso   1.00
O49    O     0.16668   0.20627   0.31487   0.00000  Uiso   1.00
O50    O     0.16666   0.12707   0.18513   0.00000  Uiso   1.00
O51    O     0.23205   0.20944   0.38419   0.00000  Uiso   1.00
C52    C     0.26217   0.17458   0.37605   0.00000  Uiso   1.00
H53    H     0.25176   0.15081   0.34873   0.00000  Uiso   1.00
H54    H     0.26898   0.15337   0.40623   0.00000  Uiso   1.00
C55    C     0.30208   0.19791   0.36203   0.00000  Uiso   1.00
H56    H     0.31559   0.21778   0.39047   0.00000  Uiso   1.00
H57    H     0.32459   0.17094   0.35095   0.00000  Uiso   1.00
H58    H     0.29600   0.22243   0.33433   0.00000  Uiso   1.00
O59    O     0.10209   0.12063   0.11547   0.00000  Uiso   1.00
C60    C     0.10983   0.07185   0.11391   0.00000  Uiso   1.00
H61    H     0.13560   0.06284   0.13675   0.00000  Uiso   1.00
H62    H     0.11799   0.05903   0.07993   0.00000  Uiso   1.00
C63    C     0.07128   0.04586   0.12834   0.00000  Uiso   1.00
H64    H     0.04680   0.04902   0.10259   0.00000  Uiso   1.00
H65    H     0.07852   0.00819   0.13292   0.00000  Uiso   1.00
H66    H     0.05950   0.06071   0.16009   0.00000  Uiso   1.00
O67    O     0.06170   0.11426   0.04018   0.00000  Uiso   1.00
C68    C     0.03235   0.15084   0.04176   0.00000  Uiso   1.00
H69    H     0.02225   0.16056   0.00758   0.00000  Uiso   1.00
H70    H     0.04507   0.18236   0.05916   0.00000  Uiso   1.00
C71    C     0.32807   0.13460   0.06730   0.00000  Uiso   1.00
H72    H     0.00361   0.12595   0.10202   0.00000  Uiso   1.00
H73    H     0.30451   0.16286   0.06807   0.00000  Uiso   1.00
H74    H     0.31456   0.10313   0.05092   0.00000  Uiso   1.00
O75    O     0.26070   0.23957   0.45934   0.00000  Uiso   1.00
C76    C     0.25126   0.28787   0.45922   0.00000  Uiso   1.00
H77    H     0.25186   0.30246   0.49370   0.00000  Uiso   1.00
H78    H     0.22041   0.29455   0.44390   0.00000  Uiso   1.00
C79    C     0.28332   0.31352   0.43200   0.00000  Uiso   1.00
H80    H     0.28242   0.30088   0.39696   0.00000  Uiso   1.00
H81    H     0.27675   0.01837   0.43263   0.00000  Uiso   1.00
H82    H     0.31458   0.30737   0.44607   0.00000  Uiso   1.00
H83    H     0.11186   0.04318   0.21196   0.00000  Uiso   1.00
H84    H     0.22061   0.29015   0.28996   0.00000  Uiso   1.00
H85    H     0.22074   0.04369   0.28974   0.00000  Uiso   1.00
H86    H     0.11236   0.28970   0.21065   0.00000  Uiso   1.00
C87    C     0.42069   0.16668   0.24968   0.00000  Uiso   1.00
C88    C     0.57930   0.16662   0.24949   0.00000  Uiso   1.00
C89    C     0.43027   0.13082   0.02014   0.00000  Uiso   1.00
C90    C     0.56212   0.21604   0.47952   0.00000  Uiso   1.00
C91    C     0.35475   0.12444   0.25407   0.00000  Uiso   1.00
C92    C     0.64522   0.20857   0.24270   0.00000  Uiso   1.00
C93    C     0.64547   0.12439   0.25395   0.00000  Uiso   1.00
C94    C     0.35451   0.20866   0.24307   0.00000  Uiso   1.00
C95    C     0.62390   0.16650   0.24857   0.00000  Uiso   1.00
C96    C     0.37608   0.16662   0.24896   0.00000  Uiso   1.00
C97    C     0.46970   0.02463   0.22858   0.00000  Uiso   1.00
C98    C     0.52999   0.30867   0.27210   0.00000  Uiso   1.00
C99    C     0.53005   0.02494   0.27200   0.00000  Uiso   1.00
C100   C     0.46985   0.30841   0.22822   0.00000  Uiso   1.00
C101   C     0.49889   0.16645   0.16441   0.00000  Uiso   1.00
C102   C     0.50044   0.16690   0.33552   0.00000  Uiso   1.00
C103   C     0.53305   0.18970   0.40725   0.00000  Uiso   1.00
C104   C     0.46603   0.14359   0.09236   0.00000  Uiso   1.00
C105   C     0.50083   0.16759   0.38368   0.00000  Uiso   1.00
C106   C     0.49794   0.16623   0.11609   0.00000  Uiso   1.00
C107   C     0.46802   0.14710   0.40581   0.00000  Uiso   1.00
C108   C     0.52891   0.19023   0.09395   0.00000  Uiso   1.00
C109   C     0.46638   0.14864   0.45197   0.00000  Uiso   1.00
C110   C     0.52932   0.19133   0.04776   0.00000  Uiso   1.00
C111   C     0.49842   0.17030   0.47645   0.00000  Uiso   1.00
C112   C     0.49730   0.16975   0.02325   0.00000  Uiso   1.00
C113   C     0.53160   0.19222   0.45418   0.00000  Uiso   1.00
C114   C     0.46421   0.14767   0.04549   0.00000  Uiso   1.00
C115   C     0.43246   0.12982   0.47380   0.00000  Uiso   1.00
C116   C     0.56115   0.21438   0.02592   0.00000  Uiso   1.00
Cu117  Cu    0.50000   0.21355   0.25000   0.00000  Uiso   1.00
Cu118  Cu    0.50000   0.11978   0.25000   0.00000  Uiso   1.00
H119   H     0.44332   0.13072   0.38681   0.00000  Uiso   1.00
H120   H     0.55320   0.20739   0.11295   0.00000  Uiso   1.00
H121   H     0.40708   0.11482   0.45489   0.00000  Uiso   1.00
H122   H     0.58547   0.23146   0.04487   0.00000  Uiso   1.00
H123   H     0.37089   0.09157   0.25857   0.00000  Uiso   1.00
H124   H     0.62905   0.24143   0.23822   0.00000  Uiso   1.00
H125   H     0.62951   0.09153   0.25852   0.00000  Uiso   1.00
H126   H     0.37049   0.24155   0.23873   0.00000  Uiso   1.00
N127   N     0.50000   0.28402   0.25000   0.00000  Uiso   1.00
N128   N     0.50000   0.04931   0.25000   0.00000  Uiso   1.00
O129   O     0.43988   0.20625   0.25000   0.00000  Uiso   1.00
O130   O     0.56012   0.12709   0.25001   0.00000  Uiso   1.00
O131   O     0.56012   0.20625   0.25001   0.00000  Uiso   1.00
O132   O     0.43988   0.12709   0.25000   0.00000  Uiso   1.00
O133   O     0.49999   0.20627   0.18513   0.00000  Uiso   1.00
O134   O     0.50001   0.12707   0.31487   0.00000  Uiso   1.00
O135   O     0.50001   0.20627   0.31487   0.00000  Uiso   1.00
O136   O     0.49999   0.12707   0.18513   0.00000  Uiso   1.00
O137   O     0.56539   0.20944   0.38419   0.00000  Uiso   1.00
C138   C     0.59551   0.17458   0.37605   0.00000  Uiso   1.00
H139   H     0.58509   0.15081   0.34873   0.00000  Uiso   1.00
H140   H     0.60231   0.15337   0.40623   0.00000  Uiso   1.00
C141   C     0.63541   0.19791   0.36203   0.00000  Uiso   1.00
H142   H     0.64892   0.21778   0.39047   0.00000  Uiso   1.00
H143   H     0.65793   0.17094   0.35095   0.00000  Uiso   1.00
H144   H     0.62933   0.22243   0.33433   0.00000  Uiso   1.00
O145   O     0.43542   0.12063   0.11547   0.00000  Uiso   1.00
C146   C     0.44316   0.07185   0.11391   0.00000  Uiso   1.00
H147   H     0.46894   0.06284   0.13675   0.00000  Uiso   1.00
H148   H     0.45132   0.05903   0.07993   0.00000  Uiso   1.00
C149   C     0.40461   0.04586   0.12834   0.00000  Uiso   1.00
H150   H     0.38014   0.04902   0.10259   0.00000  Uiso   1.00
H151   H     0.41185   0.00819   0.13292   0.00000  Uiso   1.00
H152   H     0.39284   0.06071   0.16009   0.00000  Uiso   1.00
O153   O     0.39503   0.11426   0.04018   0.00000  Uiso   1.00
C154   C     0.36569   0.15084   0.04176   0.00000  Uiso   1.00
H155   H     0.35558   0.16056   0.00758   0.00000  Uiso   1.00
H156   H     0.37840   0.18236   0.05916   0.00000  Uiso   1.00
C157   C     0.66140   0.13460   0.06730   0.00000  Uiso   1.00
H158   H     0.33694   0.12595   0.10202   0.00000  Uiso   1.00
H159   H     0.63785   0.16286   0.06807   0.00000  Uiso   1.00
H160   H     0.64789   0.10313   0.05092   0.00000  Uiso   1.00
O161   O     0.59404   0.23957   0.45934   0.00000  Uiso   1.00
C162   C     0.58459   0.28787   0.45922   0.00000  Uiso   1.00
H163   H     0.58519   0.30246   0.49370   0.00000  Uiso   1.00
H164   H     0.55375   0.29455   0.44390   0.00000  Uiso   1.00
C165   C     0.61665   0.31352   0.43200   0.00000  Uiso   1.00
H166   H     0.61575   0.30088   0.39696   0.00000  Uiso   1.00
H167   H     0.61009   0.01837   0.43263   0.00000  Uiso   1.00
H168   H     0.64792   0.30737   0.44607   0.00000  Uiso   1.00
H169   H     0.44520   0.04318   0.21196   0.00000  Uiso   1.00
H170   H     0.55394   0.29015   0.28996   0.00000  Uiso   1.00
H171   H     0.55407   0.04369   0.28974   0.00000  Uiso   1.00
H172   H     0.44569   0.28970   0.21065   0.00000  Uiso   1.00
C173   C     0.75403   0.16668   0.24968   0.00000  Uiso   1.00
C174   C     0.91263   0.16662   0.24949   0.00000  Uiso   1.00
C175   C     0.76361   0.13082   0.02014   0.00000  Uiso   1.00
C176   C     0.89545   0.21604   0.47952   0.00000  Uiso   1.00
C177   C     0.68808   0.12444   0.25407   0.00000  Uiso   1.00
C178   C     0.97855   0.20857   0.24270   0.00000  Uiso   1.00
C179   C     0.97880   0.12439   0.25395   0.00000  Uiso   1.00
C180   C     0.68785   0.20866   0.24307   0.00000  Uiso   1.00
C181   C     0.95723   0.16650   0.24857   0.00000  Uiso   1.00
C182   C     0.70941   0.16662   0.24896   0.00000  Uiso   1.00
C183   C     0.80303   0.02463   0.22858   0.00000  Uiso   1.00
C184   C     0.86332   0.30867   0.27210   0.00000  Uiso   1.00
C185   C     0.86338   0.02494   0.27200   0.00000  Uiso   1.00
C186   C     0.80318   0.30841   0.22822   0.00000  Uiso   1.00
C187   C     0.83222   0.16645   0.16441   0.00000  Uiso   1.00
C188   C     0.83377   0.16690   0.33552   0.00000  Uiso   1.00
C189   C     0.86638   0.18970   0.40725   0.00000  Uiso   1.00
C190   C     0.79937   0.14359   0.09236   0.00000  Uiso   1.00
C191   C     0.83416   0.16759   0.38368   0.00000  Uiso   1.00
C192   C     0.83127   0.16623   0.11609   0.00000  Uiso   1.00
C193   C     0.80136   0.14710   0.40581   0.00000  Uiso   1.00
C194   C     0.86224   0.19023   0.09395   0.00000  Uiso   1.00
C195   C     0.79971   0.14864   0.45197   0.00000  Uiso   1.00
C196   C     0.86265   0.19133   0.04776   0.00000  Uiso   1.00
C197   C     0.83176   0.17030   0.47645   0.00000  Uiso   1.00
C198   C     0.83063   0.16975   0.02325   0.00000  Uiso   1.00
C199   C     0.86493   0.19222   0.45418   0.00000  Uiso   1.00
C200   C     0.79754   0.14767   0.04549   0.00000  Uiso   1.00
C201   C     0.76579   0.12982   0.47380   0.00000  Uiso   1.00
C202   C     0.89448   0.21438   0.02592   0.00000  Uiso   1.00
Cu203  Cu    0.83333   0.21355   0.25000   0.00000  Uiso   1.00
Cu204  Cu    0.83333   0.11978   0.25000   0.00000  Uiso   1.00
H205   H     0.77665   0.13072   0.38681   0.00000  Uiso   1.00
H206   H     0.88654   0.20739   0.11295   0.00000  Uiso   1.00
H207   H     0.74041   0.11482   0.45489   0.00000  Uiso   1.00
H208   H     0.91880   0.23146   0.04487   0.00000  Uiso   1.00
H209   H     0.70423   0.09157   0.25857   0.00000  Uiso   1.00
H210   H     0.96238   0.24143   0.23822   0.00000  Uiso   1.00
H211   H     0.96284   0.09153   0.25852   0.00000  Uiso   1.00
H212   H     0.70382   0.24155   0.23873   0.00000  Uiso   1.00
N213   N     0.83333   0.28402   0.25000   0.00000  Uiso   1.00
N214   N     0.83333   0.04931   0.25000   0.00000  Uiso   1.00
O215   O     0.77321   0.20625   0.25000   0.00000  Uiso   1.00
O216   O     0.89345   0.12709   0.25001   0.00000  Uiso   1.00
O217   O     0.89345   0.20625   0.25001   0.00000  Uiso   1.00
O218   O     0.77321   0.12709   0.25000   0.00000  Uiso   1.00
O219   O     0.83332   0.20627   0.18513   0.00000  Uiso   1.00
O220   O     0.83334   0.12707   0.31487   0.00000  Uiso   1.00
O221   O     0.83334   0.20627   0.31487   0.00000  Uiso   1.00
O222   O     0.83332   0.12707   0.18513   0.00000  Uiso   1.00
O223   O     0.89872   0.20944   0.38419   0.00000  Uiso   1.00
C224   C     0.92884   0.17458   0.37605   0.00000  Uiso   1.00
H225   H     0.91843   0.15081   0.34873   0.00000  Uiso   1.00
H226   H     0.93565   0.15337   0.40623   0.00000  Uiso   1.00
C227   C     0.96875   0.19791   0.36203   0.00000  Uiso   1.00
H228   H     0.98226   0.21778   0.39047   0.00000  Uiso   1.00
H229   H     0.99126   0.17094   0.35095   0.00000  Uiso   1.00
H230   H     0.96266   0.22243   0.33433   0.00000  Uiso   1.00
O231   O     0.76876   0.12063   0.11547   0.00000  Uiso   1.00
C232   C     0.77650   0.07185   0.11391   0.00000  Uiso   1.00
H233   H     0.80227   0.06284   0.13675   0.00000  Uiso   1.00
H234   H     0.78465   0.05903   0.07993   0.00000  Uiso   1.00
C235   C     0.73795   0.04586   0.12834   0.00000  Uiso   1.00
H236   H     0.71347   0.04902   0.10259   0.00000  Uiso   1.00
H237   H     0.74518   0.00819   0.13292   0.00000  Uiso   1.00
H238   H     0.72617   0.06071   0.16009   0.00000  Uiso   1.00
O239   O     0.72837   0.11426   0.04018   0.00000  Uiso   1.00
C240   C     0.69902   0.15084   0.04176   0.00000  Uiso   1.00
H241   H     0.68891   0.16056   0.00758   0.00000  Uiso   1.00
H242   H     0.71174   0.18236   0.05916   0.00000  Uiso   1.00
C243   C     0.99474   0.13460   0.06730   0.00000  Uiso   1.00
H244   H     0.67028   0.12595   0.10202   0.00000  Uiso   1.00
H245   H     0.97118   0.16286   0.06807   0.00000  Uiso   1.00
H246   H     0.98123   0.10313   0.05092   0.00000  Uiso   1.00
O247   O     0.92737   0.23957   0.45934   0.00000  Uiso   1.00
C248   C     0.91793   0.28787   0.45922   0.00000  Uiso   1.00
H249   H     0.91853   0.30246   0.49370   0.00000  Uiso   1.00
H250   H     0.88708   0.29455   0.44390   0.00000  Uiso   1.00
C251   C     0.94999   0.31352   0.43200   0.00000  Uiso   1.00
H252   H     0.94909   0.30088   0.39696   0.00000  Uiso   1.00
H253   H     0.94342   0.01837   0.43263   0.00000  Uiso   1.00
H254   H     0.98125   0.30737   0.44607   0.00000  Uiso   1.00
H255   H     0.77853   0.04318   0.21196   0.00000  Uiso   1.00
H256   H     0.88727   0.29015   0.28996   0.00000  Uiso   1.00
H257   H     0.88740   0.04369   0.28974   0.00000  Uiso   1.00
H258   H     0.77903   0.28970   0.21065   0.00000  Uiso   1.00
C259   C     0.08736   0.50002   0.24968   0.00000  Uiso   1.00
C260   C     0.24596   0.49995   0.24949   0.00000  Uiso   1.00
C261   C     0.09694   0.46416   0.02014   0.00000  Uiso   1.00
C262   C     0.22878   0.54937   0.47952   0.00000  Uiso   1.00
C263   C     0.02141   0.45777   0.25407   0.00000  Uiso   1.00
C264   C     0.31189   0.54191   0.24270   0.00000  Uiso   1.00
C265   C     0.31213   0.45773   0.25395   0.00000  Uiso   1.00
C266   C     0.02118   0.54199   0.24307   0.00000  Uiso   1.00
C267   C     0.29057   0.49984   0.24857   0.00000  Uiso   1.00
C268   C     0.04274   0.49996   0.24896   0.00000  Uiso   1.00
C269   C     0.13636   0.35797   0.22858   0.00000  Uiso   1.00
C270   C     0.19666   0.64201   0.27210   0.00000  Uiso   1.00
C271   C     0.19672   0.35827   0.27200   0.00000  Uiso   1.00
C272   C     0.13651   0.64174   0.22822   0.00000  Uiso   1.00
C273   C     0.16555   0.49978   0.16441   0.00000  Uiso   1.00
C274   C     0.16710   0.50024   0.33552   0.00000  Uiso   1.00
C275   C     0.19972   0.52304   0.40725   0.00000  Uiso   1.00
C276   C     0.13270   0.47693   0.09236   0.00000  Uiso   1.00
C277   C     0.16750   0.50093   0.38368   0.00000  Uiso   1.00
C278   C     0.16461   0.49956   0.11609   0.00000  Uiso   1.00
C279   C     0.13469   0.48044   0.40581   0.00000  Uiso   1.00
C280   C     0.19557   0.52356   0.09395   0.00000  Uiso   1.00
C281   C     0.13305   0.48197   0.45197   0.00000  Uiso   1.00
C282   C     0.19599   0.52466   0.04776   0.00000  Uiso   1.00
C283   C     0.16509   0.50364   0.47645   0.00000  Uiso   1.00
C284   C     0.16396   0.50308   0.02325   0.00000  Uiso   1.00
C285   C     0.19827   0.52555   0.45418   0.00000  Uiso   1.00
C286   C     0.13087   0.48101   0.04549   0.00000  Uiso   1.00
C287   C     0.09913   0.46315   0.47380   0.00000  Uiso   1.00
C288   C     0.22781   0.54771   0.02592   0.00000  Uiso   1.00
Cu289  Cu    0.16667   0.54689   0.25000   0.00000  Uiso   1.00
Cu290  Cu    0.16667   0.45311   0.25000   0.00000  Uiso   1.00
H291   H     0.10998   0.46406   0.38681   0.00000  Uiso   1.00
H292   H     0.21987   0.54072   0.11295   0.00000  Uiso   1.00
H293   H     0.07374   0.44815   0.45489   0.00000  Uiso   1.00
H294   H     0.25213   0.56479   0.04487   0.00000  Uiso   1.00
H295   H     0.03756   0.42490   0.25857   0.00000  Uiso   1.00
H296   H     0.29571   0.57476   0.23822   0.00000  Uiso   1.00
H297   H     0.29618   0.42486   0.25852   0.00000  Uiso   1.00
H298   H     0.03716   0.57489   0.23873   0.00000  Uiso   1.00
N299   N     0.16667   0.61736   0.25000   0.00000  Uiso   1.00
N300   N     0.16667   0.38264   0.25000   0.00000  Uiso   1.00
O301   O     0.10655   0.53958   0.25000   0.00000  Uiso   1.00
O302   O     0.22679   0.46042   0.25001   0.00000  Uiso   1.00
O303   O     0.22679   0.53958   0.25001   0.00000  Uiso   1.00
O304   O     0.10655   0.46042   0.25000   0.00000  Uiso   1.00
O305   O     0.16666   0.53960   0.18513   0.00000  Uiso   1.00
O306   O     0.16668   0.46040   0.31487   0.00000  Uiso   1.00
O307   O     0.16668   0.53960   0.31487   0.00000  Uiso   1.00
O308   O     0.16666   0.46040   0.18513   0.00000  Uiso   1.00
O309   O     0.23205   0.54278   0.38419   0.00000  Uiso   1.00
C310   C     0.26217   0.50791   0.37605   0.00000  Uiso   1.00
H311   H     0.25176   0.48414   0.34873   0.00000  Uiso   1.00
H312   H     0.26898   0.48670   0.40623   0.00000  Uiso   1.00
C313   C     0.30208   0.53125   0.36203   0.00000  Uiso   1.00
H314   H     0.31559   0.55112   0.39047   0.00000  Uiso   1.00
H315   H     0.32459   0.50428   0.35095   0.00000  Uiso   1.00
H316   H     0.29600   0.55577   0.33433   0.00000  Uiso   1.00
O317   O     0.10209   0.45396   0.11547   0.00000  Uiso   1.00
C318   C     0.10983   0.40518   0.11391   0.00000  Uiso   1.00
H319   H     0.13560   0.39617   0.13675   0.00000  Uiso   1.00
H320   H     0.11799   0.39236   0.07993   0.00000  Uiso   1.00
C321   C     0.07128   0.37919   0.12834   0.00000  Uiso   1.00
H322   H     0.04680   0.38235   0.10259   0.00000  Uiso   1.00
H323   H     0.07852   0.34152   0.13292   0.00000  Uiso   1.00
H324   H     0.05950   0.39405   0.16009   0.00000  Uiso   1.00
O325   O     0.06170   0.44759   0.04018   0.00000  Uiso   1.00
C326   C     0.03235   0.48418   0.04176   0.00000  Uiso   1.00
H327   H     0.02225   0.49390   0.00758   0.00000  Uiso   1.00
H328   H     0.04507   0.51569   0.05916   0.00000  Uiso   1.00
C329   C     0.32807   0.46794   0.06730   0.00000  Uiso   1.00
H330   H     0.00361   0.45929   0.10202   0.00000  Uiso   1.00
H331   H     0.30451   0.49620   0.06807   0.00000  Uiso   1.00
H332   H     0.31456   0.43646   0.05092   0.00000  Uiso   1.00
O333   O     0.26070   0.57291   0.45934   0.00000  Uiso   1.00
C334   C     0.25126   0.62121   0.45922   0.00000  Uiso   1.00
H335   H     0.25186   0.63580   0.49370   0.00000  Uiso   1.00
H336   H     0.22041   0.62788   0.44390   0.00000  Uiso   1.00
C337   C     0.28332   0.64686   0.43200   0.00000  Uiso   1.00
H338   H     0.28242   0.63421   0.39696   0.00000  Uiso   1.00
H339   H     0.27675   0.35170   0.43263   0.00000  Uiso   1.00
H340   H     0.31458   0.64071   0.44607   0.00000  Uiso   1.00
H341   H     0.11186   0.37652   0.21196   0.00000  Uiso   1.00
H342   H     0.22061   0.62348   0.28996   0.00000  Uiso   1.00
H343   H     0.22074   0.37703   0.28974   0.00000  Uiso   1.00
H344   H     0.11236   0.62303   0.21065   0.00000  Uiso   1.00
C345   C     0.42069   0.50002   0.24968   0.00000  Uiso   1.00
C346   C     0.57930   0.49995   0.24949   0.00000  Uiso   1.00
C347   C     0.43027   0.46416   0.02014   0.00000  Uiso   1.00
C348   C     0.56212   0.54937   0.47952   0.00000  Uiso   1.00
C349   C     0.35475   0.45777   0.25407   0.00000  Uiso   1.00
C350   C     0.64522   0.54191   0.24270   0.00000  Uiso   1.00
C351   C     0.64547   0.45773   0.25395   0.00000  Uiso   1.00
C352   C     0.35451   0.54199   0.24307   0.00000  Uiso   1.00
C353   C     0.62390   0.49984   0.24857   0.00000  Uiso   1.00
C354   C     0.37608   0.49996   0.24896   0.00000  Uiso   1.00
C355   C     0.46970   0.35797   0.22858   0.00000  Uiso   1.00
C356   C     0.52999   0.64201   0.27210   0.00000  Uiso   1.00
C357   C     0.53005   0.35827   0.27200   0.00000  Uiso   1.00
C358   C     0.46985   0.64174   0.22822   0.00000  Uiso   1.00
C359   C     0.49889   0.49978   0.16441   0.00000  Uiso   1.00
C360   C     0.50044   0.50024   0.33552   0.00000  Uiso   1.00
C361   C     0.53305   0.52304   0.40725   0.00000  Uiso   1.00
C362   C     0.46603   0.47693   0.09236   0.00000  Uiso   1.00
C363   C     0.50083   0.50093   0.38368   0.00000  Uiso   1.00
C364   C     0.49794   0.49956   0.11609   0.00000  Uiso   1.00
C365   C     0.46802   0.48044   0.40581   0.00000  Uiso   1.00
C366   C     0.52891   0.52356   0.09395   0.00000  Uiso   1.00
C367   C     0.46638   0.48197   0.45197   0.00000  Uiso   1.00
C368   C     0.52932   0.52466   0.04776   0.00000  Uiso   1.00
C369   C     0.49842   0.50364   0.47645   0.00000  Uiso   1.00
C370   C     0.49730   0.50308   0.02325   0.00000  Uiso   1.00
C371   C     0.53160   0.52555   0.45418   0.00000  Uiso   1.00
C372   C     0.46421   0.48101   0.04549   0.00000  Uiso   1.00
C373   C     0.43246   0.46315   0.47380   0.00000  Uiso   1.00
C374   C     0.56115   0.54771   0.02592   0.00000  Uiso   1.00
Cu375  Cu    0.50000   0.54689   0.25000   0.00000  Uiso   1.00
Cu376  Cu    0.50000   0.45311   0.25000   0.00000  Uiso   1.00
H377   H     0.44332   0.46406   0.38681   0.00000  Uiso   1.00
H378   H     0.55320   0.54072   0.11295   0.00000  Uiso   1.00
H379   H     0.40708   0.44815   0.45489   0.00000  Uiso   1.00
H380   H     0.58547   0.56479   0.04487   0.00000  Uiso   1.00
H381   H     0.37089   0.42490   0.25857   0.00000  Uiso   1.00
H382   H     0.62905   0.57476   0.23822   0.00000  Uiso   1.00
H383   H     0.62951   0.42486   0.25852   0.00000  Uiso   1.00
H384   H     0.37049   0.57489   0.23873   0.00000  Uiso   1.00
N385   N     0.50000   0.61736   0.25000   0.00000  Uiso   1.00
N386   N     0.50000   0.38264   0.25000   0.00000  Uiso   1.00
O387   O     0.43988   0.53958   0.25000   0.00000  Uiso   1.00
O388   O     0.56012   0.46042   0.25001   0.00000  Uiso   1.00
O389   O     0.56012   0.53958   0.25001   0.00000  Uiso   1.00
O390   O     0.43988   0.46042   0.25000   0.00000  Uiso   1.00
O391   O     0.49999   0.53960   0.18513   0.00000  Uiso   1.00
O392   O     0.50001   0.46040   0.31487   0.00000  Uiso   1.00
O393   O     0.50001   0.53960   0.31487   0.00000  Uiso   1.00
O394   O     0.49999   0.46040   0.18513   0.00000  Uiso   1.00
O395   O     0.56539   0.54278   0.38419   0.00000  Uiso   1.00
C396   C     0.59551   0.50791   0.37605   0.00000  Uiso   1.00
H397   H     0.58509   0.48414   0.34873   0.00000  Uiso   1.00
H398   H     0.60231   0.48670   0.40623   0.00000  Uiso   1.00
C399   C     0.63541   0.53125   0.36203   0.00000  Uiso   1.00
H400   H     0.64892   0.55112   0.39047   0.00000  Uiso   1.00
H401   H     0.65793   0.50428   0.35095   0.00000  Uiso   1.00
H402   H     0.62933   0.55577   0.33433   0.00000  Uiso   1.00
O403   O     0.43542   0.45396   0.11547   0.00000  Uiso   1.00
C404   C     0.44316   0.40518   0.11391   0.00000  Uiso   1.00
H405   H     0.46894   0.39617   0.13675   0.00000  Uiso   1.00
H406   H     0.45132   0.39236   0.07993   0.00000  Uiso   1.00
C407   C     0.40461   0.37919   0.12834   0.00000  Uiso   1.00
H408   H     0.38014   0.38235   0.10259   0.00000  Uiso   1.00
H409   H     0.41185   0.34152   0.13292   0.00000  Uiso   1.00
H410   H     0.39284   0.39405   0.16009   0.00000  Uiso   1.00
O411   O     0.39503   0.44759   0.04018   0.00000  Uiso   1.00
C412   C     0.36569   0.48418   0.04176   0.00000  Uiso   1.00
H413   H     0.35558   0.49390   0.00758   0.00000  Uiso   1.00
H414   H     0.37840   0.51569   0.05916   0.00000  Uiso   1.00
C415   C     0.66140   0.46794   0.06730   0.00000  Uiso   1.00
H416   H     0.33694   0.45929   0.10202   0.00000  Uiso   1.00
H417   H     0.63785   0.49620   0.06807   0.00000  Uiso   1.00
H418   H     0.64789   0.43646   0.05092   0.00000  Uiso   1.00
O419   O     0.59404   0.57291   0.45934   0.00000  Uiso   1.00
C420   C     0.58459   0.62121   0.45922   0.00000  Uiso   1.00
H421   H     0.58519   0.63580   0.49370   0.00000  Uiso   1.00
H422   H     0.55375   0.62788   0.44390   0.00000  Uiso   1.00
C423   C     0.61665   0.64686   0.43200   0.00000  Uiso   1.00
H424   H     0.61575   0.63421   0.39696   0.00000  Uiso   1.00
H425   H     0.61009   0.35170   0.43263   0.00000  Uiso   1.00
H426   H     0.64792   0.64071   0.44607   0.00000  Uiso   1.00
H427   H     0.44520   0.37652   0.21196   0.00000  Uiso   1.00
H428   H     0.55394   0.62348   0.28996   0.00000  Uiso   1.00
H429   H     0.55407   0.37703   0.28974   0.00000  Uiso   1.00
H430   H     0.44569   0.62303   0.21065   0.00000  Uiso   1.00
C431   C     0.75403   0.50002   0.24968   0.00000  Uiso   1.00
C432   C     0.91263   0.49995   0.24949   0.00000  Uiso   1.00
C433   C     0.76361   0.46416   0.02014   0.00000  Uiso   1.00
C434   C     0.89545   0.54937   0.47952   0.00000  Uiso   1.00
C435   C     0.68808   0.45777   0.25407   0.00000  Uiso   1.00
C436   C     0.97855   0.54191   0.24270   0.00000  Uiso   1.00
C437   C     0.97880   0.45773   0.25395   0.00000  Uiso   1.00
C438   C     0.68785   0.54199   0.24307   0.00000  Uiso   1.00
C439   C     0.95723   0.49984   0.24857   0.00000  Uiso   1.00
C440   C     0.70941   0.49996   0.24896   0.00000  Uiso   1.00
C441   C     0.80303   0.35797   0.22858   0.00000  Uiso   1.00
C442   C     0.86332   0.64201   0.27210   0.00000  Uiso   1.00
C443   C     0.86338   0.35827   0.27200   0.00000  Uiso   1.00
C444   C     0.80318   0.64174   0.22822   0.00000  Uiso   1.00
C445   C     0.83222   0.49978   0.16441   0.00000  Uiso   1.00
C446   C     0.83377   0.50024   0.33552   0.00000  Uiso   1.00
C447   C     0.86638   0.52304   0.40725   0.00000  Uiso   1.00
C448   C     0.79937   0.47693   0.09236   0.00000  Uiso   1.00
C449   C     0.83416   0.50093   0.38368   0.00000  Uiso   1.00
C450   C     0.83127   0.49956   0.11609   0.00000  Uiso   1.00
C451   C     0.80136   0.48044   0.40581   0.00000  Uiso   1.00
C452   C     0.86224   0.52356   0.09395   0.00000  Uiso   1.00
C453   C     0.79971   0.48197   0.45197   0.00000  Uiso   1.00
C454   C     0.86265   0.52466   0.04776   0.00000  Uiso   1.00
C455   C     0.83176   0.50364   0.47645   0.00000  Uiso   1.00
C456   C     0.83063   0.50308   0.02325   0.00000  Uiso   1.00
C457   C     0.86493   0.52555   0.45418   0.00000  Uiso   1.00
C458   C     0.79754   0.48101   0.04549   0.00000  Uiso   1.00
C459   C     0.76579   0.46315   0.47380   0.00000  Uiso   1.00
C460   C     0.89448   0.54771   0.02592   0.00000  Uiso   1.00
Cu461  Cu    0.83333   0.54689   0.25000   0.00000  Uiso   1.00
Cu462  Cu    0.83333   0.45311   0.25000   0.00000  Uiso   1.00
H463   H     0.77665   0.46406   0.38681   0.00000  Uiso   1.00
H464   H     0.88654   0.54072   0.11295   0.00000  Uiso   1.00
H465   H     0.74041   0.44815   0.45489   0.00000  Uiso   1.00
H466   H     0.91880   0.56479   0.04487   0.00000  Uiso   1.00
H467   H     0.70423   0.42490   0.25857   0.00000  Uiso   1.00
H468   H     0.96238   0.57476   0.23822   0.00000  Uiso   1.00
H469   H     0.96284   0.42486   0.25852   0.00000  Uiso   1.00
H470   H     0.70382   0.57489   0.23873   0.00000  Uiso   1.00
N471   N     0.83333   0.61736   0.25000   0.00000  Uiso   1.00
N472   N     0.83333   0.38264   0.25000   0.00000  Uiso   1.00
O473   O     0.77321   0.53958   0.25000   0.00000  Uiso   1.00
O474   O     0.89345   0.46042   0.25001   0.00000  Uiso   1.00
O475   O     0.89345   0.53958   0.25001   0.00000  Uiso   1.00
O476   O     0.77321   0.46042   0.25000   0.00000  Uiso   1.00
O477   O     0.83332   0.53960   0.18513   0.00000  Uiso   1.00
O478   O     0.83334   0.46040   0.31487   0.00000  Uiso   1.00
O479   O     0.83334   0.53960   0.31487   0.00000  Uiso   1.00
O480   O     0.83332   0.46040   0.18513   0.00000  Uiso   1.00
O481   O     0.89872   0.54278   0.38419   0.00000  Uiso   1.00
C482   C     0.92884   0.50791   0.37605   0.00000  Uiso   1.00
H483   H     0.91843   0.48414   0.34873   0.00000  Uiso   1.00
H484   H     0.93565   0.48670   0.40623   0.00000  Uiso   1.00
C485   C     0.96875   0.53125   0.36203   0.00000  Uiso   1.00
H486   H     0.98226   0.55112   0.39047   0.00000  Uiso   1.00
H487   H     0.99126   0.50428   0.35095   0.00000  Uiso   1.00
H488   H     0.96266   0.55577   0.33433   0.00000  Uiso   1.00
O489   O     0.76876   0.45396   0.11547   0.00000  Uiso   1.00
C490   C     0.77650   0.40518   0.11391   0.00000  Uiso   1.00
H491   H     0.80227   0.39617   0.13675   0.00000  Uiso   1.00
H492   H     0.78465   0.39236   0.07993   0.00000  Uiso   1.00
C493   C     0.73795   0.37919   0.12834   0.00000  Uiso   1.00
H494   H     0.71347   0.38235   0.10259   0.00000  Uiso   1.00
H495   H     0.74518   0.34152   0.13292   0.00000  Uiso   1.00
H496   H     0.72617   0.39405   0.16009   0.00000  Uiso   1.00
O497   O     0.72837   0.44759   0.04018   0.00000  Uiso   1.00
C498   C     0.69902   0.48418   0.04176   0.00000  Uiso   1.00
H499   H     0.68891   0.49390   0.00758   0.00000  Uiso   1.00
H500   H     0.71174   0.51569   0.05916   0.00000  Uiso   1.00
C501   C     0.99474   0.46794   0.06730   0.00000  Uiso   1.00
H502   H     0.67028   0.45929   0.10202   0.00000  Uiso   1.00
H503   H     0.97118   0.49620   0.06807   0.00000  Uiso   1.00
H504   H     0.98123   0.43646   0.05092   0.00000  Uiso   1.00
O505   O     0.92737   0.57291   0.45934   0.00000  Uiso   1.00
C506   C     0.91793   0.62121   0.45922   0.00000  Uiso   1.00
H507   H     0.91853   0.63580   0.49370   0.00000  Uiso   1.00
H508   H     0.88708   0.62788   0.44390   0.00000  Uiso   1.00
C509   C     0.94999   0.64686   0.43200   0.00000  Uiso   1.00
H510   H     0.94909   0.63421   0.39696   0.00000  Uiso   1.00
H511   H     0.94342   0.35170   0.43263   0.00000  Uiso   1.00
H512   H     0.98125   0.64071   0.44607   0.00000  Uiso   1.00
H513   H     0.77853   0.37652   0.21196   0.00000  Uiso   1.00
H514   H     0.88727   0.62348   0.28996   0.00000  Uiso   1.00
H515   H     0.88740   0.37703   0.28974   0.00000  Uiso   1.00
H516   H     0.77903   0.62303   0.21065   0.00000  Uiso   1.00
C517   C     0.08736   0.83335   0.24968   0.00000  Uiso   1.00
C518   C     0.24596   0.83328   0.24949   0.00000  Uiso   1.00
C519   C     0.09694   0.79749   0.02014   0.00000  Uiso   1.00
C520   C     0.22878   0.88270   0.47952   0.00000  Uiso   1.00
C521   C     0.02141   0.79111   0.25407   0.00000  Uiso   1.00
C522   C     0.31189   0.87524   0.24270   0.00000  Uiso   1.00
C523   C     0.31213   0.79106   0.25395   0.00000  Uiso   1.00
C524   C     0.02118   0.87533   0.24307   0.00000  Uiso   1.00
C525   C     0.29057   0.83317   0.24857   0.00000  Uiso   1.00
C526   C     0.04274   0.83329   0.24896   0.00000  Uiso   1.00
C527   C     0.13636   0.69130   0.22858   0.00000  Uiso   1.00
C528   C     0.19666   0.97534   0.27210   0.00000  Uiso   1.00
C529   C     0.19672   0.69161   0.27200   0.00000  Uiso   1.00
C530   C     0.13651   0.97507   0.22822   0.00000  Uiso   1.00
C531   C     0.16555   0.83312   0.16441   0.00000  Uiso   1.00
C532   C     0.16710   0.83357   0.33552   0.00000  Uiso   1.00
C533   C     0.19972   0.85637   0.40725   0.00000  Uiso   1.00
C534   C     0.13270   0.81026   0.09236   0.00000  Uiso   1.00
C535   C     0.16750   0.83426   0.38368   0.00000  Uiso   1.00
C536   C     0.16461   0.83290   0.11609   0.00000  Uiso   1.00
C537   C     0.13469   0.81377   0.40581   0.00000  Uiso   1.00
C538   C     0.19557   0.85689   0.09395   0.00000  Uiso   1.00
C539   C     0.13305   0.81531   0.45197   0.00000  Uiso   1.00
C540   C     0.19599   0.85799   0.04776   0.00000  Uiso   1.00
C541   C     0.16509   0.83697   0.47645   0.00000  Uiso   1.00
C542   C     0.16396   0.83642   0.02325   0.00000  Uiso   1.00
C543   C     0.19827   0.85889   0.45418   0.00000  Uiso   1.00
C544   C     0.13087   0.81434   0.04549   0.00000  Uiso   1.00
C545   C     0.09913   0.79648   0.47380   0.00000  Uiso   1.00
C546   C     0.22781   0.88105   0.02592   0.00000  Uiso   1.00
Cu547  Cu    0.16667   0.88022   0.25000   0.00000  Uiso   1.00
Cu548  Cu    0.16667   0.78645   0.25000   0.00000  Uiso   1.00
H549   H     0.10998   0.79739   0.38681   0.00000  Uiso   1.00
H550   H     0.21987   0.87406   0.11295   0.00000  Uiso   1.00
H551   H     0.07374   0.78148   0.45489   0.00000  Uiso   1.00
H552   H     0.25213   0.89812   0.04487   0.00000  Uiso   1.00
H553   H     0.03756   0.75823   0.25857   0.00000  Uiso   1.00
H554   H     0.29571   0.90810   0.23822   0.00000  Uiso   1.00
H555   H     0.29618   0.75819   0.25852   0.00000  Uiso   1.00
H556   H     0.03716   0.90822   0.23873   0.00000  Uiso   1.00
N557   N     0.16667   0.95069   0.25000   0.00000  Uiso   1.00
N558   N     0.16667   0.71598   0.25000   0.00000  Uiso   1.00
O559   O     0.10655   0.87291   0.25000   0.00000  Uiso   1.00
O560   O     0.22679   0.79375   0.25001   0.00000  Uiso   1.00
O561   O     0.22679   0.87291   0.25001   0.00000  Uiso   1.00
O562   O     0.10655   0.79375   0.25000   0.00000  Uiso   1.00
O563   O     0.16666   0.87293   0.18513   0.00000  Uiso   1.00
O564   O     0.16668   0.79373   0.31487   0.00000  Uiso   1.00
O565   O     0.16668   0.87293   0.31487   0.00000  Uiso   1.00
O566   O     0.16666   0.79373   0.18513   0.00000  Uiso   1.00
O567   O     0.23205   0.87611   0.38419   0.00000  Uiso   1.00
C568   C     0.26217   0.84124   0.37605   0.00000  Uiso   1.00
H569   H     0.25176   0.81748   0.34873   0.00000  Uiso   1.00
H570   H     0.26898   0.82003   0.40623   0.00000  Uiso   1.00
C571   C     0.30208   0.86458   0.36203   0.00000  Uiso   1.00
H572   H     0.31559   0.88445   0.39047   0.00000  Uiso   1.00
H573   H     0.32459   0.83761   0.35095   0.00000  Uiso   1.00
H574   H     0.29600   0.88910   0.33433   0.00000  Uiso   1.00
O575   O     0.10209   0.78729   0.11547   0.00000  Uiso   1.00
C576   C     0.10983   0.73851   0.11391   0.00000  Uiso   1.00
H577   H     0.13560   0.72950   0.13675   0.00000  Uiso   1.00
H578   H     0.11799   0.72570   0.07993   0.00000  Uiso   1.00
C579   C     0.07128   0.71253   0.12834   0.00000  Uiso   1.00
H580   H     0.04680   0.71569   0.10259   0.00000  Uiso   1.00
H581   H     0.07852   0.67485   0.13292   0.00000  Uiso   1.00
H582   H     0.05950   0.72738   0.16009   0.00000  Uiso   1.00
O583   O     0.06170   0.78092   0.04018   0.00000  Uiso   1.00
C584   C     0.03235   0.81751   0.04176   0.00000  Uiso   1.00
H585   H     0.02225   0.82723   0.00758   0.00000  Uiso   1.00
H586   H     0.04507   0.84902   0.05916   0.00000  Uiso   1.00
C587   C     0.32807   0.80127   0.06730   0.00000  Uiso   1.00
H588   H     0.00361   0.79262   0.10202   0.00000  Uiso   1.00
H589   H     0.30451   0.82953   0.06807   0.00000  Uiso   1.00
H590   H     0.31456   0.76979   0.05092   0.00000  Uiso   1.00
O591   O     0.26070   0.90624   0.45934   0.00000  Uiso   1.00
C592   C     0.25126   0.95454   0.45922   0.00000  Uiso   1.00
H593   H     0.25186   0.96913   0.49370   0.00000  Uiso   1.00
H594   H     0.22041   0.96121   0.44390   0.00000  Uiso   1.00
C595   C     0.28332   0.98019   0.43200   0.00000  Uiso   1.00
H596   H     0.28242   0.96755   0.39696   0.00000  Uiso   1.00
H597   H     0.27675   0.68504   0.43263   0.00000  Uiso   1.00
H598   H     0.31458   0.97404   0.44607   0.00000  Uiso   1.00
H599   H     0.11186   0.70985   0.21196   0.00000  Uiso   1.00
H600   H     0.22061   0.95682   0.28996   0.00000  Uiso   1.00
H601   H     0.22074   0.71036   0.28974   0.00000  Uiso   1.00
H602   H     0.11236   0.95637   0.21065   0.00000  Uiso   1.00
C603   C     0.42069   0.83335   0.24968   0.00000  Uiso   1.00
C604   C     0.57930   0.83328   0.24949   0.00000  Uiso   1.00
C605   C     0.43027   0.79749   0.02014   0.00000  Uiso   1.00
C606   C     0.56212   0.88270   0.47952   0.00000  Uiso   1.00
C607   C     0.35475   0.79111   0.25407   0.00000  Uiso   1.00
C608   C     0.64522   0.87524   0.24270   0.00000  Uiso   1.00
C609   C     0.64547   0.79106   0.25395   0.00000  Uiso   1.00
C610   C     0.35451   0.87533   0.24307   0.00000  Uiso   1.00
C611   C     0.62390   0.83317   0.24857   0.00000  Uiso   1.00
C612   C     0.37608   0.83329   0.24896   0.00000  Uiso   1.00
C613   C     0.46970   0.69130   0.22858   0.00000  Uiso   1.00
C614   C     0.52999   0.97534   0.27210   0.00000  Uiso   1.00
C615   C     0.53005   0.69161   0.27200   0.00000  Uiso   1.00
C616   C     0.46985   0.97507   0.22822   0.00000  Uiso   1.00
C617   C     0.49889   0.83312   0.16441   0.00000  Uiso   1.00
C618   C     0.50044   0.83357   0.33552   0.00000  Uiso   1.00
C619   C     0.53305   0.85637   0.40725   0.00000  Uiso   1.00
C620   C     0.46603   0.81026   0.09236   0.00000  Uiso   1.00
C621   C     0.50083   0.83426   0.38368   0.00000  Uiso   1.00
C622   C     0.49794   0.83290   0.11609   0.00000  Uiso   1.00
C623   C     0.46802   0.81377   0.40581   0.00000  Uiso   1.00
C624   C     0.52891   0.85689   0.09395   0.00000  Uiso   1.00
C625   C     0.46638   0.81531   0.45197   0.00000  Uiso   1.00
C626   C     0.52932   0.85799   0.04776   0.00000  Uiso   1.00
C627   C     0.49842   0.83697   0.47645   0.00000  Uiso   1.00
C628   C     0.49730   0.83642   0.02325   0.00000  Uiso   1.00
C629   C     0.53160   0.85889   0.45418   0.00000  Uiso   1.00
C630   C     0.46421   0.81434   0.04549   0.00000  Uiso   1.00
C631   C     0.43246   0.79648   0.47380   0.00000  Uiso   1.00
C632   C     0.56115   0.88105   0.02592   0.00000  Uiso   1.00
Cu633  Cu    0.50000   0.88022   0.25000   0.00000  Uiso   1.00
Cu634  Cu    0.50000   0.78645   0.25000   0.00000  Uiso   1.00
H635   H     0.44332   0.79739   0.38681   0.00000  Uiso   1.00
H636   H     0.55320   0.87406   0.11295   0.00000  Uiso   1.00
H637   H     0.40708   0.78148   0.45489   0.00000  Uiso   1.00
H638   H     0.58547   0.89812   0.04487   0.00000  Uiso   1.00
H639   H     0.37089   0.75823   0.25857   0.00000  Uiso   1.00
H640   H     0.62905   0.90810   0.23822   0.00000  Uiso   1.00
H641   H     0.62951   0.75819   0.25852   0.00000  Uiso   1.00
H642   H     0.37049   0.90822   0.23873   0.00000  Uiso   1.00
N643   N     0.50000   0.95069   0.25000   0.00000  Uiso   1.00
N644   N     0.50000   0.71598   0.25000   0.00000  Uiso   1.00
O645   O     0.43988   0.87291   0.25000   0.00000  Uiso   1.00
O646   O     0.56012   0.79375   0.25001   0.00000  Uiso   1.00
O647   O     0.56012   0.87291   0.25001   0.00000  Uiso   1.00
O648   O     0.43988   0.79375   0.25000   0.00000  Uiso   1.00
O649   O     0.49999   0.87293   0.18513   0.00000  Uiso   1.00
O650   O     0.50001   0.79373   0.31487   0.00000  Uiso   1.00
O651   O     0.50001   0.87293   0.31487   0.00000  Uiso   1.00
O652   O     0.49999   0.79373   0.18513   0.00000  Uiso   1.00
O653   O     0.56539   0.87611   0.38419   0.00000  Uiso   1.00
C654   C     0.59551   0.84124   0.37605   0.00000  Uiso   1.00
H655   H     0.58509   0.81748   0.34873   0.00000  Uiso   1.00
H656   H     0.60231   0.82003   0.40623   0.00000  Uiso   1.00
C657   C     0.63541   0.86458   0.36203   0.00000  Uiso   1.00
H658   H     0.64892   0.88445   0.39047   0.00000  Uiso   1.00
H659   H     0.65793   0.83761   0.35095   0.00000  Uiso   1.00
H660   H     0.62933   0.88910   0.33433   0.00000  Uiso   1.00
O661   O     0.43542   0.78729   0.11547   0.00000  Uiso   1.00
C662   C     0.44316   0.73851   0.11391   0.00000  Uiso   1.00
H663   H     0.46894   0.72950   0.13675   0.00000  Uiso   1.00
H664   H     0.45132   0.72570   0.07993   0.00000  Uiso   1.00
C665   C     0.40461   0.71253   0.12834   0.00000  Uiso   1.00
H666   H     0.38014   0.71569   0.10259   0.00000  Uiso   1.00
H667   H     0.41185   0.67485   0.13292   0.00000  Uiso   1.00
H668   H     0.39284   0.72738   0.16009   0.00000  Uiso   1.00
O669   O     0.39503   0.78092   0.04018   0.00000  Uiso   1.00
C670   C     0.36569   0.81751   0.04176   0.00000  Uiso   1.00
H671   H     0.35558   0.82723   0.00758   0.00000  Uiso   1.00
H672   H     0.37840   0.84902   0.05916   0.00000  Uiso   1.00
C673   C     0.66140   0.80127   0.06730   0.00000  Uiso   1.00
H674   H     0.33694   0.79262   0.10202   0.00000  Uiso   1.00
H675   H     0.63785   0.82953   0.06807   0.00000  Uiso   1.00
H676   H     0.64789   0.76979   0.05092   0.00000  Uiso   1.00
O677   O     0.59404   0.90624   0.45934   0.00000  Uiso   1.00
C678   C     0.58459   0.95454   0.45922   0.00000  Uiso   1.00
H679   H     0.58519   0.96913   0.49370   0.00000  Uiso   1.00
H680   H     0.55375   0.96121   0.44390   0.00000  Uiso   1.00
C681   C     0.61665   0.98019   0.43200   0.00000  Uiso   1.00
H682   H     0.61575   0.96755   0.39696   0.00000  Uiso   1.00
H683   H     0.61009   0.68504   0.43263   0.00000  Uiso   1.00
H684   H     0.64792   0.97404   0.44607   0.00000  Uiso   1.00
H685   H     0.44520   0.70985   0.21196   0.00000  Uiso   1.00
H686   H     0.55394   0.95682   0.28996   0.00000  Uiso   1.00
H687   H     0.55407   0.71036   0.28974   0.00000  Uiso   1.00
H688   H     0.44569   0.95637   0.21065   0.00000  Uiso   1.00
C689   C     0.75403   0.83335   0.24968   0.00000  Uiso   1.00
C690   C     0.91263   0.83328   0.24949   0.00000  Uiso   1.00
C691   C     0.76361   0.79749   0.02014   0.00000  Uiso   1.00
C692   C     0.89545   0.88270   0.47952   0.00000  Uiso   1.00
C693   C     0.68808   0.79111   0.25407   0.00000  Uiso   1.00
C694   C     0.97855   0.87524   0.24270   0.00000  Uiso   1.00
C695   C     0.97880   0.79106   0.25395   0.00000  Uiso   1.00
C696   C     0.68785   0.87533   0.24307   0.00000  Uiso   1.00
C697   C     0.95723   0.83317   0.24857   0.00000  Uiso   1.00
C698   C     0.70941   0.83329   0.24896   0.00000  Uiso   1.00
C699   C     0.80303   0.69130   0.22858   0.00000  Uiso   1.00
C700   C     0.86332   0.97534   0.27210   0.00000  Uiso   1.00
C701   C     0.86338   0.69161   0.27200   0.00000  Uiso   1.00
C702   C     0.80318   0.97507   0.22822   0.00000  Uiso   1.00
C703   C     0.83222   0.83312   0.16441   0.00000  Uiso   1.00
C704   C     0.83377   0.83357   0.33552   0.00000  Uiso   1.00
C705   C     0.86638   0.85637   0.40725   0.00000  Uiso   1.00
C706   C     0.79937   0.81026   0.09236   0.00000  Uiso   1.00
C707   C     0.83416   0.83426   0.38368   0.00000  Uiso   1.00
C708   C     0.83127   0.83290   0.11609   0.00000  Uiso   1.00
C709   C     0.80136   0.81377   0.40581   0.00000  Uiso   1.00
C710   C     0.86224   0.85689   0.09395   0.00000  Uiso   1.00
C711   C     0.79971   0.81531   0.45197   0.00000  Uiso   1.00
C712   C     0.86265   0.85799   0.04776   0.00000  Uiso   1.00
C713   C     0.83176   0.83697   0.47645   0.00000  Uiso   1.00
C714   C     0.83063   0.83642   0.02325   0.00000  Uiso   1.00
C715   C     0.86493   0.85889   0.45418   0.00000  Uiso   1.00
C716   C     0.79754   0.81434   0.04549   0.00000  Uiso   1.00
C717   C     0.76579   0.79648   0.47380   0.00000  Uiso   1.00
C718   C     0.89448   0.88105   0.02592   0.00000  Uiso   1.00
Cu719  Cu    0.83333   0.88022   0.25000   0.00000  Uiso   1.00
Cu720  Cu    0.83333   0.78645   0.25000   0.00000  Uiso   1.00
H721   H     0.77665   0.79739   0.38681   0.00000  Uiso   1.00
H722   H     0.88654   0.87406   0.11295   0.00000  Uiso   1.00
H723   H     0.74041   0.78148   0.45489   0.00000  Uiso   1.00
H724   H     0.91880   0.89812   0.04487   0.00000  Uiso   1.00
H725   H     0.70423   0.75823   0.25857   0.00000  Uiso   1.00
H726   H     0.96238   0.90810   0.23822   0.00000  Uiso   1.00
H727   H     0.96284   0.75819   0.25852   0.00000  Uiso   1.00
H728   H     0.70382   0.90822   0.23873   0.00000  Uiso   1.00
N729   N     0.83333   0.95069   0.25000   0.00000  Uiso   1.00
N730   N     0.83333   0.71598   0.25000   0.00000  Uiso   1.00
O731   O     0.77321   0.87291   0.25000   0.00000  Uiso   1.00
O732   O     0.89345   0.79375   0.25001   0.00000  Uiso   1.00
O733   O     0.89345   0.87291   0.25001   0.00000  Uiso   1.00
O734   O     0.77321   0.79375   0.25000   0.00000  Uiso   1.00
O735   O     0.83332   0.87293   0.18513   0.00000  Uiso   1.00
O736   O     0.83334   0.79373   0.31487   0.00000  Uiso   1.00
O737   O     0.83334   0.87293   0.31487   0.00000  Uiso   1.00
O738   O     0.83332   0.79373   0.18513   0.00000  Uiso   1.00
O739   O     0.89872   0.87611   0.38419   0.00000  Uiso   1.00
C740   C     0.92884   0.84124   0.37605   0.00000  Uiso   1.00
H741   H     0.91843   0.81748   0.34873   0.00000  Uiso   1.00
H742   H     0.93565   0.82003   0.40623   0.00000  Uiso   1.00
C743   C     0.96875   0.86458   0.36203   0.00000  Uiso   1.00
H744   H     0.98226   0.88445   0.39047   0.00000  Uiso   1.00
H745   H     0.99126   0.83761   0.35095   0.00000  Uiso   1.00
H746   H     0.96266   0.88910   0.33433   0.00000  Uiso   1.00
O747   O     0.76876   0.78729   0.11547   0.00000  Uiso   1.00
C748   C     0.77650   0.73851   0.11391   0.00000  Uiso   1.00
H749   H     0.80227   0.72950   0.13675   0.00000  Uiso   1.00
H750   H     0.78465   0.72570   0.07993   0.00000  Uiso   1.00
C751   C     0.73795   0.71253   0.12834   0.00000  Uiso   1.00
H752   H     0.71347   0.71569   0.10259   0.00000  Uiso   1.00
H753   H     0.74518   0.67485   0.13292   0.00000  Uiso   1.00
H754   H     0.72617   0.72738   0.16009   0.00000  Uiso   1.00
O755   O     0.72837   0.78092   0.04018   0.00000  Uiso   1.00
C756   C     0.69902   0.81751   0.04176   0.00000  Uiso   1.00
H757   H     0.68891   0.82723   0.00758   0.00000  Uiso   1.00
H758   H     0.71174   0.84902   0.05916   0.00000  Uiso   1.00
C759   C     0.99474   0.80127   0.06730   0.00000  Uiso   1.00
H760   H     0.67028   0.79262   0.10202   0.00000  Uiso   1.00
H761   H     0.97118   0.82953   0.06807   0.00000  Uiso   1.00
H762   H     0.98123   0.76979   0.05092   0.00000  Uiso   1.00
O763   O     0.92737   0.90624   0.45934   0.00000  Uiso   1.00
C764   C     0.91793   0.95454   0.45922   0.00000  Uiso   1.00
H765   H     0.91853   0.96913   0.49370   0.00000  Uiso   1.00
H766   H     0.88708   0.96121   0.44390   0.00000  Uiso   1.00
C767   C     0.94999   0.98019   0.43200   0.00000  Uiso   1.00
H768   H     0.94909   0.96755   0.39696   0.00000  Uiso   1.00
H769   H     0.94342   0.68504   0.43263   0.00000  Uiso   1.00
H770   H     0.98125   0.97404   0.44607   0.00000  Uiso   1.00
H771   H     0.77853   0.70985   0.21196   0.00000  Uiso   1.00
H772   H     0.88727   0.95682   0.28996   0.00000  Uiso   1.00
H773   H     0.88740   0.71036   0.28974   0.00000  Uiso   1.00
H774   H     0.77903   0.95637   0.21065   0.00000  Uiso   1.00
C775   C     0.08736   0.16668   0.74968   0.00000  Uiso   1.00
C776   C     0.24596   0.16662   0.74949   0.00000  Uiso   1.00
C777   C     0.09694   0.13082   0.52014   0.00000  Uiso   1.00
C778   C     0.22878   0.21604   0.97952   0.00000  Uiso   1.00
C779   C     0.02141   0.12444   0.75407   0.00000  Uiso   1.00
C780   C     0.31189   0.20857   0.74270   0.00000  Uiso   1.00
C781   C     0.31213   0.12439   0.75395   0.00000  Uiso   1.00
C782   C     0.02118   0.20866   0.74307   0.00000  Uiso   1.00
C783   C     0.29057   0.16650   0.74857   0.00000  Uiso   1.00
C784   C     0.04274   0.16662   0.74896   0.00000  Uiso   1.00
C785   C     0.13636   0.02463   0.72858   0.00000  Uiso   1.00
C786   C     0.19666   0.30867   0.77210   0.00000  Uiso   1.00
C787   C     0.19672   0.02494   0.77200   0.00000  Uiso   1.00
C788   C     0.13651   0.30841   0.72822   0.00000  Uiso   1.00
C789   C     0.16555   0.16645   0.66441   0.00000  Uiso   1.00
C790   C     0.16710   0.16690   0.83552   0.00000  Uiso   1.00
C791   C     0.19972   0.18970   0.90725   0.00000  Uiso   1.00
C792   C     0.13270   0.14359   0.59236   0.00000  Uiso   1.00
C793   C     0.16750   0.16759   0.88368   0.00000  Uiso   1.00
C794   C     0.16461   0.16623   0.61609   0.00000  Uiso   1.00
C795   C     0.13469   0.14710   0.90581   0.00000  Uiso   1.00
C796   C     0.19557   0.19023   0.59395   0.00000  Uiso   1.00
C797   C     0.13305   0.14864   0.95197   0.00000  Uiso   1.00
C798   C     0.19599   0.19133   0.54776   0.00000  Uiso   1.00
C799   C     0.16509   0.17030   0.97645   0.00000  Uiso   1.00
C800   C     0.16396   0.16975   0.52325   0.00000  Uiso   1.00
C801   C     0.19827   0.19222   0.95418   0.00000  Uiso   1.00
C802   C     0.13087   0.14767   0.54549   0.00000  Uiso   1.00
C803   C     0.09913   0.12982   0.97380   0.00000  Uiso   1.00
C804   C     0.22781   0.21438   0.52592   0.00000  Uiso   1.00
Cu805  Cu    0.16667   0.21355   0.75000   0.00000  Uiso   1.00
Cu806  Cu    0.16667   0.11978   0.75000   0.00000  Uiso   1.00
H807   H     0.10998   0.13072   0.88681   0.00000  Uiso   1.00
H808   H     0.21987   0.20739   0.61295   0.00000  Uiso   1.00
H809   H     0.07374   0.11482   0.95489   0.00000  Uiso   1.00
H810   H     0.25213   0.23146   0.54487   0.00000  Uiso   1.00
H811   H     0.03756   0.09157   0.75857   0.00000  Uiso   1.00
H812   H     0.29571   0.24143   0.73822   0.00000  Uiso   1.00
H813   H     0.29618   0.09153   0.75852   0.00000  Uiso   1.00
H814   H     0.03716   0.24155   0.73873   0.00000  Uiso   1.00
N815   N     0.16667   0.28402   0.75000   0.00000  Uiso   1.00
N816   N     0.16667   0.04931   0.75000   0.00000  Uiso   1.00
O817   O     0.10655   0.20625   0.75000   0.00000  Uiso   1.00
O818   O     0.22679   0.12709   0.75001   0.00000  Uiso   1.00
O819   O     0.22679   0.20625   0.75001   0.00000  Uiso   1.00
O820   O     0.10655   0.12709   0.75000   0.00000  Uiso   1.00
O821   O     0.16666   0.20627   0.68513   0.00000  Uiso   1.00
O822   O     0.16668   0.12707   0.81487   0.00000  Uiso   1.00
O823   O     0.16668   0.20627   0.81487   0.00000  Uiso   1.00
O824   O     0.16666   0.12707   0.68513   0.00000  Uiso   1.00
O825   O     0.23205   0.20944   0.88419   0.00000  Uiso   1.00
C826   C     0.26217   0.17458   0.87605   0.00000  Uiso   1.00
H827   H     0.25176   0.15081   0.84873   0.00000  Uiso   1.00
H828   H     0.26898   0.15337   0.90623   0.00000  Uiso   1.00
C829   C     0.30208   0.19791   0.86203   0.00000  Uiso   1.00
H830   H     0.31559   0.21778   0.89047   0.00000  Uiso   1.00
H831   H     0.32459   0.17094   0.85095   0.00000  Uiso   1.00
H832   H     0.29600   0.22243   0.83433   0.00000  Uiso   1.00
O833   O     0.10209   0.12063   0.61547   0.00000  Uiso   1.00
C834   C     0.10983   0.07185   0.61391   0.00000  Uiso   1.00
H835   H     0.13560   0.06284   0.63675   0.00000  Uiso   1.00
H836   H     0.11799   0.05903   0.57993   0.00000  Uiso   1.00
C837   C     0.07128   0.04586   0.62834   0.00000  Uiso   1.00
H838   H     0.04680   0.04902   0.60259   0.00000  Uiso   1.00
H839   H     0.07852   0.00819   0.63292   0.00000  Uiso   1.00
H840   H     0.05950   0.06071   0.66009   0.00000  Uiso   1.00
O841   O     0.06170   0.11426   0.54018   0.00000  Uiso   1.00
C842   C     0.03235   0.15084   0.54176   0.00000  Uiso   1.00
H843   H     0.02225   0.16056   0.50758   0.00000  Uiso   1.00
H844   H     0.04507   0.18236   0.55916   0.00000  Uiso   1.00
C845   C     0.32807   0.13460   0.56730   0.00000  Uiso   1.00
H846   H     0.00361   0.12595   0.60202   0.00000  Uiso   1.00
H847   H     0.30451   0.16286   0.56807   0.00000  Uiso   1.00
H848   H     0.31456   0.10313   0.55092   0.00000  Uiso   1.00
O849   O     0.26070   0.23957   0.95934   0.00000  Uiso   1.00
C850   C     0.25126   0.28787   0.95922   0.00000  Uiso   1.00
H851   H     0.25186   0.30246   0.99370   0.00000  Uiso   1.00
H852   H     0.22041   0.29455   0.94390   0.00000  Uiso   1.00
C853   C     0.28332   0.31352   0.93200   0.00000  Uiso   1.00
H854   H     0.28242   0.30088   0.89696   0.00000  Uiso   1.00
H855   H     0.27675   0.01837   0.93263   0.00000  Uiso   1.00
H856   H     0.31458   0.30737   0.94607   0.00000  Uiso   1.00
H857   H     0.11186   0.04318   0.71196   0.00000  Uiso   1.00
H858   H     0.22061   0.29015   0.78996   0.00000  Uiso   1.00
H859   H     0.22074   0.04369   0.78974   0.00000  Uiso   1.00
H860   H     0.11236   0.28970   0.71065   0.00000  Uiso   1.00
C861   C     0.42069   0.16668   0.74968   0.00000  Uiso   1.00
C862   C     0.57930   0.16662   0.74949   0.00000  Uiso   1.00
C863   C     0.43027   0.13082   0.52014   0.00000  Uiso   1.00
C864   C     0.56212   0.21604   0.97952   0.00000  Uiso   1.00
C865   C     0.35475   0.12444   0.75407   0.00000  Uiso   1.00
C866   C     0.64522   0.20857   0.74270   0.00000  Uiso   1.00
C867   C     0.64547   0.12439   0.75395   0.00000  Uiso   1.00
C868   C     0.35451   0.20866   0.74307   0.00000  Uiso   1.00
C869   C     0.62390   0.16650   0.74857   0.00000  Uiso   1.00
C870   C     0.37608   0.16662   0.74896   0.00000  Uiso   1.00
C871   C     0.46970   0.02463   0.72858   0.00000  Uiso   1.00
C872   C     0.52999   0.30867   0.77210   0.00000  Uiso   1.00
C873   C     0.53005   0.02494   0.77200   0.00000  Uiso   1.00
C874   C     0.46985   0.30841   0.72822   0.00000  Uiso   1.00
C875   C     0.49889   0.16645   0.66441   0.00000  Uiso   1.00
C876   C     0.50044   0.16690   0.83552   0.00000  Uiso   1.00
C877   C     0.53305   0.18970   0.90725   0.00000  Uiso   1.00
C878   C     0.46603   0.14359   0.59236   0.00000  Uiso   1.00
C879   C     0.50083   0.16759   0.88368   0.00000  Uiso   1.00
C880   C     0.49794   0.16623   0.61609   0.00000  Uiso   1.00
C881   C     0.46802   0.14710   0.90581   0.00000  Uiso   1.00
C882   C     0.52891   0.19023   0.59395   0.00000  Uiso   1.00
C883   C     0.46638   0.14864   0.95197   0.00000  Uiso   1.00
C884   C     0.52932   0.19133   0.54776   0.00000  Uiso   1.00
C885   C     0.49842   0.17030   0.97645   0.00000  Uiso   1.00
C886   C     0.49730   0.16975   0.52325   0.00000  Uiso   1.00
C887   C     0.53160   0.19222   0.95418   0.00000  Uiso   1.00
C888   C     0.46421   0.14767   0.54549   0.00000  Uiso   1.00
C889   C     0.43246   0.12982   0.97380   0.00000  Uiso   1.00
C890   C     0.56115   0.21438   0.52592   0.00000  Uiso   1.00
Cu891  Cu    0.50000   0.21355   0.75000   0.00000  Uiso   1.00
Cu892  Cu    0.50000   0.11978   0.75000   0.00000  Uiso   1.00
H893   H     0.44332   0.13072   0.88681   0.00000  Uiso   1.00
H894   H     0.55320   0.20739   0.61295   0.00000  Uiso   1.00
H895   H     0.40708   0.11482   0.95489   0.00000  Uiso   1.00
H896   H     0.58547   0.23146   0.54487   0.00000  Uiso   1.00
H897   H     0.37089   0.09157   0.75857   0.00000  Uiso   1.00
H898   H     0.62905   0.24143   0.73822   0.00000  Uiso   1.00
H899   H     0.62951   0.09153   0.75852   0.00000  Uiso   1.00
H900   H     0.37049   0.24155   0.73873   0.00000  Uiso   1.00
N901   N     0.50000   0.28402   0.75000   0.00000  Uiso   1.00
N902   N     0.50000   0.04931   0.75000   0.00000  Uiso   1.00
O903   O     0.43988   0.20625   0.75000   0.00000  Uiso   1.00
O904   O     0.56012   0.12709   0.75001   0.00000  Uiso   1.00
O905   O     0.56012   0.20625   0.75001   0.00000  Uiso   1.00
O906   O     0.43988   0.12709   0.75000   0.00000  Uiso   1.00
O907   O     0.49999   0.20627   0.68513   0.00000  Uiso   1.00
O908   O     0.50001   0.12707   0.81487   0.00000  Uiso   1.00
O909   O     0.50001   0.20627   0.81487   0.00000  Uiso   1.00
O910   O     0.49999   0.12707   0.68513   0.00000  Uiso   1.00
O911   O     0.56539   0.20944   0.88419   0.00000  Uiso   1.00
C912   C     0.59551   0.17458   0.87605   0.00000  Uiso   1.00
H913   H     0.58509   0.15081   0.84873   0.00000  Uiso   1.00
H914   H     0.60231   0.15337   0.90623   0.00000  Uiso   1.00
C915   C     0.63541   0.19791   0.86203   0.00000  Uiso   1.00
H916   H     0.64892   0.21778   0.89047   0.00000  Uiso   1.00
H917   H     0.65793   0.17094   0.85095   0.00000  Uiso   1.00
H918   H     0.62933   0.22243   0.83433   0.00000  Uiso   1.00
O919   O     0.43542   0.12063   0.61547   0.00000  Uiso   1.00
C920   C     0.44316   0.07185   0.61391   0.00000  Uiso   1.00
H921   H     0.46894   0.06284   0.63675   0.00000  Uiso   1.00
H922   H     0.45132   0.05903   0.57993   0.00000  Uiso   1.00
C923   C     0.40461   0.04586   0.62834   0.00000  Uiso   1.00
H924   H     0.38014   0.04902   0.60259   0.00000  Uiso   1.00
H925   H     0.41185   0.00819   0.63292   0.00000  Uiso   1.00
H926   H     0.39284   0.06071   0.66009   0.00000  Uiso   1.00
O927   O     0.39503   0.11426   0.54018   0.00000  Uiso   1.00
C928   C     0.36569   0.15084   0.54176   0.00000  Uiso   1.00
H929   H     0.35558   0.16056   0.50758   0.00000  Uiso   1.00
H930   H     0.37840   0.18236   0.55916   0.00000  Uiso   1.00
C931   C     0.66140   0.13460   0.56730   0.00000  Uiso   1.00
H932   H     0.33694   0.12595   0.60202   0.00000  Uiso   1.00
H933   H     0.63785   0.16286   0.56807   0.00000  Uiso   1.00
H934   H     0.64789   0.10313   0.55092   0.00000  Uiso   1.00
O935   O     0.59404   0.23957   0.95934   0.00000  Uiso   1.00
C936   C     0.58459   0.28787   0.95922   0.00000  Uiso   1.00
H937   H     0.58519   0.30246   0.99370   0.00000  Uiso   1.00
H938   H     0.55375   0.29455   0.94390   0.00000  Uiso   1.00
C939   C     0.61665   0.31352   0.93200   0.00000  Uiso   1.00
H940   H     0.61575   0.30088   0.89696   0.00000  Uiso   1.00
H941   H     0.61009   0.01837   0.93263   0.00000  Uiso   1.00
H942   H     0.64792   0.30737   0.94607   0.00000  Uiso   1.00
H943   H     0.44520   0.04318   0.71196   0.00000  Uiso   1.00
H944   H     0.55394   0.29015   0.78996   0.00000  Uiso   1.00
H945   H     0.55407   0.04369   0.78974   0.00000  Uiso   1.00
H946   H     0.44569   0.28970   0.71065   0.00000  Uiso   1.00
C947   C     0.75403   0.16668   0.74968   0.00000  Uiso   1.00
C948   C     0.91263   0.16662   0.74949   0.00000  Uiso   1.00
C949   C     0.76361   0.13082   0.52014   0.00000  Uiso   1.00
C950   C     0.89545   0.21604   0.97952   0.00000  Uiso   1.00
C951   C     0.68808   0.12444   0.75407   0.00000  Uiso   1.00
C952   C     0.97855   0.20857   0.74270   0.00000  Uiso   1.00
C953   C     0.97880   0.12439   0.75395   0.00000  Uiso   1.00
C954   C     0.68785   0.20866   0.74307   0.00000  Uiso   1.00
C955   C     0.95723   0.16650   0.74857   0.00000  Uiso   1.00
C956   C     0.70941   0.16662   0.74896   0.00000  Uiso   1.00
C957   C     0.80303   0.02463   0.72858   0.00000  Uiso   1.00
C958   C     0.86332   0.30867   0.77210   0.00000  Uiso   1.00
C959   C     0.86338   0.02494   0.77200   0.00000  Uiso   1.00
C960   C     0.80318   0.30841   0.72822   0.00000  Uiso   1.00
C961   C     0.83222   0.16645   0.66441   0.00000  Uiso   1.00
C962   C     0.83377   0.16690   0.83552   0.00000  Uiso   1.00
C963   C     0.86638   0.18970   0.90725   0.00000  Uiso   1.00
C964   C     0.79937   0.14359   0.59236   0.00000  Uiso   1.00
C965   C     0.83416   0.16759   0.88368   0.00000  Uiso   1.00
C966   C     0.83127   0.16623   0.61609   0.00000  Uiso   1.00
C967   C     0.80136   0.14710   0.90581   0.00000  Uiso   1.00
C968   C     0.86224   0.19023   0.59395   0.00000  Uiso   1.00
C969   C     0.79971   0.14864   0.95197   0.00000  Uiso   1.00
C970   C     0.86265   0.19133   0.54776   0.00000  Uiso   1.00
C971   C     0.83176   0.17030   0.97645   0.00000  Uiso   1.00
C972   C     0.83063   0.16975   0.52325   0.00000  Uiso   1.00
C973   C     0.86493   0.19222   0.95418   0.00000  Uiso   1.00
C974   C     0.79754   0.14767   0.54549   0.00000  Uiso   1.00
C975   C     0.76579   0.12982   0.97380   0.00000  Uiso   1.00
C976   C     0.89448   0.21438   0.52592   0.00000  Uiso   1.00
Cu977  Cu    0.83333   0.21355   0.75000   0.00000  Uiso   1.00
Cu978  Cu    0.83333   0.11978   0.75000   0.00000  Uiso   1.00
H979   H     0.77665   0.13072   0.88681   0.00000  Uiso   1.00
H980   H     0.88654   0.20739   0.61295   0.00000  Uiso   1.00
H981   H     0.74041   0.11482   0.95489   0.00000  Uiso   1.00
H982   H     0.91880   0.23146   0.54487   0.00000  Uiso   1.00
H983   H     0.70423   0.09157   0.75857   0.00000  Uiso   1.00
H984   H     0.96238   0.24143   0.73822   0.00000  Uiso   1.00
H985   H     0.96284   0.09153   0.75852   0.00000  Uiso   1.00
H986   H     0.70382   0.24155   0.73873   0.00000  Uiso   1.00
N987   N     0.83333   0.28402   0.75000   0.00000  Uiso   1.00
N988   N     0.83333   0.04931   0.75000   0.00000  Uiso   1.00
O989   O     0.77321   0.20625   0.75000   0.00000  Uiso   1.00
O990   O     0.89345   0.12709   0.75001   0.00000  Uiso   1.00
O991   O     0.89345   0.20625   0.75001   0.00000  Uiso   1.00
O992   O     0.77321   0.12709   0.75000   0.00000  Uiso   1.00
O993   O     0.83332   0.20627   0.68513   0.00000  Uiso   1.00
O994   O     0.83334   0.12707   0.81487   0.00000  Uiso   1.00
O995   O     0.83334   0.20627   0.81487   0.00000  Uiso   1.00
O996   O     0.83332   0.12707   0.68513   0.00000  Uiso   1.00
O997   O     0.89872   0.20944   0.88419   0.00000  Uiso   1.00
C998   C     0.92884   0.17458   0.87605   0.00000  Uiso   1.00
H999   H     0.91843   0.15081   0.84873   0.00000  Uiso   1.00
H1000  H     0.93565   0.15337   0.90623   0.00000  Uiso   1.00
C1001  C     0.96875   0.19791   0.86203   0.00000  Uiso   1.00
H1002  H     0.98226   0.21778   0.89047   0.00000  Uiso   1.00
H1003  H     0.99126   0.17094   0.85095   0.00000  Uiso   1.00
H1004  H     0.96266   0.22243   0.83433   0.00000  Uiso   1.00
O1005  O     0.76876   0.12063   0.61547   0.00000  Uiso   1.00
C1006  C     0.77650   0.07185   0.61391   0.00000  Uiso   1.00
H1007  H     0.80227   0.06284   0.63675   0.00000  Uiso   1.00
H1008  H     0.78465   0.05903   0.57993   0.00000  Uiso   1.00
C1009  C     0.73795   0.04586   0.62834   0.00000  Uiso   1.00
H1010  H     0.71347   0.04902   0.60259   0.00000  Uiso   1.00
H1011  H     0.74518   0.00819   0.63292   0.00000  Uiso   1.00
H1012  H     0.72617   0.06071   0.66009   0.00000  Uiso   1.00
O1013  O     0.72837   0.11426   0.54018   0.00000  Uiso   1.00
C1014  C     0.69902   0.15084   0.54176   0.00000  Uiso   1.00
H1015  H     0.68891   0.16056   0.50758   0.00000  Uiso   1.00
H1016  H     0.71174   0.18236   0.55916   0.00000  Uiso   1.00
C1017  C     0.99474   0.13460   0.56730   0.00000  Uiso   1.00
H1018  H     0.67028   0.12595   0.60202   0.00000  Uiso   1.00
H1019  H     0.97118   0.16286   0.56807   0.00000  Uiso   1.00
H1020  H     0.98123   0.10313   0.55092   0.00000  Uiso   1.00
O1021  O     0.92737   0.23957   0.95934   0.00000  Uiso   1.00
C1022  C     0.91793   0.28787   0.95922   0.00000  Uiso   1.00
H1023  H     0.91853   0.30246   0.99370   0.00000  Uiso   1.00
H1024  H     0.88708   0.29455   0.94390   0.00000  Uiso   1.00
C1025  C     0.94999   0.31352   0.93200   0.00000  Uiso   1.00
H1026  H     0.94909   0.30088   0.89696   0.00000  Uiso   1.00
H1027  H     0.94342   0.01837   0.93263   0.00000  Uiso   1.00
H1028  H     0.98125   0.30737   0.94607   0.00000  Uiso   1.00
H1029  H     0.77853   0.04318   0.71196   0.00000  Uiso   1.00
H1030  H     0.88727   0.29015   0.78996   0.00000  Uiso   1.00
H1031  H     0.88740   0.04369   0.78974   0.00000  Uiso   1.00
H1032  H     0.77903   0.28970   0.71065   0.00000  Uiso   1.00
C1033  C     0.08736   0.50002   0.74968   0.00000  Uiso   1.00
C1034  C     0.24596   0.49995   0.74949   0.00000  Uiso   1.00
C1035  C     0.09694   0.46416   0.52014   0.00000  Uiso   1.00
C1036  C     0.22878   0.54937   0.97952   0.00000  Uiso   1.00
C1037  C     0.02141   0.45777   0.75407   0.00000  Uiso   1.00
C1038  C     0.31189   0.54191   0.74270   0.00000  Uiso   1.00
C1039  C     0.31213   0.45773   0.75395   0.00000  Uiso   1.00
C1040  C     0.02118   0.54199   0.74307   0.00000  Uiso   1.00
C1041  C     0.29057   0.49984   0.74857   0.00000  Uiso   1.00
C1042  C     0.04274   0.49996   0.74896   0.00000  Uiso   1.00
C1043  C     0.13636   0.35797   0.72858   0.00000  Uiso   1.00
C1044  C     0.19666   0.64201   0.77210   0.00000  Uiso   1.00
C1045  C     0.19672   0.35827   0.77200   0.00000  Uiso   1.00
C1046  C     0.13651   0.64174   0.72822   0.00000  Uiso   1.00
C1047  C     0.16555   0.49978   0.66441   0.00000  Uiso   1.00
C1048  C     0.16710   0.50024   0.83552   0.00000  Uiso   1.00
C1049  C     0.19972   0.52304   0.90725   0.00000  Uiso   1.00
C1050  C     0.13270   0.47693   0.59236   0.00000  Uiso   1.00
C1051  C     0.16750   0.50093   0.88368   0.00000  Uiso   1.00
C1052  C     0.16461   0.49956   0.61609   0.00000  Uiso   1.00
C1053  C     0.13469   0.48044   0.90581   0.00000  Uiso   1.00
C1054  C     0.19557   0.52356   0.59395   0.00000  Uiso   1.00
C1055  C     0.13305   0.48197   0.95197   0.00000  Uiso   1.00
C1056  C     0.19599   0.52466   0.54776   0.00000  Uiso   1.00
C1057  C     0.16509   0.50364   0.97645   0.00000  Uiso   1.00
C1058  C     0.16396   0.50308   0.52325   0.00000  Uiso   1.00
C1059  C     0.19827   0.52555   0.95418   0.00000  Uiso   1.00
C1060  C     0.13087   0.48101   0.54549   0.00000  Uiso   1.00
C1061  C     0.09913   0.46315   0.97380   0.00000  Uiso   1.00
C1062  C     0.22781   0.54771   0.52592   0.00000  Uiso   1.00
Cu1063 Cu    0.16667   0.54689   0.75000   0.00000  Uiso   1.00
Cu1064 Cu    0.16667   0.45311   0.75000   0.00000  Uiso   1.00
H1065  H     0.10998   0.46406   0.88681   0.00000  Uiso   1.00
H1066  H     0.21987   0.54072   0.61295   0.00000  Uiso   1.00
H1067  H     0.07374   0.44815   0.95489   0.00000  Uiso   1.00
H1068  H     0.25213   0.56479   0.54487   0.00000  Uiso   1.00
H1069  H     0.03756   0.42490   0.75857   0.00000  Uiso   1.00
H1070  H     0.29571   0.57476   0.73822   0.00000  Uiso   1.00
H1071  H     0.29618   0.42486   0.75852   0.00000  Uiso   1.00
H1072  H     0.03716   0.57489   0.73873   0.00000  Uiso   1.00
N1073  N     0.16667   0.61736   0.75000   0.00000  Uiso   1.00
N1074  N     0.16667   0.38264   0.75000   0.00000  Uiso   1.00
O1075  O     0.10655   0.53958   0.75000   0.00000  Uiso   1.00
O1076  O     0.22679   0.46042   0.75001   0.00000  Uiso   1.00
O1077  O     0.22679   0.53958   0.75001   0.00000  Uiso   1.00
O1078  O     0.10655   0.46042   0.75000   0.00000  Uiso   1.00
O1079  O     0.16666   0.53960   0.68513   0.00000  Uiso   1.00
O1080  O     0.16668   0.46040   0.81487   0.00000  Uiso   1.00
O1081  O     0.16668   0.53960   0.81487   0.00000  Uiso   1.00
O1082  O     0.16666   0.46040   0.68513   0.00000  Uiso   1.00
O1083  O     0.23205   0.54278   0.88419   0.00000  Uiso   1.00
C1084  C     0.26217   0.50791   0.87605   0.00000  Uiso   1.00
H1085  H     0.25176   0.48414   0.84873   0.00000  Uiso   1.00
H1086  H     0.26898   0.48670   0.90623   0.00000  Uiso   1.00
C1087  C     0.30208   0.53125   0.86203   0.00000  Uiso   1.00
H1088  H     0.31559   0.55112   0.89047   0.00000  Uiso   1.00
H1089  H     0.32459   0.50428   0.85095   0.00000  Uiso   1.00
H1090  H     0.29600   0.55577   0.83433   0.00000  Uiso   1.00
O1091  O     0.10209   0.45396   0.61547   0.00000  Uiso   1.00
C1092  C     0.10983   0.40518   0.61391   0.00000  Uiso   1.00
H1093  H     0.13560   0.39617   0.63675   0.00000  Uiso   1.00
H1094  H     0.11799   0.39236   0.57993   0.00000  Uiso   1.00
C1095  C     0.07128   0.37919   0.62834   0.00000  Uiso   1.00
H1096  H     0.04680   0.38235   0.60259   0.00000  Uiso   1.00
H1097  H     0.07852   0.34152   0.63292   0.00000  Uiso   1.00
H1098  H     0.05950   0.39405   0.66009   0.00000  Uiso   1.00
O1099  O     0.06170   0.44759   0.54018   0.00000  Uiso   1.00
C1100  C     0.03235   0.48418   0.54176   0.00000  Uiso   1.00
H1101  H     0.02225   0.49390   0.50758   0.00000  Uiso   1.00
H1102  H     0.04507   0.51569   0.55916   0.00000  Uiso   1.00
C1103  C     0.32807   0.46794   0.56730   0.00000  Uiso   1.00
H1104  H     0.00361   0.45929   0.60202   0.00000  Uiso   1.00
H1105  H     0.30451   0.49620   0.56807   0.00000  Uiso   1.00
H1106  H     0.31456   0.43646   0.55092   0.00000  Uiso   1.00
O1107  O     0.26070   0.57291   0.95934   0.00000  Uiso   1.00
C1108  C     0.25126   0.62121   0.95922   0.00000  Uiso   1.00
H1109  H     0.25186   0.63580   0.99370   0.00000  Uiso   1.00
H1110  H     0.22041   0.62788   0.94390   0.00000  Uiso   1.00
C1111  C     0.28332   0.64686   0.93200   0.00000  Uiso   1.00
H1112  H     0.28242   0.63421   0.89696   0.00000  Uiso   1.00
H1113  H     0.27675   0.35170   0.93263   0.00000  Uiso   1.00
H1114  H     0.31458   0.64071   0.94607   0.00000  Uiso   1.00
H1115  H     0.11186   0.37652   0.71196   0.00000  Uiso   1.00
H1116  H     0.22061   0.62348   0.78996   0.00000  Uiso   1.00
H1117  H     0.22074   0.37703   0.78974   0.00000  Uiso   1.00
H1118  H     0.11236   0.62303   0.71065   0.00000  Uiso   1.00
C1119  C     0.42069   0.50002   0.74968   0.00000  Uiso   1.00
C1120  C     0.57930   0.49995   0.74949   0.00000  Uiso   1.00
C1121  C     0.43027   0.46416   0.52014   0.00000  Uiso   1.00
C1122  C     0.56212   0.54937   0.97952   0.00000  Uiso   1.00
C1123  C     0.35475   0.45777   0.75407   0.00000  Uiso   1.00
C1124  C     0.64522   0.54191   0.74270   0.00000  Uiso   1.00
C1125  C     0.64547   0.45773   0.75395   0.00000  Uiso   1.00
C1126  C     0.35451   0.54199   0.74307   0.00000  Uiso   1.00
C1127  C     0.62390   0.49984   0.74857   0.00000  Uiso   1.00
C1128  C     0.37608   0.49996   0.74896   0.00000  Uiso   1.00
C1129  C     0.46970   0.35797   0.72858   0.00000  Uiso   1.00
C1130  C     0.52999   0.64201   0.77210   0.00000  Uiso   1.00
C1131  C     0.53005   0.35827   0.77200   0.00000  Uiso   1.00
C1132  C     0.46985   0.64174   0.72822   0.00000  Uiso   1.00
C1133  C     0.49889   0.49978   0.66441   0.00000  Uiso   1.00
C1134  C     0.50044   0.50024   0.83552   0.00000  Uiso   1.00
C1135  C     0.53305   0.52304   0.90725   0.00000  Uiso   1.00
C1136  C     0.46603   0.47693   0.59236   0.00000  Uiso   1.00
C1137  C     0.50083   0.50093   0.88368   0.00000  Uiso   1.00
C1138  C     0.49794   0.49956   0.61609   0.00000  Uiso   1.00
C1139  C     0.46802   0.48044   0.90581   0.00000  Uiso   1.00
C1140  C     0.52891   0.52356   0.59395   0.00000  Uiso   1.00
C1141  C     0.46638   0.48197   0.95197   0.00000  Uiso   1.00
C1142  C     0.52932   0.52466   0.54776   0.00000  Uiso   1.00
C1143  C     0.49842   0.50364   0.97645   0.00000  Uiso   1.00
C1144  C     0.49730   0.50308   0.52325   0.00000  Uiso   1.00
C1145  C     0.53160   0.52555   0.95418   0.00000  Uiso   1.00
C1146  C     0.46421   0.48101   0.54549   0.00000  Uiso   1.00
C1147  C     0.43246   0.46315   0.97380   0.00000  Uiso   1.00
C1148  C     0.56115   0.54771   0.52592   0.00000  Uiso   1.00
Cu1149 Cu    0.50000   0.54689   0.75000   0.00000  Uiso   1.00
Cu1150 Cu    0.50000   0.45311   0.75000   0.00000  Uiso   1.00
H1151  H     0.44332   0.46406   0.88681   0.00000  Uiso   1.00
H1152  H     0.55320   0.54072   0.61295   0.00000  Uiso   1.00
H1153  H     0.40708   0.44815   0.95489   0.00000  Uiso   1.00
H1154  H     0.58547   0.56479   0.54487   0.00000  Uiso   1.00
H1155  H     0.37089   0.42490   0.75857   0.00000  Uiso   1.00
H1156  H     0.62905   0.57476   0.73822   0.00000  Uiso   1.00
H1157  H     0.62951   0.42486   0.75852   0.00000  Uiso   1.00
H1158  H     0.37049   0.57489   0.73873   0.00000  Uiso   1.00
N1159  N     0.50000   0.61736   0.75000   0.00000  Uiso   1.00
N1160  N     0.50000   0.38264   0.75000   0.00000  Uiso   1.00
O1161  O     0.43988   0.53958   0.75000   0.00000  Uiso   1.00
O1162  O     0.56012   0.46042   0.75001   0.00000  Uiso   1.00
O1163  O     0.56012   0.53958   0.75001   0.00000  Uiso   1.00
O1164  O     0.43988   0.46042   0.75000   0.00000  Uiso   1.00
O1165  O     0.49999   0.53960   0.68513   0.00000  Uiso   1.00
O1166  O     0.50001   0.46040   0.81487   0.00000  Uiso   1.00
O1167  O     0.50001   0.53960   0.81487   0.00000  Uiso   1.00
O1168  O     0.49999   0.46040   0.68513   0.00000  Uiso   1.00
O1169  O     0.56539   0.54278   0.88419   0.00000  Uiso   1.00
C1170  C     0.59551   0.50791   0.87605   0.00000  Uiso   1.00
H1171  H     0.58509   0.48414   0.84873   0.00000  Uiso   1.00
H1172  H     0.60231   0.48670   0.90623   0.00000  Uiso   1.00
C1173  C     0.63541   0.53125   0.86203   0.00000  Uiso   1.00
H1174  H     0.64892   0.55112   0.89047   0.00000  Uiso   1.00
H1175  H     0.65793   0.50428   0.85095   0.00000  Uiso   1.00
H1176  H     0.62933   0.55577   0.83433   0.00000  Uiso   1.00
O1177  O     0.43542   0.45396   0.61547   0.00000  Uiso   1.00
C1178  C     0.44316   0.40518   0.61391   0.00000  Uiso   1.00
H1179  H     0.46894   0.39617   0.63675   0.00000  Uiso   1.00
H1180  H     0.45132   0.39236   0.57993   0.00000  Uiso   1.00
C1181  C     0.40461   0.37919   0.62834   0.00000  Uiso   1.00
H1182  H     0.38014   0.38235   0.60259   0.00000  Uiso   1.00
H1183  H     0.41185   0.34152   0.63292   0.00000  Uiso   1.00
H1184  H     0.39284   0.39405   0.66009   0.00000  Uiso   1.00
O1185  O     0.39503   0.44759   0.54018   0.00000  Uiso   1.00
C1186  C     0.36569   0.48418   0.54176   0.00000  Uiso   1.00
H1187  H     0.35558   0.49390   0.50758   0.00000  Uiso   1.00
H1188  H     0.37840   0.51569   0.55916   0.00000  Uiso   1.00
C1189  C     0.66140   0.46794   0.56730   0.00000  Uiso   1.00
H1190  H     0.33694   0.45929   0.60202   0.00000  Uiso   1.00
H1191  H     0.63785   0.49620   0.56807   0.00000  Uiso   1.00
H1192  H     0.64789   0.43646   0.55092   0.00000  Uiso   1.00
O1193  O     0.59404   0.57291   0.95934   0.00000  Uiso   1.00
C1194  C     0.58459   0.62121   0.95922   0.00000  Uiso   1.00
H1195  H     0.58519   0.63580   0.99370   0.00000  Uiso   1.00
H1196  H     0.55375   0.62788   0.94390   0.00000  Uiso   1.00
C1197  C     0.61665   0.64686   0.93200   0.00000  Uiso   1.00
H1198  H     0.61575   0.63421   0.89696   0.00000  Uiso   1.00
H1199  H     0.61009   0.35170   0.93263   0.00000  Uiso   1.00
H1200  H     0.64792   0.64071   0.94607   0.00000  Uiso   1.00
H1201  H     0.44520   0.37652   0.71196   0.00000  Uiso   1.00
H1202  H     0.55394   0.62348   0.78996   0.00000  Uiso   1.00
H1203  H     0.55407   0.37703   0.78974   0.00000  Uiso   1.00
H1204  H     0.44569   0.62303   0.71065   0.00000  Uiso   1.00
C1205  C     0.75403   0.50002   0.74968   0.00000  Uiso   1.00
C1206  C     0.91263   0.49995   0.74949   0.00000  Uiso   1.00
C1207  C     0.76361   0.46416   0.52014   0.00000  Uiso   1.00
C1208  C     0.89545   0.54937   0.97952   0.00000  Uiso   1.00
C1209  C     0.68808   0.45777   0.75407   0.00000  Uiso   1.00
C1210  C     0.97855   0.54191   0.74270   0.00000  Uiso   1.00
C1211  C     0.97880   0.45773   0.75395   0.00000  Uiso   1.00
C1212  C     0.68785   0.54199   0.74307   0.00000  Uiso   1.00
C1213  C     0.95723   0.49984   0.74857   0.00000  Uiso   1.00
C1214  C     0.70941   0.49996   0.74896   0.00000  Uiso   1.00
C1215  C     0.80303   0.35797   0.72858   0.00000  Uiso   1.00
C1216  C     0.86332   0.64201   0.77210   0.00000  Uiso   1.00
C1217  C     0.86338   0.35827   0.77200   0.00000  Uiso   1.00
C1218  C     0.80318   0.64174   0.72822   0.00000  Uiso   1.00
C1219  C     0.83222   0.49978   0.66441   0.00000  Uiso   1.00
C1220  C     0.83377   0.50024   0.83552   0.00000  Uiso   1.00
C1221  C     0.86638   0.52304   0.90725   0.00000  Uiso   1.00
C1222  C     0.79937   0.47693   0.59236   0.00000  Uiso   1.00
C1223  C     0.83416   0.50093   0.88368   0.00000  Uiso   1.00
C1224  C     0.83127   0.49956   0.61609   0.00000  Uiso   1.00
C1225  C     0.80136   0.48044   0.90581   0.00000  Uiso   1.00
C1226  C     0.86224   0.52356   0.59395   0.00000  Uiso   1.00
C1227  C     0.79971   0.48197   0.95197   0.00000  Uiso   1.00
C1228  C     0.86265   0.52466   0.54776   0.00000  Uiso   1.00
C1229  C     0.83176   0.50364   0.97645   0.00000  Uiso   1.00
C1230  C     0.83063   0.50308   0.52325   0.00000  Uiso   1.00
C1231  C     0.86493   0.52555   0.95418   0.00000  Uiso   1.00
C1232  C     0.79754   0.48101   0.54549   0.00000  Uiso   1.00
C1233  C     0.76579   0.46315   0.97380   0.00000  Uiso   1.00
C1234  C     0.89448   0.54771   0.52592   0.00000  Uiso   1.00
Cu1235 Cu    0.83333   0.54689   0.75000   0.00000  Uiso   1.00
Cu1236 Cu    0.83333   0.45311   0.75000   0.00000  Uiso   1.00
H1237  H     0.77665   0.46406   0.88681   0.00000  Uiso   1.00
H1238  H     0.88654   0.54072   0.61295   0.00000  Uiso   1.00
H1239  H     0.74041   0.44815   0.95489   0.00000  Uiso   1.00
H1240  H     0.91880   0.56479   0.54487   0.00000  Uiso   1.00
H1241  H     0.70423   0.42490   0.75857   0.00000  Uiso   1.00
H1242  H     0.96238   0.57476   0.73822   0.00000  Uiso   1.00
H1243  H     0.96284   0.42486   0.75852   0.00000  Uiso   1.00
H1244  H     0.70382   0.57489   0.73873   0.00000  Uiso   1.00
N1245  N     0.83333   0.61736   0.75000   0.00000  Uiso   1.00
N1246  N     0.83333   0.38264   0.75000   0.00000  Uiso   1.00
O1247  O     0.77321   0.53958   0.75000   0.00000  Uiso   1.00
O1248  O     0.89345   0.46042   0.75001   0.00000  Uiso   1.00
O1249  O     0.89345   0.53958   0.75001   0.00000  Uiso   1.00
O1250  O     0.77321   0.46042   0.75000   0.00000  Uiso   1.00
O1251  O     0.83332   0.53960   0.68513   0.00000  Uiso   1.00
O1252  O     0.83334   0.46040   0.81487   0.00000  Uiso   1.00
O1253  O     0.83334   0.53960   0.81487   0.00000  Uiso   1.00
O1254  O     0.83332   0.46040   0.68513   0.00000  Uiso   1.00
O1255  O     0.89872   0.54278   0.88419   0.00000  Uiso   1.00
C1256  C     0.92884   0.50791   0.87605   0.00000  Uiso   1.00
H1257  H     0.91843   0.48414   0.84873   0.00000  Uiso   1.00
H1258  H     0.93565   0.48670   0.90623   0.00000  Uiso   1.00
C1259  C     0.96875   0.53125   0.86203   0.00000  Uiso   1.00
H1260  H     0.98226   0.55112   0.89047   0.00000  Uiso   1.00
H1261  H     0.99126   0.50428   0.85095   0.00000  Uiso   1.00
H1262  H     0.96266   0.55577   0.83433   0.00000  Uiso   1.00
O1263  O     0.76876   0.45396   0.61547   0.00000  Uiso   1.00
C1264  C     0.77650   0.40518   0.61391   0.00000  Uiso   1.00
H1265  H     0.80227   0.39617   0.63675   0.00000  Uiso   1.00
H1266  H     0.78465   0.39236   0.57993   0.00000  Uiso   1.00
C1267  C     0.73795   0.37919   0.62834   0.00000  Uiso   1.00
H1268  H     0.71347   0.38235   0.60259   0.00000  Uiso   1.00
H1269  H     0.74518   0.34152   0.63292   0.00000  Uiso   1.00
H1270  H     0.72617   0.39405   0.66009   0.00000  Uiso   1.00
O1271  O     0.72837   0.44759   0.54018   0.00000  Uiso   1.00
C1272  C     0.69902   0.48418   0.54176   0.00000  Uiso   1.00
H1273  H     0.68891   0.49390   0.50758   0.00000  Uiso   1.00
H1274  H     0.71174   0.51569   0.55916   0.00000  Uiso   1.00
C1275  C     0.99474   0.46794   0.56730   0.00000  Uiso   1.00
H1276  H     0.67028   0.45929   0.60202   0.00000  Uiso   1.00
H1277  H     0.97118   0.49620   0.56807   0.00000  Uiso   1.00
H1278  H     0.98123   0.43646   0.55092   0.00000  Uiso   1.00
O1279  O     0.92737   0.57291   0.95934   0.00000  Uiso   1.00
C1280  C     0.91793   0.62121   0.95922   0.00000  Uiso   1.00
H1281  H     0.91853   0.63580   0.99370   0.00000  Uiso   1.00
H1282  H     0.88708   0.62788   0.94390   0.00000  Uiso   1.00
C1283  C     0.94999   0.64686   0.93200   0.00000  Uiso   1.00
H1284  H     0.94909   0.63421   0.89696   0.00000  Uiso   1.00
H1285  H     0.94342   0.35170   0.93263   0.00000  Uiso   1.00
H1286  H     0.98125   0.64071   0.94607   0.00000  Uiso   1.00
H1287  H     0.77853   0.37652   0.71196   0.00000  Uiso   1.00
H1288  H     0.88727   0.62348   0.78996   0.00000  Uiso   1.00
H1289  H     0.88740   0.37703   0.78974   0.00000  Uiso   1.00
H1290  H     0.77903   0.62303   0.71065   0.00000  Uiso   1.00
C1291  C     0.08736   0.83335   0.74968   0.00000  Uiso   1.00
C1292  C     0.24596   0.83328   0.74949   0.00000  Uiso   1.00
C1293  C     0.09694   0.79749   0.52014   0.00000  Uiso   1.00
C1294  C     0.22878   0.88270   0.97952   0.00000  Uiso   1.00
C1295  C     0.02141   0.79111   0.75407   0.00000  Uiso   1.00
C1296  C     0.31189   0.87524   0.74270   0.00000  Uiso   1.00
C1297  C     0.31213   0.79106   0.75395   0.00000  Uiso   1.00
C1298  C     0.02118   0.87533   0.74307   0.00000  Uiso   1.00
C1299  C     0.29057   0.83317   0.74857   0.00000  Uiso   1.00
C1300  C     0.04274   0.83329   0.74896   0.00000  Uiso   1.00
C1301  C     0.13636   0.69130   0.72858   0.00000  Uiso   1.00
C1302  C     0.19666   0.97534   0.77210   0.00000  Uiso   1.00
C1303  C     0.19672   0.69161   0.77200   0.00000  Uiso   1.00
C1304  C     0.13651   0.97507   0.72822   0.00000  Uiso   1.00
C1305  C     0.16555   0.83312   0.66441   0.00000  Uiso   1.00
C1306  C     0.16710   0.83357   0.83552   0.00000  Uiso   1.00
C1307  C     0.19972   0.85637   0.90725   0.00000  Uiso   1.00
C1308  C     0.13270   0.81026   0.59236   0.00000  Uiso   1.00
C1309  C     0.16750   0.83426   0.88368   0.00000  Uiso   1.00
C1310  C     0.16461   0.83290   0.61609   0.00000  Uiso   1.00
C1311  C     0.13469   0.81377   0.90581   0.00000  Uiso   1.00
C1312  C     0.19557   0.85689   0.59395   0.00000  Uiso   1.00
C1313  C     0.13305   0.81531   0.95197   0.00000  Uiso   1.00
C1314  C     0.19599   0.85799   0.54776   0.00000  Uiso   1.00
C1315  C     0.16509   0.83697   0.97645   0.00000  Uiso   1.00
C1316  C     0.16396   0.83642   0.52325   0.00000  Uiso   1.00
C1317  C     0.19827   0.85889   0.95418   0.00000  Uiso   1.00
C1318  C     0.13087   0.81434   0.54549   0.00000  Uiso   1.00
C1319  C     0.09913   0.79648   0.97380   0.00000  Uiso   1.00
C1320  C     0.22781   0.88105   0.52592   0.00000  Uiso   1.00
Cu1321 Cu    0.16667   0.88022   0.75000   0.00000  Uiso   1.00
Cu1322 Cu    0.16667   0.78645   0.75000   0.00000  Uiso   1.00
H1323  H     0.10998   0.79739   0.88681   0.00000  Uiso   1.00
H1324  H     0.21987   0.87406   0.61295   0.00000  Uiso   1.00
H1325  H     0.07374   0.78148   0.95489   0.00000  Uiso   1.00
H1326  H     0.25213   0.89812   0.54487   0.00000  Uiso   1.00
H1327  H     0.03756   0.75823   0.75857   0.00000  Uiso   1.00
H1328  H     0.29571   0.90810   0.73822   0.00000  Uiso   1.00
H1329  H     0.29618   0.75819   0.75852   0.00000  Uiso   1.00
H1330  H     0.03716   0.90822   0.73873   0.00000  Uiso   1.00
N1331  N     0.16667   0.95069   0.75000   0.00000  Uiso   1.00
N1332  N     0.16667   0.71598   0.75000   0.00000  Uiso   1.00
O1333  O     0.10655   0.87291   0.75000   0.00000  Uiso   1.00
O1334  O     0.22679   0.79375   0.75001   0.00000  Uiso   1.00
O1335  O     0.22679   0.87291   0.75001   0.00000  Uiso   1.00
O1336  O     0.10655   0.79375   0.75000   0.00000  Uiso   1.00
O1337  O     0.16666   0.87293   0.68513   0.00000  Uiso   1.00
O1338  O     0.16668   0.79373   0.81487   0.00000  Uiso   1.00
O1339  O     0.16668   0.87293   0.81487   0.00000  Uiso   1.00
O1340  O     0.16666   0.79373   0.68513   0.00000  Uiso   1.00
O1341  O     0.23205   0.87611   0.88419   0.00000  Uiso   1.00
C1342  C     0.26217   0.84124   0.87605   0.00000  Uiso   1.00
H1343  H     0.25176   0.81748   0.84873   0.00000  Uiso   1.00
H1344  H     0.26898   0.82003   0.90623   0.00000  Uiso   1.00
C1345  C     0.30208   0.86458   0.86203   0.00000  Uiso   1.00
H1346  H     0.31559   0.88445   0.89047   0.00000  Uiso   1.00
H1347  H     0.32459   0.83761   0.85095   0.00000  Uiso   1.00
H1348  H     0.29600   0.88910   0.83433   0.00000  Uiso   1.00
O1349  O     0.10209   0.78729   0.61547   0.00000  Uiso   1.00
C1350  C     0.10983   0.73851   0.61391   0.00000  Uiso   1.00
H1351  H     0.13560   0.72950   0.63675   0.00000  Uiso   1.00
H1352  H     0.11799   0.72570   0.57993   0.00000  Uiso   1.00
C1353  C     0.07128   0.71253   0.62834   0.00000  Uiso   1.00
H1354  H     0.04680   0.71569   0.60259   0.00000  Uiso   1.00
H1355  H     0.07852   0.67485   0.63292   0.00000  Uiso   1.00
H1356  H     0.05950   0.72738   0.66009   0.00000  Uiso   1.00
O1357  O     0.06170   0.78092   0.54018   0.00000  Uiso   1.00
C1358  C     0.03235   0.81751   0.54176   0.00000  Uiso   1.00
H1359  H     0.02225   0.82723   0.50758   0.00000  Uiso   1.00
H1360  H     0.04507   0.84902   0.55916   0.00000  Uiso   1.00
C1361  C     0.32807   0.80127   0.56730   0.00000  Uiso   1.00
H1362  H     0.00361   0.79262   0.60202   0.00000  Uiso   1.00
H1363  H     0.30451   0.82953   0.56807   0.00000  Uiso   1.00
H1364  H     0.31456   0.76979   0.55092   0.00000  Uiso   1.00
O1365  O     0.26070   0.90624   0.95934   0.00000  Uiso   1.00
C1366  C     0.25126   0.95454   0.95922   0.00000  Uiso   1.00
H1367  H     0.25186   0.96913   0.99370   0.00000  Uiso   1.00
H1368  H     0.22041   0.96121   0.94390   0.00000  Uiso   1.00
C1369  C     0.28332   0.98019   0.93200   0.00000  Uiso   1.00
H1370  H     0.28242   0.96755   0.89696   0.00000  Uiso   1.00
H1371  H     0.27675   0.68504   0.93263   0.00000  Uiso   1.00
H1372  H     0.31458   0.97404   0.94607   0.00000  Uiso   1.00
H1373  H     0.11186   0.70985   0.71196   0.00000  Uiso   1.00
H1374  H     0.22061   0.95682   0.78996   0.00000  Uiso   1.00
H1375  H     0.22074   0.71036   0.78974   0.00000  Uiso   1.00
H1376  H     0.11236   0.95637   0.71065   0.00000  Uiso   1.00
C1377  C     0.42069   0.83335   0.74968   0.00000  Uiso   1.00
C1378  C     0.57930   0.83328   0.74949   0.00000  Uiso   1.00
C1379  C     0.43027   0.79749   0.52014   0.00000  Uiso   1.00
C1380  C     0.56212   0.88270   0.97952   0.00000  Uiso   1.00
C1381  C     0.35475   0.79111   0.75407   0.00000  Uiso   1.00
C1382  C     0.64522   0.87524   0.74270   0.00000  Uiso   1.00
C1383  C     0.64547   0.79106   0.75395   0.00000  Uiso   1.00
C1384  C     0.35451   0.87533   0.74307   0.00000  Uiso   1.00
C1385  C     0.62390   0.83317   0.74857   0.00000  Uiso   1.00
C1386  C     0.37608   0.83329   0.74896   0.00000  Uiso   1.00
C1387  C     0.46970   0.69130   0.72858   0.00000  Uiso   1.00
C1388  C     0.52999   0.97534   0.77210   0.00000  Uiso   1.00
C1389  C     0.53005   0.69161   0.77200   0.00000  Uiso   1.00
C1390  C     0.46985   0.97507   0.72822   0.00000  Uiso   1.00
C1391  C     0.49889   0.83312   0.66441   0.00000  Uiso   1.00
C1392  C     0.50044   0.83357   0.83552   0.00000  Uiso   1.00
C1393  C     0.53305   0.85637   0.90725   0.00000  Uiso   1.00
C1394  C     0.46603   0.81026   0.59236   0.00000  Uiso   1.00
C1395  C     0.50083   0.83426   0.88368   0.00000  Uiso   1.00
C1396  C     0.49794   0.83290   0.61609   0.00000  Uiso   1.00
C1397  C     0.46802   0.81377   0.90581   0.00000  Uiso   1.00
C1398  C     0.52891   0.85689   0.59395   0.00000  Uiso   1.00
C1399  C     0.46638   0.81531   0.95197   0.00000  Uiso   1.00
C1400  C     0.52932   0.85799   0.54776   0.00000  Uiso   1.00
C1401  C     0.49842   0.83697   0.97645   0.00000  Uiso   1.00
C1402  C     0.49730   0.83642   0.52325   0.00000  Uiso   1.00
C1403  C     0.53160   0.85889   0.95418   0.00000  Uiso   1.00
C1404  C     0.46421   0.81434   0.54549   0.00000  Uiso   1.00
C1405  C     0.43246   0.79648   0.97380   0.00000  Uiso   1.00
C1406  C     0.56115   0.88105   0.52592   0.00000  Uiso   1.00
Cu1407 Cu    0.50000   0.88022   0.75000   0.00000  Uiso   1.00
Cu1408 Cu    0.50000   0.78645   0.75000   0.00000  Uiso   1.00
H1409  H     0.44332   0.79739   0.88681   0.00000  Uiso   1.00
H1410  H     0.55320   0.87406   0.61295   0.00000  Uiso   1.00
H1411  H     0.40708   0.78148   0.95489   0.00000  Uiso   1.00
H1412  H     0.58547   0.89812   0.54487   0.00000  Uiso   1.00
H1413  H     0.37089   0.75823   0.75857   0.00000  Uiso   1.00
H1414  H     0.62905   0.90810   0.73822   0.00000  Uiso   1.00
H1415  H     0.62951   0.75819   0.75852   0.00000  Uiso   1.00
H1416  H     0.37049   0.90822   0.73873   0.00000  Uiso   1.00
N1417  N     0.50000   0.95069   0.75000   0.00000  Uiso   1.00
N1418  N     0.50000   0.71598   0.75000   0.00000  Uiso   1.00
O1419  O     0.43988   0.87291   0.75000   0.00000  Uiso   1.00
O1420  O     0.56012   0.79375   0.75001   0.00000  Uiso   1.00
O1421  O     0.56012   0.87291   0.75001   0.00000  Uiso   1.00
O1422  O     0.43988   0.79375   0.75000   0.00000  Uiso   1.00
O1423  O     0.49999   0.87293   0.68513   0.00000  Uiso   1.00
O1424  O     0.50001   0.79373   0.81487   0.00000  Uiso   1.00
O1425  O     0.50001   0.87293   0.81487   0.00000  Uiso   1.00
O1426  O     0.49999   0.79373   0.68513   0.00000  Uiso   1.00
O1427  O     0.56539   0.87611   0.88419   0.00000  Uiso   1.00
C1428  C     0.59551   0.84124   0.87605   0.00000  Uiso   1.00
H1429  H     0.58509   0.81748   0.84873   0.00000  Uiso   1.00
H1430  H     0.60231   0.82003   0.90623   0.00000  Uiso   1.00
C1431  C     0.63541   0.86458   0.86203   0.00000  Uiso   1.00
H1432  H     0.64892   0.88445   0.89047   0.00000  Uiso   1.00
H1433  H     0.65793   0.83761   0.85095   0.00000  Uiso   1.00
H1434  H     0.62933   0.88910   0.83433   0.00000  Uiso   1.00
O1435  O     0.43542   0.78729   0.61547   0.00000  Uiso   1.00
C1436  C     0.44316   0.73851   0.61391   0.00000  Uiso   1.00
H1437  H     0.46894   0.72950   0.63675   0.00000  Uiso   1.00
H1438  H     0.45132   0.72570   0.57993   0.00000  Uiso   1.00
C1439  C     0.40461   0.71253   0.62834   0.00000  Uiso   1.00
H1440  H     0.38014   0.71569   0.60259   0.00000  Uiso   1.00
H1441  H     0.41185   0.67485   0.63292   0.00000  Uiso   1.00
H1442  H     0.39284   0.72738   0.66009   0.00000  Uiso   1.00
O1443  O     0.39503   0.78092   0.54018   0.00000  Uiso   1.00
C1444  C     0.36569   0.81751   0.54176   0.00000  Uiso   1.00
H1445  H     0.35558   0.82723   0.50758   0.00000  Uiso   1.00
H1446  H     0.37840   0.84902   0.55916   0.00000  Uiso   1.00
C1447  C     0.66140   0.80127   0.56730   0.00000  Uiso   1.00
H1448  H     0.33694   0.79262   0.60202   0.00000  Uiso   1.00
H1449  H     0.63785   0.82953   0.56807   0.00000  Uiso   1.00
H1450  H     0.64789   0.76979   0.55092   0.00000  Uiso   1.00
O1451  O     0.59404   0.90624   0.95934   0.00000  Uiso   1.00
C1452  C     0.58459   0.95454   0.95922   0.00000  Uiso   1.00
H1453  H     0.58519   0.96913   0.99370   0.00000  Uiso   1.00
H1454  H     0.55375   0.96121   0.94390   0.00000  Uiso   1.00
C1455  C     0.61665   0.98019   0.93200   0.00000  Uiso   1.00
H1456  H     0.61575   0.96755   0.89696   0.00000  Uiso   1.00
H1457  H     0.61009   0.68504   0.93263   0.00000  Uiso   1.00
H1458  H     0.64792   0.97404   0.94607   0.00000  Uiso   1.00
H1459  H     0.44520   0.70985   0.71196   0.00000  Uiso   1.00
H1460  H     0.55394   0.95682   0.78996   0.00000  Uiso   1.00
H1461  H     0.55407   0.71036   0.78974   0.00000  Uiso   1.00
H1462  H     0.44569   0.95637   0.71065   0.00000  Uiso   1.00
C1463  C     0.75403   0.83335   0.74968   0.00000  Uiso   1.00
C1464  C     0.91263   0.83328   0.74949   0.00000  Uiso   1.00
C1465  C     0.76361   0.79749   0.52014   0.00000  Uiso   1.00
C1466  C     0.89545   0.88270   0.97952   0.00000  Uiso   1.00
C1467  C     0.68808   0.79111   0.75407   0.00000  Uiso   1.00
C1468  C     0.97855   0.87524   0.74270   0.00000  Uiso   1.00
C1469  C     0.97880   0.79106   0.75395   0.00000  Uiso   1.00
C1470  C     0.68785   0.87533   0.74307   0.00000  Uiso   1.00
C1471  C     0.95723   0.83317   0.74857   0.00000  Uiso   1.00
C1472  C     0.70941   0.83329   0.74896   0.00000  Uiso   1.00
C1473  C     0.80303   0.69130   0.72858   0.00000  Uiso   1.00
C1474  C     0.86332   0.97534   0.77210   0.00000  Uiso   1.00
C1475  C     0.86338   0.69161   0.77200   0.00000  Uiso   1.00
C1476  C     0.80318   0.97507   0.72822   0.00000  Uiso   1.00
C1477  C     0.83222   0.83312   0.66441   0.00000  Uiso   1.00
C1478  C     0.83377   0.83357   0.83552   0.00000  Uiso   1.00
C1479  C     0.86638   0.85637   0.90725   0.00000  Uiso   1.00
C1480  C     0.79937   0.81026   0.59236   0.00000  Uiso   1.00
C1481  C     0.83416   0.83426   0.88368   0.00000  Uiso   1.00
C1482  C     0.83127   0.83290   0.61609   0.00000  Uiso   1.00
C1483  C     0.80136   0.81377   0.90581   0.00000  Uiso   1.00
C1484  C     0.86224   0.85689   0.59395   0.00000  Uiso   1.00
C1485  C     0.79971   0.81531   0.95197   0.00000  Uiso   1.00
C1486  C     0.86265   0.85799   0.54776   0.00000  Uiso   1.00
C1487  C     0.83176   0.83697   0.97645   0.00000  Uiso   1.00
C1488  C     0.83063   0.83642   0.52325   0.00000  Uiso   1.00
C1489  C     0.86493   0.85889   0.95418   0.00000  Uiso   1.00
C1490  C     0.79754   0.81434   0.54549   0.00000  Uiso   1.00
C1491  C     0.76579   0.79648   0.97380   0.00000  Uiso   1.00
C1492  C     0.89448   0.88105   0.52592   0.00000  Uiso   1.00
Cu1493 Cu    0.83333   0.88022   0.75000   0.00000  Uiso   1.00
Cu1494 Cu    0.83333   0.78645   0.75000   0.00000  Uiso   1.00
H1495  H     0.77665   0.79739   0.88681   0.00000  Uiso   1.00
H1496  H     0.88654   0.87406   0.61295   0.00000  Uiso   1.00
H1497  H     0.74041   0.78148   0.95489   0.00000  Uiso   1.00
H1498  H     0.91880   0.89812   0.54487   0.00000  Uiso   1.00
H1499  H     0.70423   0.75823   0.75857   0.00000  Uiso   1.00
H1500  H     0.96238   0.90810   0.73822   0.00000  Uiso   1.00
H1501  H     0.96284   0.75819   0.75852   0.00000  Uiso   1.00
H1502  H     0.70382   0.90822   0.73873   0.00000  Uiso   1.00
N1503  N     0.83333   0.95069   0.75000   0.00000  Uiso   1.00
N1504  N     0.83333   0.71598   0.75000   0.00000  Uiso   1.00
O1505  O     0.77321   0.87291   0.75000   0.00000  Uiso   1.00
O1506  O     0.89345   0.79375   0.75001   0.00000  Uiso   1.00
O1507  O     0.89345   0.87291   0.75001   0.00000  Uiso   1.00
O1508  O     0.77321   0.79375   0.75000   0.00000  Uiso   1.00
O1509  O     0.83332   0.87293   0.68513   0.00000  Uiso   1.00
O1510  O     0.83334   0.79373   0.81487   0.00000  Uiso   1.00
O1511  O     0.83334   0.87293   0.81487   0.00000  Uiso   1.00
O1512  O     0.83332   0.79373   0.68513   0.00000  Uiso   1.00
O1513  O     0.89872   0.87611   0.88419   0.00000  Uiso   1.00
C1514  C     0.92884   0.84124   0.87605   0.00000  Uiso   1.00
H1515  H     0.91843   0.81748   0.84873   0.00000  Uiso   1.00
H1516  H     0.93565   0.82003   0.90623   0.00000  Uiso   1.00
C1517  C     0.96875   0.86458   0.86203   0.00000  Uiso   1.00
H1518  H     0.98226   0.88445   0.89047   0.00000  Uiso   1.00
H1519  H     0.99126   0.83761   0.85095   0.00000  Uiso   1.00
H1520  H     0.96266   0.88910   0.83433   0.00000  Uiso   1.00
O1521  O     0.76876   0.78729   0.61547   0.00000  Uiso   1.00
C1522  C     0.77650   0.73851   0.61391   0.00000  Uiso   1.00
H1523  H     0.80227   0.72950   0.63675   0.00000  Uiso   1.00
H1524  H     0.78465   0.72570   0.57993   0.00000  Uiso   1.00
C1525  C     0.73795   0.71253   0.62834   0.00000  Uiso   1.00
H1526  H     0.71347   0.71569   0.60259   0.00000  Uiso   1.00
H1527  H     0.74518   0.67485   0.63292   0.00000  Uiso   1.00
H1528  H     0.72617   0.72738   0.66009   0.00000  Uiso   1.00
O1529  O     0.72837   0.78092   0.54018   0.00000  Uiso   1.00
C1530  C     0.69902   0.81751   0.54176   0.00000  Uiso   1.00
H1531  H     0.68891   0.82723   0.50758   0.00000  Uiso   1.00
H1532  H     0.71174   0.84902   0.55916   0.00000  Uiso   1.00
C1533  C     0.99474   0.80127   0.56730   0.00000  Uiso   1.00
H1534  H     0.67028   0.79262   0.60202   0.00000  Uiso   1.00
H1535  H     0.97118   0.82953   0.56807   0.00000  Uiso   1.00
H1536  H     0.98123   0.76979   0.55092   0.00000  Uiso   1.00
O1537  O     0.92737   0.90624   0.95934   0.00000  Uiso   1.00
C1538  C     0.91793   0.95454   0.95922   0.00000  Uiso   1.00
H1539  H     0.91853   0.96913   0.99370   0.00000  Uiso   1.00
H1540  H     0.88708   0.96121   0.94390   0.00000  Uiso   1.00
C1541  C     0.94999   0.98019   0.93200   0.00000  Uiso   1.00
H1542  H     0.94909   0.96755   0.89696   0.00000  Uiso   1.00
H1543  H     0.94342   0.68504   0.93263   0.00000  Uiso   1.00
H1544  H     0.98125   0.97404   0.94607   0.00000  Uiso   1.00
H1545  H     0.77853   0.70985   0.71196   0.00000  Uiso   1.00
H1546  H     0.88727   0.95682   0.78996   0.00000  Uiso   1.00
H1547  H     0.88740   0.71036   0.78974   0.00000  Uiso   1.00
H1548  H     0.77903   0.95637   0.71065   0.00000  Uiso   1.00
loop_
_geom_bond_atom_site_label_1
_geom_bond_atom_site_label_2
_geom_bond_distance
_geom_bond_site_symmetry_2
_ccdc_geom_bond_type
C1     O46     1.290   .     A
C1     O43     1.291   .     A
C1     C10     1.447   .     S
C2     O44     1.291   .     A
C2     O45     1.290   .     A
C2     C9      1.447   .     S
C3     C28     1.417   .     A
C3     O67     1.382   .     S
C3     C803    1.395   1_554 S
C4     O75     1.382   .     S
C4     C27     1.417   .     A
C4     C804    1.397   .     S
C5     H37     1.083   .     S
C5     C10     1.401   .     A
C5     C179    1.382   1_455 S
C6     C9      1.401   .     A
C6     H38     1.083   .     S
C6     C94     1.383   .     S
C7     C9      1.400   .     A
C7     H39     1.083   .     S
C7     C91     1.382   .     S
C8     C10     1.400   .     A
C8     H40     1.083   .     S
C8     C178    1.383   1_455 S
C11    N42     1.366   .     A
C11    H83     1.077   .     S
C11    C530    1.415   1_545 S
C12    H84     1.082   .     S
C12    N41     1.367   .     A
C12    C271    1.417   .     S
C13    N42     1.367   .     A
C13    H85     1.082   .     S
C13    C528    1.417   1_545 S
C14    H86     1.082   .     S
C14    N41     1.367   .     A
C14    C269    1.415   .     S
C15    O47     1.292   .     A
C15    O50     1.291   .     A
C15    C20     1.453   .     S
C16    C19     1.448   .     S
C16    O48     1.291   .     A
C16    O49     1.289   .     A
C17    O51     1.385   .     S
C17    C27     1.413   .     A
C17    C19     1.407   .     A
C18    C28     1.416   .     A
C18    C20     1.408   .     A
C18    O59     1.385   .     S
C19    C21     1.392   .     A
C20    C22     1.393   .     A
C21    H33     1.086   .     S
C21    C23     1.389   .     A
C22    H34     1.086   .     S
C22    C24     1.390   .     A
C23    C29     1.396   .     A
C23    C25     1.411   .     A
C24    C26     1.409   .     A
C24    C30     1.397   .     A
C25    C27     1.421   .     A
C25    C800    1.408   .     S
C26    C28     1.420   .     A
C26    C799    1.408   1_554 S
C29    H35     1.084   .     S
C29    C777    1.395   .     S
C30    H36     1.084   .     S
C30    C778    1.397   1_554 S
Cu31   O43     1.962   .     S
Cu31   O47     1.959   .     S
Cu31   O49     1.963   .     S
Cu31   Cu32    2.678   .     S
Cu31   N41     2.013   .     S
Cu31   O45     1.961   .     S
Cu32   O48     1.959   .     S
Cu32   O44     1.962   .     S
Cu32   O50     1.963   .     S
Cu32   N42     2.013   .     S
Cu32   O46     1.961   .     S
O51    C52     1.414   .     S
C52    C55     1.521   .     S
C52    H54     1.116   .     S
C52    H53     1.112   .     S
C55    H56     1.110   .     S
C55    H57     1.111   .     S
C55    H58     1.110   .     S
O59    C60     1.416   .     S
C60    C63     1.523   .     S
C60    H62     1.115   .     S
C60    H61     1.110   .     S
C63    H65     1.111   .     S
C63    H66     1.110   .     S
C63    H64     1.110   .     S
O67    C68     1.413   .     S
C68    H69     1.114   .     S
C68    H70     1.115   .     S
C68    C243    1.521   1_455 S
C71    H74     1.111   .     S
C71    H73     1.110   .     S
C71    C154    1.521   .     S
C71    H158    1.111   .     S
H72    C243    1.111   1_455 S
O75    C76     1.412   .     S
C76    C79     1.521   .     S
C76    H77     1.114   .     S
C76    H78     1.116   .     S
C79    H80     1.111   .     S
C79    H82     1.111   .     S
C79    H339    1.111   .     S
H81    C595    1.111   1_545 S
C87    O132    1.290   .     A
C87    O129    1.291   .     A
C87    C96     1.447   .     S
C88    O130    1.291   .     A
C88    O131    1.290   .     A
C88    C95     1.447   .     S
C89    C114    1.417   .     A
C89    O153    1.382   .     S
C89    C889    1.395   1_554 S
C90    O161    1.382   .     S
C90    C113    1.417   .     A
C90    C890    1.397   .     S
C91    H123    1.083   .     S
C91    C96     1.401   .     A
C92    C95     1.401   .     A
C92    H124    1.083   .     S
C92    C180    1.383   .     S
C93    C95     1.400   .     A
C93    H125    1.083   .     S
C93    C177    1.382   .     S
C94    C96     1.400   .     A
C94    H126    1.083   .     S
C97    N128    1.366   .     A
C97    H169    1.077   .     S
C97    C616    1.415   1_545 S
C98    H170    1.082   .     S
C98    N127    1.367   .     A
C98    C357    1.417   .     S
C99    N128    1.367   .     A
C99    H171    1.082   .     S
C99    C614    1.417   1_545 S
C100   H172    1.082   .     S
C100   N127    1.367   .     A
C100   C355    1.415   .     S
C101   O133    1.292   .     A
C101   O136    1.291   .     A
C101   C106    1.453   .     S
C102   C105    1.448   .     S
C102   O134    1.291   .     A
C102   O135    1.289   .     A
C103   O137    1.385   .     S
C103   C113    1.413   .     A
C103   C105    1.407   .     A
C104   C114    1.416   .     A
C104   C106    1.408   .     A
C104   O145    1.385   .     S
C105   C107    1.392   .     A
C106   C108    1.393   .     A
C107   H119    1.086   .     S
C107   C109    1.389   .     A
C108   H120    1.086   .     S
C108   C110    1.390   .     A
C109   C115    1.396   .     A
C109   C111    1.411   .     A
C110   C112    1.409   .     A
C110   C116    1.397   .     A
C111   C113    1.421   .     A
C111   C886    1.408   .     S
C112   C114    1.420   .     A
C112   C885    1.408   1_554 S
C115   H121    1.084   .     S
C115   C863    1.395   .     S
C116   H122    1.084   .     S
C116   C864    1.397   1_554 S
Cu117  O129    1.962   .     S
Cu117  O133    1.959   .     S
Cu117  O135    1.963   .     S
Cu117  Cu118   2.678   .     S
Cu117  N127    2.013   .     S
Cu117  O131    1.961   .     S
Cu118  O134    1.959   .     S
Cu118  O130    1.962   .     S
Cu118  O136    1.963   .     S
Cu118  N128    2.013   .     S
Cu118  O132    1.961   .     S
O137   C138    1.414   .     S
C138   C141    1.521   .     S
C138   H140    1.116   .     S
C138   H139    1.112   .     S
C141   H142    1.110   .     S
C141   H143    1.111   .     S
C141   H144    1.110   .     S
O145   C146    1.416   .     S
C146   C149    1.523   .     S
C146   H148    1.115   .     S
C146   H147    1.110   .     S
C149   H151    1.111   .     S
C149   H152    1.110   .     S
C149   H150    1.110   .     S
O153   C154    1.413   .     S
C154   H155    1.114   .     S
C154   H156    1.115   .     S
C157   H160    1.111   .     S
C157   H159    1.110   .     S
C157   C240    1.521   .     S
C157   H244    1.111   .     S
O161   C162    1.412   .     S
C162   C165    1.521   .     S
C162   H163    1.114   .     S
C162   H164    1.116   .     S
C165   H166    1.111   .     S
C165   H168    1.111   .     S
C165   H425    1.111   .     S
H167   C681    1.111   1_545 S
C173   O218    1.290   .     A
C173   O215    1.291   .     A
C173   C182    1.447   .     S
C174   O216    1.291   .     A
C174   O217    1.290   .     A
C174   C181    1.447   .     S
C175   C200    1.417   .     A
C175   O239    1.382   .     S
C175   C975    1.395   1_554 S
C176   O247    1.382   .     S
C176   C199    1.417   .     A
C176   C976    1.397   .     S
C177   H209    1.083   .     S
C177   C182    1.401   .     A
C178   C181    1.401   .     A
C178   H210    1.083   .     S
C178   C8      1.383   1_655 S
C179   C181    1.400   .     A
C179   H211    1.083   .     S
C179   C5      1.382   1_655 S
C180   C182    1.400   .     A
C180   H212    1.083   .     S
C183   N214    1.366   .     A
C183   H255    1.077   .     S
C183   C702    1.415   1_545 S
C184   H256    1.082   .     S
C184   N213    1.367   .     A
C184   C443    1.417   .     S
C185   N214    1.367   .     A
C185   H257    1.082   .     S
C185   C700    1.417   1_545 S
C186   H258    1.082   .     S
C186   N213    1.367   .     A
C186   C441    1.415   .     S
C187   O219    1.292   .     A
C187   O222    1.291   .     A
C187   C192    1.453   .     S
C188   C191    1.448   .     S
C188   O220    1.291   .     A
C188   O221    1.289   .     A
C189   O223    1.385   .     S
C189   C199    1.413   .     A
C189   C191    1.407   .     A
C190   C200    1.416   .     A
C190   C192    1.408   .     A
C190   O231    1.385   .     S
C191   C193    1.392   .     A
C192   C194    1.393   .     A
C193   H205    1.086   .     S
C193   C195    1.389   .     A
C194   H206    1.086   .     S
C194   C196    1.390   .     A
C195   C201    1.396   .     A
C195   C197    1.411   .     A
C196   C198    1.409   .     A
C196   C202    1.397   .     A
C197   C199    1.421   .     A
C197   C972    1.408   .     S
C198   C200    1.420   .     A
C198   C971    1.408   1_554 S
C201   H207    1.084   .     S
C201   C949    1.395   .     S
C202   H208    1.084   .     S
C202   C950    1.397   1_554 S
Cu203  O215    1.962   .     S
Cu203  O219    1.959   .     S
Cu203  O221    1.963   .     S
Cu203  Cu204   2.678   .     S
Cu203  N213    2.013   .     S
Cu203  O217    1.961   .     S
Cu204  O220    1.959   .     S
Cu204  O216    1.962   .     S
Cu204  O222    1.963   .     S
Cu204  N214    2.013   .     S
Cu204  O218    1.961   .     S
O223   C224    1.414   .     S
C224   C227    1.521   .     S
C224   H226    1.116   .     S
C224   H225    1.112   .     S
C227   H228    1.110   .     S
C227   H229    1.111   .     S
C227   H230    1.110   .     S
O231   C232    1.416   .     S
C232   C235    1.523   .     S
C232   H234    1.115   .     S
C232   H233    1.110   .     S
C235   H237    1.111   .     S
C235   H238    1.110   .     S
C235   H236    1.110   .     S
O239   C240    1.413   .     S
C240   H241    1.114   .     S
C240   H242    1.115   .     S
C243   H246    1.111   .     S
C243   H245    1.110   .     S
C243   C68     1.521   1_655 S
C243   H72     1.111   1_655 S
O247   C248    1.412   .     S
C248   C251    1.521   .     S
C248   H249    1.114   .     S
C248   H250    1.116   .     S
C251   H252    1.111   .     S
C251   H254    1.111   .     S
C251   H511    1.111   .     S
H253   C767    1.111   1_545 S
C259   O304    1.290   .     A
C259   O301    1.291   .     A
C259   C268    1.447   .     S
C260   O302    1.291   .     A
C260   O303    1.290   .     A
C260   C267    1.447   .     S
C261   C286    1.417   .     A
C261   O325    1.382   .     S
C261   C1061   1.395   1_554 S
C262   O333    1.382   .     S
C262   C285    1.417   .     A
C262   C1062   1.397   .     S
C263   H295    1.083   .     S
C263   C268    1.401   .     A
C263   C437    1.382   1_455 S
C264   C267    1.401   .     A
C264   H296    1.083   .     S
C264   C352    1.383   .     S
C265   C267    1.400   .     A
C265   H297    1.083   .     S
C265   C349    1.382   .     S
C266   C268    1.400   .     A
C266   H298    1.083   .     S
C266   C436    1.383   1_455 S
C269   N300    1.366   .     A
C269   H341    1.077   .     S
C270   H342    1.082   .     S
C270   N299    1.367   .     A
C270   C529    1.417   .     S
C271   N300    1.367   .     A
C271   H343    1.082   .     S
C272   H344    1.082   .     S
C272   N299    1.367   .     A
C272   C527    1.415   .     S
C273   O305    1.292   .     A
C273   O308    1.291   .     A
C273   C278    1.453   .     S
C274   C277    1.448   .     S
C274   O306    1.291   .     A
C274   O307    1.289   .     A
C275   O309    1.385   .     S
C275   C285    1.413   .     A
C275   C277    1.407   .     A
C276   C286    1.416   .     A
C276   C278    1.408   .     A
C276   O317    1.385   .     S
C277   C279    1.392   .     A
C278   C280    1.393   .     A
C279   H291    1.086   .     S
C279   C281    1.389   .     A
C280   H292    1.086   .     S
C280   C282    1.390   .     A
C281   C287    1.396   .     A
C281   C283    1.411   .     A
C282   C284    1.409   .     A
C282   C288    1.397   .     A
C283   C285    1.421   .     A
C283   C1058   1.408   .     S
C284   C286    1.420   .     A
C284   C1057   1.408   1_554 S
C287   H293    1.084   .     S
C287   C1035   1.395   .     S
C288   H294    1.084   .     S
C288   C1036   1.397   1_554 S
Cu289  O301    1.962   .     S
Cu289  O305    1.959   .     S
Cu289  O307    1.963   .     S
Cu289  Cu290   2.678   .     S
Cu289  N299    2.013   .     S
Cu289  O303    1.961   .     S
Cu290  O306    1.959   .     S
Cu290  O302    1.962   .     S
Cu290  O308    1.963   .     S
Cu290  N300    2.013   .     S
Cu290  O304    1.961   .     S
O309   C310    1.414   .     S
C310   C313    1.521   .     S
C310   H312    1.116   .     S
C310   H311    1.112   .     S
C313   H314    1.110   .     S
C313   H315    1.111   .     S
C313   H316    1.110   .     S
O317   C318    1.416   .     S
C318   C321    1.523   .     S
C318   H320    1.115   .     S
C318   H319    1.110   .     S
C321   H323    1.111   .     S
C321   H324    1.110   .     S
C321   H322    1.110   .     S
O325   C326    1.413   .     S
C326   H327    1.114   .     S
C326   H328    1.115   .     S
C326   C501    1.521   1_455 S
C329   H332    1.111   .     S
C329   H331    1.110   .     S
C329   C412    1.521   .     S
C329   H416    1.111   .     S
H330   C501    1.111   1_455 S
O333   C334    1.412   .     S
C334   C337    1.521   .     S
C334   H335    1.114   .     S
C334   H336    1.116   .     S
C337   H338    1.111   .     S
C337   H340    1.111   .     S
C337   H597    1.111   .     S
C345   O390    1.290   .     A
C345   O387    1.291   .     A
C345   C354    1.447   .     S
C346   O388    1.291   .     A
C346   O389    1.290   .     A
C346   C353    1.447   .     S
C347   C372    1.417   .     A
C347   O411    1.382   .     S
C347   C1147   1.395   1_554 S
C348   O419    1.382   .     S
C348   C371    1.417   .     A
C348   C1148   1.397   .     S
C349   H381    1.083   .     S
C349   C354    1.401   .     A
C350   C353    1.401   .     A
C350   H382    1.083   .     S
C350   C438    1.383   .     S
C351   C353    1.400   .     A
C351   H383    1.083   .     S
C351   C435    1.382   .     S
C352   C354    1.400   .     A
C352   H384    1.083   .     S
C355   N386    1.366   .     A
C355   H427    1.077   .     S
C356   H428    1.082   .     S
C356   N385    1.367   .     A
C356   C615    1.417   .     S
C357   N386    1.367   .     A
C357   H429    1.082   .     S
C358   H430    1.082   .     S
C358   N385    1.367   .     A
C358   C613    1.415   .     S
C359   O391    1.292   .     A
C359   O394    1.291   .     A
C359   C364    1.453   .     S
C360   C363    1.448   .     S
C360   O392    1.291   .     A
C360   O393    1.289   .     A
C361   O395    1.385   .     S
C361   C371    1.413   .     A
C361   C363    1.407   .     A
C362   C372    1.416   .     A
C362   C364    1.408   .     A
C362   O403    1.385   .     S
C363   C365    1.392   .     A
C364   C366    1.393   .     A
C365   H377    1.086   .     S
C365   C367    1.389   .     A
C366   H378    1.086   .     S
C366   C368    1.390   .     A
C367   C373    1.396   .     A
C367   C369    1.411   .     A
C368   C370    1.409   .     A
C368   C374    1.397   .     A
C369   C371    1.421   .     A
C369   C1144   1.408   .     S
C370   C372    1.420   .     A
C370   C1143   1.408   1_554 S
C373   H379    1.084   .     S
C373   C1121   1.395   .     S
C374   H380    1.084   .     S
C374   C1122   1.397   1_554 S
Cu375  O387    1.962   .     S
Cu375  O391    1.959   .     S
Cu375  O393    1.963   .     S
Cu375  Cu376   2.678   .     S
Cu375  N385    2.013   .     S
Cu375  O389    1.961   .     S
Cu376  O392    1.959   .     S
Cu376  O388    1.962   .     S
Cu376  O394    1.963   .     S
Cu376  N386    2.013   .     S
Cu376  O390    1.961   .     S
O395   C396    1.414   .     S
C396   C399    1.521   .     S
C396   H398    1.116   .     S
C396   H397    1.112   .     S
C399   H400    1.110   .     S
C399   H401    1.111   .     S
C399   H402    1.110   .     S
O403   C404    1.416   .     S
C404   C407    1.523   .     S
C404   H406    1.115   .     S
C404   H405    1.110   .     S
C407   H409    1.111   .     S
C407   H410    1.110   .     S
C407   H408    1.110   .     S
O411   C412    1.413   .     S
C412   H413    1.114   .     S
C412   H414    1.115   .     S
C415   H418    1.111   .     S
C415   H417    1.110   .     S
C415   C498    1.521   .     S
C415   H502    1.111   .     S
O419   C420    1.412   .     S
C420   C423    1.521   .     S
C420   H421    1.114   .     S
C420   H422    1.116   .     S
C423   H424    1.111   .     S
C423   H426    1.111   .     S
C423   H683    1.111   .     S
C431   O476    1.290   .     A
C431   O473    1.291   .     A
C431   C440    1.447   .     S
C432   O474    1.291   .     A
C432   O475    1.290   .     A
C432   C439    1.447   .     S
C433   C458    1.417   .     A
C433   O497    1.382   .     S
C433   C1233   1.395   1_554 S
C434   O505    1.382   .     S
C434   C457    1.417   .     A
C434   C1234   1.397   .     S
C435   H467    1.083   .     S
C435   C440    1.401   .     A
C436   C439    1.401   .     A
C436   H468    1.083   .     S
C436   C266    1.383   1_655 S
C437   C439    1.400   .     A
C437   H469    1.083   .     S
C437   C263    1.382   1_655 S
C438   C440    1.400   .     A
C438   H470    1.083   .     S
C441   N472    1.366   .     A
C441   H513    1.077   .     S
C442   H514    1.082   .     S
C442   N471    1.367   .     A
C442   C701    1.417   .     S
C443   N472    1.367   .     A
C443   H515    1.082   .     S
C444   H516    1.082   .     S
C444   N471    1.367   .     A
C444   C699    1.415   .     S
C445   O477    1.292   .     A
C445   O480    1.291   .     A
C445   C450    1.453   .     S
C446   C449    1.448   .     S
C446   O478    1.291   .     A
C446   O479    1.289   .     A
C447   O481    1.385   .     S
C447   C457    1.413   .     A
C447   C449    1.407   .     A
C448   C458    1.416   .     A
C448   C450    1.408   .     A
C448   O489    1.385   .     S
C449   C451    1.392   .     A
C450   C452    1.393   .     A
C451   H463    1.086   .     S
C451   C453    1.389   .     A
C452   H464    1.086   .     S
C452   C454    1.390   .     A
C453   C459    1.396   .     A
C453   C455    1.411   .     A
C454   C456    1.409   .     A
C454   C460    1.397   .     A
C455   C457    1.421   .     A
C455   C1230   1.408   .     S
C456   C458    1.420   .     A
C456   C1229   1.408   1_554 S
C459   H465    1.084   .     S
C459   C1207   1.395   .     S
C460   H466    1.084   .     S
C460   C1208   1.397   1_554 S
Cu461  O473    1.962   .     S
Cu461  O477    1.959   .     S
Cu461  O479    1.963   .     S
Cu461  Cu462   2.678   .     S
Cu461  N471    2.013   .     S
Cu461  O475    1.961   .     S
Cu462  O478    1.959   .     S
Cu462  O474    1.962   .     S
Cu462  O480    1.963   .     S
Cu462  N472    2.013   .     S
Cu462  O476    1.961   .     S
O481   C482    1.414   .     S
C482   C485    1.521   .     S
C482   H484    1.116   .     S
C482   H483    1.112   .     S
C485   H486    1.110   .     S
C485   H487    1.111   .     S
C485   H488    1.110   .     S
O489   C490    1.416   .     S
C490   C493    1.523   .     S
C490   H492    1.115   .     S
C490   H491    1.110   .     S
C493   H495    1.111   .     S
C493   H496    1.110   .     S
C493   H494    1.110   .     S
O497   C498    1.413   .     S
C498   H499    1.114   .     S
C498   H500    1.115   .     S
C501   H504    1.111   .     S
C501   H503    1.110   .     S
C501   C326    1.521   1_655 S
C501   H330    1.111   1_655 S
O505   C506    1.412   .     S
C506   C509    1.521   .     S
C506   H507    1.114   .     S
C506   H508    1.116   .     S
C509   H510    1.111   .     S
C509   H512    1.111   .     S
C509   H769    1.111   .     S
C517   O562    1.290   .     A
C517   O559    1.291   .     A
C517   C526    1.447   .     S
C518   O560    1.291   .     A
C518   O561    1.290   .     A
C518   C525    1.447   .     S
C519   C544    1.417   .     A
C519   O583    1.382   .     S
C519   C1319   1.395   1_554 S
C520   O591    1.382   .     S
C520   C543    1.417   .     A
C520   C1320   1.397   .     S
C521   H553    1.083   .     S
C521   C526    1.401   .     A
C521   C695    1.382   1_455 S
C522   C525    1.401   .     A
C522   H554    1.083   .     S
C522   C610    1.383   .     S
C523   C525    1.400   .     A
C523   H555    1.083   .     S
C523   C607    1.382   .     S
C524   C526    1.400   .     A
C524   H556    1.083   .     S
C524   C694    1.383   1_455 S
C527   N558    1.366   .     A
C527   H599    1.077   .     S
C528   H600    1.082   .     S
C528   N557    1.367   .     A
C528   C13     1.417   1_565 S
C529   N558    1.367   .     A
C529   H601    1.082   .     S
C530   H602    1.082   .     S
C530   N557    1.367   .     A
C530   C11     1.415   1_565 S
C531   O563    1.292   .     A
C531   O566    1.291   .     A
C531   C536    1.453   .     S
C532   C535    1.448   .     S
C532   O564    1.291   .     A
C532   O565    1.289   .     A
C533   O567    1.385   .     S
C533   C543    1.413   .     A
C533   C535    1.407   .     A
C534   C544    1.416   .     A
C534   C536    1.408   .     A
C534   O575    1.385   .     S
C535   C537    1.392   .     A
C536   C538    1.393   .     A
C537   H549    1.086   .     S
C537   C539    1.389   .     A
C538   H550    1.086   .     S
C538   C540    1.390   .     A
C539   C545    1.396   .     A
C539   C541    1.411   .     A
C540   C542    1.409   .     A
C540   C546    1.397   .     A
C541   C543    1.421   .     A
C541   C1316   1.408   .     S
C542   C544    1.420   .     A
C542   C1315   1.408   1_554 S
C545   H551    1.084   .     S
C545   C1293   1.395   .     S
C546   H552    1.084   .     S
C546   C1294   1.397   1_554 S
Cu547  O559    1.962   .     S
Cu547  O563    1.959   .     S
Cu547  O565    1.963   .     S
Cu547  Cu548   2.678   .     S
Cu547  N557    2.013   .     S
Cu547  O561    1.961   .     S
Cu548  O564    1.959   .     S
Cu548  O560    1.962   .     S
Cu548  O566    1.963   .     S
Cu548  N558    2.013   .     S
Cu548  O562    1.961   .     S
O567   C568    1.414   .     S
C568   C571    1.521   .     S
C568   H570    1.116   .     S
C568   H569    1.112   .     S
C571   H572    1.110   .     S
C571   H573    1.111   .     S
C571   H574    1.110   .     S
O575   C576    1.416   .     S
C576   C579    1.523   .     S
C576   H578    1.115   .     S
C576   H577    1.110   .     S
C579   H581    1.111   .     S
C579   H582    1.110   .     S
C579   H580    1.110   .     S
O583   C584    1.413   .     S
C584   H585    1.114   .     S
C584   H586    1.115   .     S
C584   C759    1.521   1_455 S
C587   H590    1.111   .     S
C587   H589    1.110   .     S
C587   C670    1.521   .     S
C587   H674    1.111   .     S
H588   C759    1.111   1_455 S
O591   C592    1.412   .     S
C592   C595    1.521   .     S
C592   H593    1.114   .     S
C592   H594    1.116   .     S
C595   H596    1.111   .     S
C595   H598    1.111   .     S
C595   H81     1.111   1_565 S
C603   O648    1.290   .     A
C603   O645    1.291   .     A
C603   C612    1.447   .     S
C604   O646    1.291   .     A
C604   O647    1.290   .     A
C604   C611    1.447   .     S
C605   C630    1.417   .     A
C605   O669    1.382   .     S
C605   C1405   1.395   1_554 S
C606   O677    1.382   .     S
C606   C629    1.417   .     A
C606   C1406   1.397   .     S
C607   H639    1.083   .     S
C607   C612    1.401   .     A
C608   C611    1.401   .     A
C608   H640    1.083   .     S
C608   C696    1.383   .     S
C609   C611    1.400   .     A
C609   H641    1.083   .     S
C609   C693    1.382   .     S
C610   C612    1.400   .     A
C610   H642    1.083   .     S
C613   N644    1.366   .     A
C613   H685    1.077   .     S
C614   H686    1.082   .     S
C614   N643    1.367   .     A
C614   C99     1.417   1_565 S
C615   N644    1.367   .     A
C615   H687    1.082   .     S
C616   H688    1.082   .     S
C616   N643    1.367   .     A
C616   C97     1.415   1_565 S
C617   O649    1.292   .     A
C617   O652    1.291   .     A
C617   C622    1.453   .     S
C618   C621    1.448   .     S
C618   O650    1.291   .     A
C618   O651    1.289   .     A
C619   O653    1.385   .     S
C619   C629    1.413   .     A
C619   C621    1.407   .     A
C620   C630    1.416   .     A
C620   C622    1.408   .     A
C620   O661    1.385   .     S
C621   C623    1.392   .     A
C622   C624    1.393   .     A
C623   H635    1.086   .     S
C623   C625    1.389   .     A
C624   H636    1.086   .     S
C624   C626    1.390   .     A
C625   C631    1.396   .     A
C625   C627    1.411   .     A
C626   C628    1.409   .     A
C626   C632    1.397   .     A
C627   C629    1.421   .     A
C627   C1402   1.408   .     S
C628   C630    1.420   .     A
C628   C1401   1.408   1_554 S
C631   H637    1.084   .     S
C631   C1379   1.395   .     S
C632   H638    1.084   .     S
C632   C1380   1.397   1_554 S
Cu633  O645    1.962   .     S
Cu633  O649    1.959   .     S
Cu633  O651    1.963   .     S
Cu633  Cu634   2.678   .     S
Cu633  N643    2.013   .     S
Cu633  O647    1.961   .     S
Cu634  O650    1.959   .     S
Cu634  O646    1.962   .     S
Cu634  O652    1.963   .     S
Cu634  N644    2.013   .     S
Cu634  O648    1.961   .     S
O653   C654    1.414   .     S
C654   C657    1.521   .     S
C654   H656    1.116   .     S
C654   H655    1.112   .     S
C657   H658    1.110   .     S
C657   H659    1.111   .     S
C657   H660    1.110   .     S
O661   C662    1.416   .     S
C662   C665    1.523   .     S
C662   H664    1.115   .     S
C662   H663    1.110   .     S
C665   H667    1.111   .     S
C665   H668    1.110   .     S
C665   H666    1.110   .     S
O669   C670    1.413   .     S
C670   H671    1.114   .     S
C670   H672    1.115   .     S
C673   H676    1.111   .     S
C673   H675    1.110   .     S
C673   C756    1.521   .     S
C673   H760    1.111   .     S
O677   C678    1.412   .     S
C678   C681    1.521   .     S
C678   H679    1.114   .     S
C678   H680    1.116   .     S
C681   H682    1.111   .     S
C681   H684    1.111   .     S
C681   H167    1.111   1_565 S
C689   O734    1.290   .     A
C689   O731    1.291   .     A
C689   C698    1.447   .     S
C690   O732    1.291   .     A
C690   O733    1.290   .     A
C690   C697    1.447   .     S
C691   C716    1.417   .     A
C691   O755    1.382   .     S
C691   C1491   1.395   1_554 S
C692   O763    1.382   .     S
C692   C715    1.417   .     A
C692   C1492   1.397   .     S
C693   H725    1.083   .     S
C693   C698    1.401   .     A
C694   C697    1.401   .     A
C694   H726    1.083   .     S
C694   C524    1.383   1_655 S
C695   C697    1.400   .     A
C695   H727    1.083   .     S
C695   C521    1.382   1_655 S
C696   C698    1.400   .     A
C696   H728    1.083   .     S
C699   N730    1.366   .     A
C699   H771    1.077   .     S
C700   H772    1.082   .     S
C700   N729    1.367   .     A
C700   C185    1.417   1_565 S
C701   N730    1.367   .     A
C701   H773    1.082   .     S
C702   H774    1.082   .     S
C702   N729    1.367   .     A
C702   C183    1.415   1_565 S
C703   O735    1.292   .     A
C703   O738    1.291   .     A
C703   C708    1.453   .     S
C704   C707    1.448   .     S
C704   O736    1.291   .     A
C704   O737    1.289   .     A
C705   O739    1.385   .     S
C705   C715    1.413   .     A
C705   C707    1.407   .     A
C706   C716    1.416   .     A
C706   C708    1.408   .     A
C706   O747    1.385   .     S
C707   C709    1.392   .     A
C708   C710    1.393   .     A
C709   H721    1.086   .     S
C709   C711    1.389   .     A
C710   H722    1.086   .     S
C710   C712    1.390   .     A
C711   C717    1.396   .     A
C711   C713    1.411   .     A
C712   C714    1.409   .     A
C712   C718    1.397   .     A
C713   C715    1.421   .     A
C713   C1488   1.408   .     S
C714   C716    1.420   .     A
C714   C1487   1.408   1_554 S
C717   H723    1.084   .     S
C717   C1465   1.395   .     S
C718   H724    1.084   .     S
C718   C1466   1.397   1_554 S
Cu719  O731    1.962   .     S
Cu719  O735    1.959   .     S
Cu719  O737    1.963   .     S
Cu719  Cu720   2.678   .     S
Cu719  N729    2.013   .     S
Cu719  O733    1.961   .     S
Cu720  O736    1.959   .     S
Cu720  O732    1.962   .     S
Cu720  O738    1.963   .     S
Cu720  N730    2.013   .     S
Cu720  O734    1.961   .     S
O739   C740    1.414   .     S
C740   C743    1.521   .     S
C740   H742    1.116   .     S
C740   H741    1.112   .     S
C743   H744    1.110   .     S
C743   H745    1.111   .     S
C743   H746    1.110   .     S
O747   C748    1.416   .     S
C748   C751    1.523   .     S
C748   H750    1.115   .     S
C748   H749    1.110   .     S
C751   H753    1.111   .     S
C751   H754    1.110   .     S
C751   H752    1.110   .     S
O755   C756    1.413   .     S
C756   H757    1.114   .     S
C756   H758    1.115   .     S
C759   H762    1.111   .     S
C759   H761    1.110   .     S
C759   C584    1.521   1_655 S
C759   H588    1.111   1_655 S
O763   C764    1.412   .     S
C764   C767    1.521   .     S
C764   H765    1.114   .     S
C764   H766    1.116   .     S
C767   H768    1.111   .     S
C767   H770    1.111   .     S
C767   H253    1.111   1_565 S
C775   O820    1.290   .     A
C775   O817    1.291   .     A
C775   C784    1.447   .     S
C776   O818    1.291   .     A
C776   O819    1.290   .     A
C776   C783    1.447   .     S
C777   C802    1.417   .     A
C777   O841    1.382   .     S
C778   O849    1.382   .     S
C778   C801    1.417   .     A
C778   C30     1.397   1_556 S
C779   H811    1.083   .     S
C779   C784    1.401   .     A
C779   C953    1.382   1_455 S
C780   C783    1.401   .     A
C780   H812    1.083   .     S
C780   C868    1.383   .     S
C781   C783    1.400   .     A
C781   H813    1.083   .     S
C781   C865    1.382   .     S
C782   C784    1.400   .     A
C782   H814    1.083   .     S
C782   C952    1.383   1_455 S
C785   N816    1.366   .     A
C785   H857    1.077   .     S
C785   C1304   1.415   1_545 S
C786   H858    1.082   .     S
C786   N815    1.367   .     A
C786   C1045   1.417   .     S
C787   N816    1.367   .     A
C787   H859    1.082   .     S
C787   C1302   1.417   1_545 S
C788   H860    1.082   .     S
C788   N815    1.367   .     A
C788   C1043   1.415   .     S
C789   O821    1.292   .     A
C789   O824    1.291   .     A
C789   C794    1.453   .     S
C790   C793    1.448   .     S
C790   O822    1.291   .     A
C790   O823    1.289   .     A
C791   O825    1.385   .     S
C791   C801    1.413   .     A
C791   C793    1.407   .     A
C792   C802    1.416   .     A
C792   C794    1.408   .     A
C792   O833    1.385   .     S
C793   C795    1.392   .     A
C794   C796    1.393   .     A
C795   H807    1.086   .     S
C795   C797    1.389   .     A
C796   H808    1.086   .     S
C796   C798    1.390   .     A
C797   C803    1.396   .     A
C797   C799    1.411   .     A
C798   C800    1.409   .     A
C798   C804    1.397   .     A
C799   C801    1.421   .     A
C799   C26     1.408   1_556 S
C800   C802    1.420   .     A
C803   H809    1.084   .     S
C803   C3      1.395   1_556 S
C804   H810    1.084   .     S
Cu805  O817    1.962   .     S
Cu805  O821    1.959   .     S
Cu805  O823    1.963   .     S
Cu805  Cu806   2.678   .     S
Cu805  N815    2.013   .     S
Cu805  O819    1.961   .     S
Cu806  O822    1.959   .     S
Cu806  O818    1.962   .     S
Cu806  O824    1.963   .     S
Cu806  N816    2.013   .     S
Cu806  O820    1.961   .     S
O825   C826    1.414   .     S
C826   C829    1.521   .     S
C826   H828    1.116   .     S
C826   H827    1.112   .     S
C829   H830    1.110   .     S
C829   H831    1.111   .     S
C829   H832    1.110   .     S
O833   C834    1.416   .     S
C834   C837    1.523   .     S
C834   H836    1.115   .     S
C834   H835    1.110   .     S
C837   H839    1.111   .     S
C837   H840    1.110   .     S
C837   H838    1.110   .     S
O841   C842    1.413   .     S
C842   H843    1.114   .     S
C842   H844    1.115   .     S
C842   C1017   1.521   1_455 S
C845   H848    1.111   .     S
C845   H847    1.110   .     S
C845   C928    1.521   .     S
C845   H932    1.111   .     S
H846   C1017   1.111   1_455 S
O849   C850    1.412   .     S
C850   C853    1.521   .     S
C850   H851    1.114   .     S
C850   H852    1.116   .     S
C853   H854    1.111   .     S
C853   H856    1.111   .     S
C853   H1113   1.111   .     S
H855   C1369   1.111   1_545 S
C861   O906    1.290   .     A
C861   O903    1.291   .     A
C861   C870    1.447   .     S
C862   O904    1.291   .     A
C862   O905    1.290   .     A
C862   C869    1.447   .     S
C863   C888    1.417   .     A
C863   O927    1.382   .     S
C864   O935    1.382   .     S
C864   C887    1.417   .     A
C864   C116    1.397   1_556 S
C865   H897    1.083   .     S
C865   C870    1.401   .     A
C866   C869    1.401   .     A
C866   H898    1.083   .     S
C866   C954    1.383   .     S
C867   C869    1.400   .     A
C867   H899    1.083   .     S
C867   C951    1.382   .     S
C868   C870    1.400   .     A
C868   H900    1.083   .     S
C871   N902    1.366   .     A
C871   H943    1.077   .     S
C871   C1390   1.415   1_545 S
C872   H944    1.082   .     S
C872   N901    1.367   .     A
C872   C1131   1.417   .     S
C873   N902    1.367   .     A
C873   H945    1.082   .     S
C873   C1388   1.417   1_545 S
C874   H946    1.082   .     S
C874   N901    1.367   .     A
C874   C1129   1.415   .     S
C875   O907    1.292   .     A
C875   O910    1.291   .     A
C875   C880    1.453   .     S
C876   C879    1.448   .     S
C876   O908    1.291   .     A
C876   O909    1.289   .     A
C877   O911    1.385   .     S
C877   C887    1.413   .     A
C877   C879    1.407   .     A
C878   C888    1.416   .     A
C878   C880    1.408   .     A
C878   O919    1.385   .     S
C879   C881    1.392   .     A
C880   C882    1.393   .     A
C881   H893    1.086   .     S
C881   C883    1.389   .     A
C882   H894    1.086   .     S
C882   C884    1.390   .     A
C883   C889    1.396   .     A
C883   C885    1.411   .     A
C884   C886    1.409   .     A
C884   C890    1.397   .     A
C885   C887    1.421   .     A
C885   C112    1.408   1_556 S
C886   C888    1.420   .     A
C889   H895    1.084   .     S
C889   C89     1.395   1_556 S
C890   H896    1.084   .     S
Cu891  O903    1.962   .     S
Cu891  O907    1.959   .     S
Cu891  O909    1.963   .     S
Cu891  Cu892   2.678   .     S
Cu891  N901    2.013   .     S
Cu891  O905    1.961   .     S
Cu892  O908    1.959   .     S
Cu892  O904    1.962   .     S
Cu892  O910    1.963   .     S
Cu892  N902    2.013   .     S
Cu892  O906    1.961   .     S
O911   C912    1.414   .     S
C912   C915    1.521   .     S
C912   H914    1.116   .     S
C912   H913    1.112   .     S
C915   H916    1.110   .     S
C915   H917    1.111   .     S
C915   H918    1.110   .     S
O919   C920    1.416   .     S
C920   C923    1.523   .     S
C920   H922    1.115   .     S
C920   H921    1.110   .     S
C923   H925    1.111   .     S
C923   H926    1.110   .     S
C923   H924    1.110   .     S
O927   C928    1.413   .     S
C928   H929    1.114   .     S
C928   H930    1.115   .     S
C931   H934    1.111   .     S
C931   H933    1.110   .     S
C931   C1014   1.521   .     S
C931   H1018   1.111   .     S
O935   C936    1.412   .     S
C936   C939    1.521   .     S
C936   H937    1.114   .     S
C936   H938    1.116   .     S
C939   H940    1.111   .     S
C939   H942    1.111   .     S
C939   H1199   1.111   .     S
H941   C1455   1.111   1_545 S
C947   O992    1.290   .     A
C947   O989    1.291   .     A
C947   C956    1.447   .     S
C948   O990    1.291   .     A
C948   O991    1.290   .     A
C948   C955    1.447   .     S
C949   C974    1.417   .     A
C949   O1013   1.382   .     S
C950   O1021   1.382   .     S
C950   C973    1.417   .     A
C950   C202    1.397   1_556 S
C951   H983    1.083   .     S
C951   C956    1.401   .     A
C952   C955    1.401   .     A
C952   H984    1.083   .     S
C952   C782    1.383   1_655 S
C953   C955    1.400   .     A
C953   H985    1.083   .     S
C953   C779    1.382   1_655 S
C954   C956    1.400   .     A
C954   H986    1.083   .     S
C957   N988    1.366   .     A
C957   H1029   1.077   .     S
C957   C1476   1.415   1_545 S
C958   H1030   1.082   .     S
C958   N987    1.367   .     A
C958   C1217   1.417   .     S
C959   N988    1.367   .     A
C959   H1031   1.082   .     S
C959   C1474   1.417   1_545 S
C960   H1032   1.082   .     S
C960   N987    1.367   .     A
C960   C1215   1.415   .     S
C961   O993    1.292   .     A
C961   O996    1.291   .     A
C961   C966    1.453   .     S
C962   C965    1.448   .     S
C962   O994    1.291   .     A
C962   O995    1.289   .     A
C963   O997    1.385   .     S
C963   C973    1.413   .     A
C963   C965    1.407   .     A
C964   C974    1.416   .     A
C964   C966    1.408   .     A
C964   O1005   1.385   .     S
C965   C967    1.392   .     A
C966   C968    1.393   .     A
C967   H979    1.086   .     S
C967   C969    1.389   .     A
C968   H980    1.086   .     S
C968   C970    1.390   .     A
C969   C975    1.396   .     A
C969   C971    1.411   .     A
C970   C972    1.409   .     A
C970   C976    1.397   .     A
C971   C973    1.421   .     A
C971   C198    1.408   1_556 S
C972   C974    1.420   .     A
C975   H981    1.084   .     S
C975   C175    1.395   1_556 S
C976   H982    1.084   .     S
Cu977  O989    1.962   .     S
Cu977  O993    1.959   .     S
Cu977  O995    1.963   .     S
Cu977  Cu978   2.678   .     S
Cu977  N987    2.013   .     S
Cu977  O991    1.961   .     S
Cu978  O994    1.959   .     S
Cu978  O990    1.962   .     S
Cu978  O996    1.963   .     S
Cu978  N988    2.013   .     S
Cu978  O992    1.961   .     S
O997   C998    1.414   .     S
C998   C1001   1.521   .     S
C998   H1000   1.116   .     S
C998   H999    1.112   .     S
C1001  H1002   1.110   .     S
C1001  H1003   1.111   .     S
C1001  H1004   1.110   .     S
O1005  C1006   1.416   .     S
C1006  C1009   1.523   .     S
C1006  H1008   1.115   .     S
C1006  H1007   1.110   .     S
C1009  H1011   1.111   .     S
C1009  H1012   1.110   .     S
C1009  H1010   1.110   .     S
O1013  C1014   1.413   .     S
C1014  H1015   1.114   .     S
C1014  H1016   1.115   .     S
C1017  H1020   1.111   .     S
C1017  H1019   1.110   .     S
C1017  C842    1.521   1_655 S
C1017  H846    1.111   1_655 S
O1021  C1022   1.412   .     S
C1022  C1025   1.521   .     S
C1022  H1023   1.114   .     S
C1022  H1024   1.116   .     S
C1025  H1026   1.111   .     S
C1025  H1028   1.111   .     S
C1025  H1285   1.111   .     S
H1027  C1541   1.111   1_545 S
C1033  O1078   1.290   .     A
C1033  O1075   1.291   .     A
C1033  C1042   1.447   .     S
C1034  O1076   1.291   .     A
C1034  O1077   1.290   .     A
C1034  C1041   1.447   .     S
C1035  C1060   1.417   .     A
C1035  O1099   1.382   .     S
C1036  O1107   1.382   .     S
C1036  C1059   1.417   .     A
C1036  C288    1.397   1_556 S
C1037  H1069   1.083   .     S
C1037  C1042   1.401   .     A
C1037  C1211   1.382   1_455 S
C1038  C1041   1.401   .     A
C1038  H1070   1.083   .     S
C1038  C1126   1.383   .     S
C1039  C1041   1.400   .     A
C1039  H1071   1.083   .     S
C1039  C1123   1.382   .     S
C1040  C1042   1.400   .     A
C1040  H1072   1.083   .     S
C1040  C1210   1.383   1_455 S
C1043  N1074   1.366   .     A
C1043  H1115   1.077   .     S
C1044  H1116   1.082   .     S
C1044  N1073   1.367   .     A
C1044  C1303   1.417   .     S
C1045  N1074   1.367   .     A
C1045  H1117   1.082   .     S
C1046  H1118   1.082   .     S
C1046  N1073   1.367   .     A
C1046  C1301   1.415   .     S
C1047  O1079   1.292   .     A
C1047  O1082   1.291   .     A
C1047  C1052   1.453   .     S
C1048  C1051   1.448   .     S
C1048  O1080   1.291   .     A
C1048  O1081   1.289   .     A
C1049  O1083   1.385   .     S
C1049  C1059   1.413   .     A
C1049  C1051   1.407   .     A
C1050  C1060   1.416   .     A
C1050  C1052   1.408   .     A
C1050  O1091   1.385   .     S
C1051  C1053   1.392   .     A
C1052  C1054   1.393   .     A
C1053  H1065   1.086   .     S
C1053  C1055   1.389   .     A
C1054  H1066   1.086   .     S
C1054  C1056   1.390   .     A
C1055  C1061   1.396   .     A
C1055  C1057   1.411   .     A
C1056  C1058   1.409   .     A
C1056  C1062   1.397   .     A
C1057  C1059   1.421   .     A
C1057  C284    1.408   1_556 S
C1058  C1060   1.420   .     A
C1061  H1067   1.084   .     S
C1061  C261    1.395   1_556 S
C1062  H1068   1.084   .     S
Cu1063 O1075   1.962   .     S
Cu1063 O1079   1.959   .     S
Cu1063 O1081   1.963   .     S
Cu1063 Cu1064  2.678   .     S
Cu1063 N1073   2.013   .     S
Cu1063 O1077   1.961   .     S
Cu1064 O1080   1.959   .     S
Cu1064 O1076   1.962   .     S
Cu1064 O1082   1.963   .     S
Cu1064 N1074   2.013   .     S
Cu1064 O1078   1.961   .     S
O1083  C1084   1.414   .     S
C1084  C1087   1.521   .     S
C1084  H1086   1.116   .     S
C1084  H1085   1.112   .     S
C1087  H1088   1.110   .     S
C1087  H1089   1.111   .     S
C1087  H1090   1.110   .     S
O1091  C1092   1.416   .     S
C1092  C1095   1.523   .     S
C1092  H1094   1.115   .     S
C1092  H1093   1.110   .     S
C1095  H1097   1.111   .     S
C1095  H1098   1.110   .     S
C1095  H1096   1.110   .     S
O1099  C1100   1.413   .     S
C1100  H1101   1.114   .     S
C1100  H1102   1.115   .     S
C1100  C1275   1.521   1_455 S
C1103  H1106   1.111   .     S
C1103  H1105   1.110   .     S
C1103  C1186   1.521   .     S
C1103  H1190   1.111   .     S
H1104  C1275   1.111   1_455 S
O1107  C1108   1.412   .     S
C1108  C1111   1.521   .     S
C1108  H1109   1.114   .     S
C1108  H1110   1.116   .     S
C1111  H1112   1.111   .     S
C1111  H1114   1.111   .     S
C1111  H1371   1.111   .     S
C1119  O1164   1.290   .     A
C1119  O1161   1.291   .     A
C1119  C1128   1.447   .     S
C1120  O1162   1.291   .     A
C1120  O1163   1.290   .     A
C1120  C1127   1.447   .     S
C1121  C1146   1.417   .     A
C1121  O1185   1.382   .     S
C1122  O1193   1.382   .     S
C1122  C1145   1.417   .     A
C1122  C374    1.397   1_556 S
C1123  H1155   1.083   .     S
C1123  C1128   1.401   .     A
C1124  C1127   1.401   .     A
C1124  H1156   1.083   .     S
C1124  C1212   1.383   .     S
C1125  C1127   1.400   .     A
C1125  H1157   1.083   .     S
C1125  C1209   1.382   .     S
C1126  C1128   1.400   .     A
C1126  H1158   1.083   .     S
C1129  N1160   1.366   .     A
C1129  H1201   1.077   .     S
C1130  H1202   1.082   .     S
C1130  N1159   1.367   .     A
C1130  C1389   1.417   .     S
C1131  N1160   1.367   .     A
C1131  H1203   1.082   .     S
C1132  H1204   1.082   .     S
C1132  N1159   1.367   .     A
C1132  C1387   1.415   .     S
C1133  O1165   1.292   .     A
C1133  O1168   1.291   .     A
C1133  C1138   1.453   .     S
C1134  C1137   1.448   .     S
C1134  O1166   1.291   .     A
C1134  O1167   1.289   .     A
C1135  O1169   1.385   .     S
C1135  C1145   1.413   .     A
C1135  C1137   1.407   .     A
C1136  C1146   1.416   .     A
C1136  C1138   1.408   .     A
C1136  O1177   1.385   .     S
C1137  C1139   1.392   .     A
C1138  C1140   1.393   .     A
C1139  H1151   1.086   .     S
C1139  C1141   1.389   .     A
C1140  H1152   1.086   .     S
C1140  C1142   1.390   .     A
C1141  C1147   1.396   .     A
C1141  C1143   1.411   .     A
C1142  C1144   1.409   .     A
C1142  C1148   1.397   .     A
C1143  C1145   1.421   .     A
C1143  C370    1.408   1_556 S
C1144  C1146   1.420   .     A
C1147  H1153   1.084   .     S
C1147  C347    1.395   1_556 S
C1148  H1154   1.084   .     S
Cu1149 O1161   1.962   .     S
Cu1149 O1165   1.959   .     S
Cu1149 O1167   1.963   .     S
Cu1149 Cu1150  2.678   .     S
Cu1149 N1159   2.013   .     S
Cu1149 O1163   1.961   .     S
Cu1150 O1166   1.959   .     S
Cu1150 O1162   1.962   .     S
Cu1150 O1168   1.963   .     S
Cu1150 N1160   2.013   .     S
Cu1150 O1164   1.961   .     S
O1169  C1170   1.414   .     S
C1170  C1173   1.521   .     S
C1170  H1172   1.116   .     S
C1170  H1171   1.112   .     S
C1173  H1174   1.110   .     S
C1173  H1175   1.111   .     S
C1173  H1176   1.110   .     S
O1177  C1178   1.416   .     S
C1178  C1181   1.523   .     S
C1178  H1180   1.115   .     S
C1178  H1179   1.110   .     S
C1181  H1183   1.111   .     S
C1181  H1184   1.110   .     S
C1181  H1182   1.110   .     S
O1185  C1186   1.413   .     S
C1186  H1187   1.114   .     S
C1186  H1188   1.115   .     S
C1189  H1192   1.111   .     S
C1189  H1191   1.110   .     S
C1189  C1272   1.521   .     S
C1189  H1276   1.111   .     S
O1193  C1194   1.412   .     S
C1194  C1197   1.521   .     S
C1194  H1195   1.114   .     S
C1194  H1196   1.116   .     S
C1197  H1198   1.111   .     S
C1197  H1200   1.111   .     S
C1197  H1457   1.111   .     S
C1205  O1250   1.290   .     A
C1205  O1247   1.291   .     A
C1205  C1214   1.447   .     S
C1206  O1248   1.291   .     A
C1206  O1249   1.290   .     A
C1206  C1213   1.447   .     S
C1207  C1232   1.417   .     A
C1207  O1271   1.382   .     S
C1208  O1279   1.382   .     S
C1208  C1231   1.417   .     A
C1208  C460    1.397   1_556 S
C1209  H1241   1.083   .     S
C1209  C1214   1.401   .     A
C1210  C1213   1.401   .     A
C1210  H1242   1.083   .     S
C1210  C1040   1.383   1_655 S
C1211  C1213   1.400   .     A
C1211  H1243   1.083   .     S
C1211  C1037   1.382   1_655 S
C1212  C1214   1.400   .     A
C1212  H1244   1.083   .     S
C1215  N1246   1.366   .     A
C1215  H1287   1.077   .     S
C1216  H1288   1.082   .     S
C1216  N1245   1.367   .     A
C1216  C1475   1.417   .     S
C1217  N1246   1.367   .     A
C1217  H1289   1.082   .     S
C1218  H1290   1.082   .     S
C1218  N1245   1.367   .     A
C1218  C1473   1.415   .     S
C1219  O1251   1.292   .     A
C1219  O1254   1.291   .     A
C1219  C1224   1.453   .     S
C1220  C1223   1.448   .     S
C1220  O1252   1.291   .     A
C1220  O1253   1.289   .     A
C1221  O1255   1.385   .     S
C1221  C1231   1.413   .     A
C1221  C1223   1.407   .     A
C1222  C1232   1.416   .     A
C1222  C1224   1.408   .     A
C1222  O1263   1.385   .     S
C1223  C1225   1.392   .     A
C1224  C1226   1.393   .     A
C1225  H1237   1.086   .     S
C1225  C1227   1.389   .     A
C1226  H1238   1.086   .     S
C1226  C1228   1.390   .     A
C1227  C1233   1.396   .     A
C1227  C1229   1.411   .     A
C1228  C1230   1.409   .     A
C1228  C1234   1.397   .     A
C1229  C1231   1.421   .     A
C1229  C456    1.408   1_556 S
C1230  C1232   1.420   .     A
C1233  H1239   1.084   .     S
C1233  C433    1.395   1_556 S
C1234  H1240   1.084   .     S
Cu1235 O1247   1.962   .     S
Cu1235 O1251   1.959   .     S
Cu1235 O1253   1.963   .     S
Cu1235 Cu1236  2.678   .     S
Cu1235 N1245   2.013   .     S
Cu1235 O1249   1.961   .     S
Cu1236 O1252   1.959   .     S
Cu1236 O1248   1.962   .     S
Cu1236 O1254   1.963   .     S
Cu1236 N1246   2.013   .     S
Cu1236 O1250   1.961   .     S
O1255  C1256   1.414   .     S
C1256  C1259   1.521   .     S
C1256  H1258   1.116   .     S
C1256  H1257   1.112   .     S
C1259  H1260   1.110   .     S
C1259  H1261   1.111   .     S
C1259  H1262   1.110   .     S
O1263  C1264   1.416   .     S
C1264  C1267   1.523   .     S
C1264  H1266   1.115   .     S
C1264  H1265   1.110   .     S
C1267  H1269   1.111   .     S
C1267  H1270   1.110   .     S
C1267  H1268   1.110   .     S
O1271  C1272   1.413   .     S
C1272  H1273   1.114   .     S
C1272  H1274   1.115   .     S
C1275  H1278   1.111   .     S
C1275  H1277   1.110   .     S
C1275  C1100   1.521   1_655 S
C1275  H1104   1.111   1_655 S
O1279  C1280   1.412   .     S
C1280  C1283   1.521   .     S
C1280  H1281   1.114   .     S
C1280  H1282   1.116   .     S
C1283  H1284   1.111   .     S
C1283  H1286   1.111   .     S
C1283  H1543   1.111   .     S
C1291  O1336   1.290   .     A
C1291  O1333   1.291   .     A
C1291  C1300   1.447   .     S
C1292  O1334   1.291   .     A
C1292  O1335   1.290   .     A
C1292  C1299   1.447   .     S
C1293  C1318   1.417   .     A
C1293  O1357   1.382   .     S
C1294  O1365   1.382   .     S
C1294  C1317   1.417   .     A
C1294  C546    1.397   1_556 S
C1295  H1327   1.083   .     S
C1295  C1300   1.401   .     A
C1295  C1469   1.382   1_455 S
C1296  C1299   1.401   .     A
C1296  H1328   1.083   .     S
C1296  C1384   1.383   .     S
C1297  C1299   1.400   .     A
C1297  H1329   1.083   .     S
C1297  C1381   1.382   .     S
C1298  C1300   1.400   .     A
C1298  H1330   1.083   .     S
C1298  C1468   1.383   1_455 S
C1301  N1332   1.366   .     A
C1301  H1373   1.077   .     S
C1302  H1374   1.082   .     S
C1302  N1331   1.367   .     A
C1302  C787    1.417   1_565 S
C1303  N1332   1.367   .     A
C1303  H1375   1.082   .     S
C1304  H1376   1.082   .     S
C1304  N1331   1.367   .     A
C1304  C785    1.415   1_565 S
C1305  O1337   1.292   .     A
C1305  O1340   1.291   .     A
C1305  C1310   1.453   .     S
C1306  C1309   1.448   .     S
C1306  O1338   1.291   .     A
C1306  O1339   1.289   .     A
C1307  O1341   1.385   .     S
C1307  C1317   1.413   .     A
C1307  C1309   1.407   .     A
C1308  C1318   1.416   .     A
C1308  C1310   1.408   .     A
C1308  O1349   1.385   .     S
C1309  C1311   1.392   .     A
C1310  C1312   1.393   .     A
C1311  H1323   1.086   .     S
C1311  C1313   1.389   .     A
C1312  H1324   1.086   .     S
C1312  C1314   1.390   .     A
C1313  C1319   1.396   .     A
C1313  C1315   1.411   .     A
C1314  C1316   1.409   .     A
C1314  C1320   1.397   .     A
C1315  C1317   1.421   .     A
C1315  C542    1.408   1_556 S
C1316  C1318   1.420   .     A
C1319  H1325   1.084   .     S
C1319  C519    1.395   1_556 S
C1320  H1326   1.084   .     S
Cu1321 O1333   1.962   .     S
Cu1321 O1337   1.959   .     S
Cu1321 O1339   1.963   .     S
Cu1321 Cu1322  2.678   .     S
Cu1321 N1331   2.013   .     S
Cu1321 O1335   1.961   .     S
Cu1322 O1338   1.959   .     S
Cu1322 O1334   1.962   .     S
Cu1322 O1340   1.963   .     S
Cu1322 N1332   2.013   .     S
Cu1322 O1336   1.961   .     S
O1341  C1342   1.414   .     S
C1342  C1345   1.521   .     S
C1342  H1344   1.116   .     S
C1342  H1343   1.112   .     S
C1345  H1346   1.110   .     S
C1345  H1347   1.111   .     S
C1345  H1348   1.110   .     S
O1349  C1350   1.416   .     S
C1350  C1353   1.523   .     S
C1350  H1352   1.115   .     S
C1350  H1351   1.110   .     S
C1353  H1355   1.111   .     S
C1353  H1356   1.110   .     S
C1353  H1354   1.110   .     S
O1357  C1358   1.413   .     S
C1358  H1359   1.114   .     S
C1358  H1360   1.115   .     S
C1358  C1533   1.521   1_455 S
C1361  H1364   1.111   .     S
C1361  H1363   1.110   .     S
C1361  C1444   1.521   .     S
C1361  H1448   1.111   .     S
H1362  C1533   1.111   1_455 S
O1365  C1366   1.412   .     S
C1366  C1369   1.521   .     S
C1366  H1367   1.114   .     S
C1366  H1368   1.116   .     S
C1369  H1370   1.111   .     S
C1369  H1372   1.111   .     S
C1369  H855    1.111   1_565 S
C1377  O1422   1.290   .     A
C1377  O1419   1.291   .     A
C1377  C1386   1.447   .     S
C1378  O1420   1.291   .     A
C1378  O1421   1.290   .     A
C1378  C1385   1.447   .     S
C1379  C1404   1.417   .     A
C1379  O1443   1.382   .     S
C1380  O1451   1.382   .     S
C1380  C1403   1.417   .     A
C1380  C632    1.397   1_556 S
C1381  H1413   1.083   .     S
C1381  C1386   1.401   .     A
C1382  C1385   1.401   .     A
C1382  H1414   1.083   .     S
C1382  C1470   1.383   .     S
C1383  C1385   1.400   .     A
C1383  H1415   1.083   .     S
C1383  C1467   1.382   .     S
C1384  C1386   1.400   .     A
C1384  H1416   1.083   .     S
C1387  N1418   1.366   .     A
C1387  H1459   1.077   .     S
C1388  H1460   1.082   .     S
C1388  N1417   1.367   .     A
C1388  C873    1.417   1_565 S
C1389  N1418   1.367   .     A
C1389  H1461   1.082   .     S
C1390  H1462   1.082   .     S
C1390  N1417   1.367   .     A
C1390  C871    1.415   1_565 S
C1391  O1423   1.292   .     A
C1391  O1426   1.291   .     A
C1391  C1396   1.453   .     S
C1392  C1395   1.448   .     S
C1392  O1424   1.291   .     A
C1392  O1425   1.289   .     A
C1393  O1427   1.385   .     S
C1393  C1403   1.413   .     A
C1393  C1395   1.407   .     A
C1394  C1404   1.416   .     A
C1394  C1396   1.408   .     A
C1394  O1435   1.385   .     S
C1395  C1397   1.392   .     A
C1396  C1398   1.393   .     A
C1397  H1409   1.086   .     S
C1397  C1399   1.389   .     A
C1398  H1410   1.086   .     S
C1398  C1400   1.390   .     A
C1399  C1405   1.396   .     A
C1399  C1401   1.411   .     A
C1400  C1402   1.409   .     A
C1400  C1406   1.397   .     A
C1401  C1403   1.421   .     A
C1401  C628    1.408   1_556 S
C1402  C1404   1.420   .     A
C1405  H1411   1.084   .     S
C1405  C605    1.395   1_556 S
C1406  H1412   1.084   .     S
Cu1407 O1419   1.962   .     S
Cu1407 O1423   1.959   .     S
Cu1407 O1425   1.963   .     S
Cu1407 Cu1408  2.678   .     S
Cu1407 N1417   2.013   .     S
Cu1407 O1421   1.961   .     S
Cu1408 O1424   1.959   .     S
Cu1408 O1420   1.962   .     S
Cu1408 O1426   1.963   .     S
Cu1408 N1418   2.013   .     S
Cu1408 O1422   1.961   .     S
O1427  C1428   1.414   .     S
C1428  C1431   1.521   .     S
C1428  H1430   1.116   .     S
C1428  H1429   1.112   .     S
C1431  H1432   1.110   .     S
C1431  H1433   1.111   .     S
C1431  H1434   1.110   .     S
O1435  C1436   1.416   .     S
C1436  C1439   1.523   .     S
C1436  H1438   1.115   .     S
C1436  H1437   1.110   .     S
C1439  H1441   1.111   .     S
C1439  H1442   1.110   .     S
C1439  H1440   1.110   .     S
O1443  C1444   1.413   .     S
C1444  H1445   1.114   .     S
C1444  H1446   1.115   .     S
C1447  H1450   1.111   .     S
C1447  H1449   1.110   .     S
C1447  C1530   1.521   .     S
C1447  H1534   1.111   .     S
O1451  C1452   1.412   .     S
C1452  C1455   1.521   .     S
C1452  H1453   1.114   .     S
C1452  H1454   1.116   .     S
C1455  H1456   1.111   .     S
C1455  H1458   1.111   .     S
C1455  H941    1.111   1_565 S
C1463  O1508   1.290   .     A
C1463  O1505   1.291   .     A
C1463  C1472   1.447   .     S
C1464  O1506   1.291   .     A
C1464  O1507   1.290   .     A
C1464  C1471   1.447   .     S
C1465  C1490   1.417   .     A
C1465  O1529   1.382   .     S
C1466  O1537   1.382   .     S
C1466  C1489   1.417   .     A
C1466  C718    1.397   1_556 S
C1467  H1499   1.083   .     S
C1467  C1472   1.401   .     A
C1468  C1471   1.401   .     A
C1468  H1500   1.083   .     S
C1468  C1298   1.383   1_655 S
C1469  C1471   1.400   .     A
C1469  H1501   1.083   .     S
C1469  C1295   1.382   1_655 S
C1470  C1472   1.400   .     A
C1470  H1502   1.083   .     S
C1473  N1504   1.366   .     A
C1473  H1545   1.077   .     S
C1474  H1546   1.082   .     S
C1474  N1503   1.367   .     A
C1474  C959    1.417   1_565 S
C1475  N1504   1.367   .     A
C1475  H1547   1.082   .     S
C1476  H1548   1.082   .     S
C1476  N1503   1.367   .     A
C1476  C957    1.415   1_565 S
C1477  O1509   1.292   .     A
C1477  O1512   1.291   .     A
C1477  C1482   1.453   .     S
C1478  C1481   1.448   .     S
C1478  O1510   1.291   .     A
C1478  O1511   1.289   .     A
C1479  O1513   1.385   .     S
C1479  C1489   1.413   .     A
C1479  C1481   1.407   .     A
C1480  C1490   1.416   .     A
C1480  C1482   1.408   .     A
C1480  O1521   1.385   .     S
C1481  C1483   1.392   .     A
C1482  C1484   1.393   .     A
C1483  H1495   1.086   .     S
C1483  C1485   1.389   .     A
C1484  H1496   1.086   .     S
C1484  C1486   1.390   .     A
C1485  C1491   1.396   .     A
C1485  C1487   1.411   .     A
C1486  C1488   1.409   .     A
C1486  C1492   1.397   .     A
C1487  C1489   1.421   .     A
C1487  C714    1.408   1_556 S
C1488  C1490   1.420   .     A
C1491  H1497   1.084   .     S
C1491  C691    1.395   1_556 S
C1492  H1498   1.084   .     S
Cu1493 O1505   1.962   .     S
Cu1493 O1509   1.959   .     S
Cu1493 O1511   1.963   .     S
Cu1493 Cu1494  2.678   .     S
Cu1493 N1503   2.013   .     S
Cu1493 O1507   1.961   .     S
Cu1494 O1510   1.959   .     S
Cu1494 O1506   1.962   .     S
Cu1494 O1512   1.963   .     S
Cu1494 N1504   2.013   .     S
Cu1494 O1508   1.961   .     S
O1513  C1514   1.414   .     S
C1514  C1517   1.521   .     S
C1514  H1516   1.116   .     S
C1514  H1515   1.112   .     S
C1517  H1518   1.110   .     S
C1517  H1519   1.111   .     S
C1517  H1520   1.110   .     S
O1521  C1522   1.416   .     S
C1522  C1525   1.523   .     S
C1522  H1524   1.115   .     S
C1522  H1523   1.110   .     S
C1525  H1527   1.111   .     S
C1525  H1528   1.110   .     S
C1525  H1526   1.110   .     S
O1529  C1530   1.413   .     S
C1530  H1531   1.114   .     S
C1530  H1532   1.115   .     S
C1533  H1536   1.111   .     S
C1533  H1535   1.110   .     S
C1533  C1358   1.521   1_655 S
C1533  H1362   1.111   1_655 S
O1537  C1538   1.412   .     S
C1538  C1541   1.521   .     S
C1538  H1539   1.114   .     S
C1538  H1540   1.116   .     S
C1541  H1542   1.111   .     S
C1541  H1544   1.111   .     S
C1541  H1027   1.111   1_565 S
