data_str_m2_o2_o10_pcu_sym.211
_audit_creation_date              2020-01-03
_audit_creation_method            'Materials Studio'
_symmetry_space_group_name_H-M    'P1'
_symmetry_Int_Tables_number       1
_symmetry_cell_setting            triclinic
loop_
_symmetry_equiv_pos_as_xyz
  x,y,z
_cell_length_a                    26.1706
_cell_length_b                    30.2639
_cell_length_c                    27.8897
_cell_angle_alpha                 89.1212
_cell_angle_beta                  97.1732
_cell_angle_gamma                 91.7040
loop_
_atom_site_label
_atom_site_type_symbol
_atom_site_fract_x
_atom_site_fract_y
_atom_site_fract_z
_atom_site_U_iso_or_equiv
_atom_site_adp_type
_atom_site_occupancy
C1     C     0.16687   0.16495   0.25028   0.00000  Uiso   1.00
C2     C     0.16685   0.33495   0.24975   0.00000  Uiso   1.00
C3     C     0.19160   0.28352   0.05559   0.00000  Uiso   1.00
C4     C     0.12849   0.22950   0.44333   0.00000  Uiso   1.00
C5     C     0.19130   0.28356   0.10600   0.00000  Uiso   1.00
C6     C     0.12778   0.22904   0.39282   0.00000  Uiso   1.00
C7     C     0.14355   0.21585   0.10258   0.00000  Uiso   1.00
C8     C     0.20641   0.27052   0.39917   0.00000  Uiso   1.00
C9     C     0.14471   0.21429   0.05213   0.00000  Uiso   1.00
C10    C     0.20869   0.27019   0.45013   0.00000  Uiso   1.00
C11    C     0.16893   0.24866   0.02755   0.00000  Uiso   1.00
C12    C     0.16921   0.24926   0.47319   0.00000  Uiso   1.00
C13    C     0.06803   0.24998   0.23773   0.00000  Uiso   1.00
C14    C     0.26529   0.25078   0.26219   0.00000  Uiso   1.00
C15    C     0.01285   0.24920   0.23086   0.00000  Uiso   1.00
C16    C     0.32044   0.25288   0.26873   0.00000  Uiso   1.00
C17    C     0.15826   0.04645   0.29189   0.00000  Uiso   1.00
C18    C     0.14552   0.45234   0.20880   0.00000  Uiso   1.00
C19    C     0.15859   0.09241   0.29219   0.00000  Uiso   1.00
C20    C     0.14570   0.40640   0.20851   0.00000  Uiso   1.00
C21    C     0.16744   0.11661   0.25061   0.00000  Uiso   1.00
C22    C     0.16733   0.38312   0.24948   0.00000  Uiso   1.00
C23    C     0.17671   0.09425   0.20898   0.00000  Uiso   1.00
C24    C     0.18903   0.40612   0.29065   0.00000  Uiso   1.00
C25    C     0.17706   0.04836   0.20889   0.00000  Uiso   1.00
C26    C     0.18945   0.45202   0.29076   0.00000  Uiso   1.00
C27    C     0.16755   0.02408   0.25023   0.00000  Uiso   1.00
C28    C     0.16749   0.47551   0.24992   0.00000  Uiso   1.00
Cu29   Cu    0.16667   0.25000   0.29822   0.00000  Uiso   1.00
Cu30   Cu    0.16667   0.25001   0.20179   0.00000  Uiso   1.00
H31    H     0.32665   0.24504   0.19438   0.00000  Uiso   1.00
H32    H     0.00665   0.25792   0.30493   0.00000  Uiso   1.00
H33    H     0.15013   0.02843   0.32404   0.00000  Uiso   1.00
H34    H     0.12753   0.46969   0.17716   0.00000  Uiso   1.00
H35    H     0.15141   0.10886   0.32478   0.00000  Uiso   1.00
H36    H     0.12809   0.38907   0.17668   0.00000  Uiso   1.00
H37    H     0.18415   0.11217   0.17654   0.00000  Uiso   1.00
H38    H     0.20627   0.38860   0.32251   0.00000  Uiso   1.00
H39    H     0.18530   0.03191   0.17662   0.00000  Uiso   1.00
H40    H     0.20745   0.46913   0.32257   0.00000  Uiso   1.00
H41    H     0.20981   0.31109   0.03843   0.00000  Uiso   1.00
H42    H     0.09675   0.21394   0.45931   0.00000  Uiso   1.00
H43    H     0.12438   0.18923   0.12025   0.00000  Uiso   1.00
H44    H     0.23705   0.28710   0.38261   0.00000  Uiso   1.00
H45    H     0.12704   0.18593   0.03280   0.00000  Uiso   1.00
H46    H     0.24161   0.28591   0.47113   0.00000  Uiso   1.00
N47    N     0.16667   0.25001   0.12935   0.00000  Uiso   1.00
N48    N     0.16667   0.24999   0.37066   0.00000  Uiso   1.00
O49    O     0.16667   0.18573   0.29072   0.00000  Uiso   1.00
O50    O     0.16666   0.31428   0.20929   0.00000  Uiso   1.00
O51    O     0.16667   0.18573   0.20928   0.00000  Uiso   1.00
O52    O     0.16666   0.31427   0.29072   0.00000  Uiso   1.00
O53    O     0.09161   0.25000   0.28132   0.00000  Uiso   1.00
O54    O     0.24172   0.25001   0.21868   0.00000  Uiso   1.00
O55    O     0.09161   0.25000   0.19989   0.00000  Uiso   1.00
O56    O     0.24172   0.25000   0.30012   0.00000  Uiso   1.00
C57    C     0.21864   0.32120   0.13154   0.00000  Uiso   1.00
O58    O     0.25690   0.31536   0.16047   0.00000  Uiso   1.00
O59    O     0.20287   0.36411   0.11949   0.00000  Uiso   1.00
H60    H     0.22520   0.38743   0.13841   0.00000  Uiso   1.00
C61    C     0.08337   0.20459   0.36656   0.00000  Uiso   1.00
O62    O     0.08965   0.17669   0.33696   0.00000  Uiso   1.00
O63    O     0.03410   0.21044   0.37955   0.00000  Uiso   1.00
H64    H     0.00693   0.19059   0.36093   0.00000  Uiso   1.00
C65    C     0.50021   0.16495   0.25028   0.00000  Uiso   1.00
C66    C     0.50018   0.33495   0.24975   0.00000  Uiso   1.00
C67    C     0.52493   0.28352   0.05559   0.00000  Uiso   1.00
C68    C     0.46182   0.22950   0.44333   0.00000  Uiso   1.00
C69    C     0.52463   0.28356   0.10600   0.00000  Uiso   1.00
C70    C     0.46111   0.22904   0.39282   0.00000  Uiso   1.00
C71    C     0.47688   0.21585   0.10258   0.00000  Uiso   1.00
C72    C     0.53975   0.27052   0.39917   0.00000  Uiso   1.00
C73    C     0.47805   0.21429   0.05213   0.00000  Uiso   1.00
C74    C     0.54202   0.27019   0.45013   0.00000  Uiso   1.00
C75    C     0.50226   0.24866   0.02755   0.00000  Uiso   1.00
C76    C     0.50254   0.24926   0.47319   0.00000  Uiso   1.00
C77    C     0.40136   0.24998   0.23773   0.00000  Uiso   1.00
C78    C     0.59863   0.25078   0.26219   0.00000  Uiso   1.00
C79    C     0.34618   0.24920   0.23086   0.00000  Uiso   1.00
C80    C     0.65377   0.25288   0.26873   0.00000  Uiso   1.00
C81    C     0.49160   0.04645   0.29189   0.00000  Uiso   1.00
C82    C     0.47885   0.45234   0.20880   0.00000  Uiso   1.00
C83    C     0.49192   0.09241   0.29219   0.00000  Uiso   1.00
C84    C     0.47903   0.40640   0.20851   0.00000  Uiso   1.00
C85    C     0.50077   0.11661   0.25061   0.00000  Uiso   1.00
C86    C     0.50067   0.38312   0.24948   0.00000  Uiso   1.00
C87    C     0.51005   0.09425   0.20898   0.00000  Uiso   1.00
C88    C     0.52236   0.40612   0.29065   0.00000  Uiso   1.00
C89    C     0.51039   0.04836   0.20889   0.00000  Uiso   1.00
C90    C     0.52278   0.45202   0.29076   0.00000  Uiso   1.00
C91    C     0.50088   0.02408   0.25023   0.00000  Uiso   1.00
C92    C     0.50082   0.47551   0.24992   0.00000  Uiso   1.00
Cu93   Cu    0.50000   0.25000   0.29822   0.00000  Uiso   1.00
Cu94   Cu    0.50000   0.25001   0.20179   0.00000  Uiso   1.00
H95    H     0.65998   0.24504   0.19438   0.00000  Uiso   1.00
H96    H     0.33998   0.25792   0.30493   0.00000  Uiso   1.00
H97    H     0.48347   0.02843   0.32404   0.00000  Uiso   1.00
H98    H     0.46087   0.46969   0.17716   0.00000  Uiso   1.00
H99    H     0.48474   0.10886   0.32478   0.00000  Uiso   1.00
H100   H     0.46142   0.38907   0.17668   0.00000  Uiso   1.00
H101   H     0.51749   0.11217   0.17654   0.00000  Uiso   1.00
H102   H     0.53961   0.38860   0.32251   0.00000  Uiso   1.00
H103   H     0.51864   0.03191   0.17662   0.00000  Uiso   1.00
H104   H     0.54078   0.46913   0.32257   0.00000  Uiso   1.00
H105   H     0.54315   0.31109   0.03843   0.00000  Uiso   1.00
H106   H     0.43009   0.21394   0.45931   0.00000  Uiso   1.00
H107   H     0.45771   0.18923   0.12025   0.00000  Uiso   1.00
H108   H     0.57038   0.28710   0.38261   0.00000  Uiso   1.00
H109   H     0.46037   0.18593   0.03280   0.00000  Uiso   1.00
H110   H     0.57494   0.28591   0.47113   0.00000  Uiso   1.00
N111   N     0.50000   0.25001   0.12935   0.00000  Uiso   1.00
N112   N     0.50000   0.24999   0.37066   0.00000  Uiso   1.00
O113   O     0.50000   0.18573   0.29072   0.00000  Uiso   1.00
O114   O     0.50000   0.31428   0.20929   0.00000  Uiso   1.00
O115   O     0.50000   0.18573   0.20928   0.00000  Uiso   1.00
O116   O     0.50000   0.31427   0.29072   0.00000  Uiso   1.00
O117   O     0.42495   0.25000   0.28132   0.00000  Uiso   1.00
O118   O     0.57505   0.25001   0.21868   0.00000  Uiso   1.00
O119   O     0.42495   0.25000   0.19989   0.00000  Uiso   1.00
O120   O     0.57505   0.25000   0.30012   0.00000  Uiso   1.00
C121   C     0.55198   0.32120   0.13154   0.00000  Uiso   1.00
O122   O     0.59023   0.31536   0.16047   0.00000  Uiso   1.00
O123   O     0.53620   0.36411   0.11949   0.00000  Uiso   1.00
H124   H     0.55853   0.38743   0.13841   0.00000  Uiso   1.00
C125   C     0.41670   0.20459   0.36656   0.00000  Uiso   1.00
O126   O     0.42299   0.17669   0.33696   0.00000  Uiso   1.00
O127   O     0.36743   0.21044   0.37955   0.00000  Uiso   1.00
H128   H     0.34026   0.19059   0.36093   0.00000  Uiso   1.00
C129   C     0.83354   0.16495   0.25028   0.00000  Uiso   1.00
C130   C     0.83352   0.33495   0.24975   0.00000  Uiso   1.00
C131   C     0.85826   0.28352   0.05559   0.00000  Uiso   1.00
C132   C     0.79515   0.22950   0.44333   0.00000  Uiso   1.00
C133   C     0.85796   0.28356   0.10600   0.00000  Uiso   1.00
C134   C     0.79444   0.22904   0.39282   0.00000  Uiso   1.00
C135   C     0.81022   0.21585   0.10258   0.00000  Uiso   1.00
C136   C     0.87308   0.27052   0.39917   0.00000  Uiso   1.00
C137   C     0.81138   0.21429   0.05213   0.00000  Uiso   1.00
C138   C     0.87535   0.27019   0.45013   0.00000  Uiso   1.00
C139   C     0.83559   0.24866   0.02755   0.00000  Uiso   1.00
C140   C     0.83588   0.24926   0.47319   0.00000  Uiso   1.00
C141   C     0.73470   0.24998   0.23773   0.00000  Uiso   1.00
C142   C     0.93196   0.25078   0.26219   0.00000  Uiso   1.00
C143   C     0.67952   0.24920   0.23086   0.00000  Uiso   1.00
C144   C     0.98710   0.25288   0.26873   0.00000  Uiso   1.00
C145   C     0.82493   0.04645   0.29189   0.00000  Uiso   1.00
C146   C     0.81218   0.45234   0.20880   0.00000  Uiso   1.00
C147   C     0.82526   0.09241   0.29219   0.00000  Uiso   1.00
C148   C     0.81237   0.40640   0.20851   0.00000  Uiso   1.00
C149   C     0.83410   0.11661   0.25061   0.00000  Uiso   1.00
C150   C     0.83400   0.38312   0.24948   0.00000  Uiso   1.00
C151   C     0.84338   0.09425   0.20898   0.00000  Uiso   1.00
C152   C     0.85569   0.40612   0.29065   0.00000  Uiso   1.00
C153   C     0.84372   0.04836   0.20889   0.00000  Uiso   1.00
C154   C     0.85611   0.45202   0.29076   0.00000  Uiso   1.00
C155   C     0.83422   0.02408   0.25023   0.00000  Uiso   1.00
C156   C     0.83415   0.47551   0.24992   0.00000  Uiso   1.00
Cu157  Cu    0.83333   0.25000   0.29822   0.00000  Uiso   1.00
Cu158  Cu    0.83333   0.25001   0.20179   0.00000  Uiso   1.00
H159   H     0.99332   0.24504   0.19438   0.00000  Uiso   1.00
H160   H     0.67331   0.25792   0.30493   0.00000  Uiso   1.00
H161   H     0.81680   0.02843   0.32404   0.00000  Uiso   1.00
H162   H     0.79420   0.46969   0.17716   0.00000  Uiso   1.00
H163   H     0.81807   0.10886   0.32478   0.00000  Uiso   1.00
H164   H     0.79475   0.38907   0.17668   0.00000  Uiso   1.00
H165   H     0.85082   0.11217   0.17654   0.00000  Uiso   1.00
H166   H     0.87294   0.38860   0.32251   0.00000  Uiso   1.00
H167   H     0.85197   0.03191   0.17662   0.00000  Uiso   1.00
H168   H     0.87412   0.46913   0.32257   0.00000  Uiso   1.00
H169   H     0.87648   0.31109   0.03843   0.00000  Uiso   1.00
H170   H     0.76342   0.21394   0.45931   0.00000  Uiso   1.00
H171   H     0.79104   0.18923   0.12025   0.00000  Uiso   1.00
H172   H     0.90371   0.28710   0.38261   0.00000  Uiso   1.00
H173   H     0.79370   0.18593   0.03280   0.00000  Uiso   1.00
H174   H     0.90828   0.28591   0.47113   0.00000  Uiso   1.00
N175   N     0.83333   0.25001   0.12935   0.00000  Uiso   1.00
N176   N     0.83333   0.24999   0.37066   0.00000  Uiso   1.00
O177   O     0.83334   0.18573   0.29072   0.00000  Uiso   1.00
O178   O     0.83333   0.31428   0.20929   0.00000  Uiso   1.00
O179   O     0.83334   0.18573   0.20928   0.00000  Uiso   1.00
O180   O     0.83333   0.31427   0.29072   0.00000  Uiso   1.00
O181   O     0.75828   0.25000   0.28132   0.00000  Uiso   1.00
O182   O     0.90839   0.25001   0.21868   0.00000  Uiso   1.00
O183   O     0.75828   0.25000   0.19989   0.00000  Uiso   1.00
O184   O     0.90839   0.25000   0.30012   0.00000  Uiso   1.00
C185   C     0.88531   0.32120   0.13154   0.00000  Uiso   1.00
O186   O     0.92357   0.31536   0.16047   0.00000  Uiso   1.00
O187   O     0.86953   0.36411   0.11949   0.00000  Uiso   1.00
H188   H     0.89186   0.38743   0.13841   0.00000  Uiso   1.00
C189   C     0.75004   0.20459   0.36656   0.00000  Uiso   1.00
O190   O     0.75632   0.17669   0.33696   0.00000  Uiso   1.00
O191   O     0.70077   0.21044   0.37955   0.00000  Uiso   1.00
H192   H     0.67360   0.19059   0.36093   0.00000  Uiso   1.00
C193   C     0.16687   0.66495   0.25028   0.00000  Uiso   1.00
C194   C     0.16685   0.83495   0.24975   0.00000  Uiso   1.00
C195   C     0.19160   0.78352   0.05559   0.00000  Uiso   1.00
C196   C     0.12849   0.72950   0.44333   0.00000  Uiso   1.00
C197   C     0.19130   0.78356   0.10600   0.00000  Uiso   1.00
C198   C     0.12778   0.72904   0.39282   0.00000  Uiso   1.00
C199   C     0.14355   0.71585   0.10258   0.00000  Uiso   1.00
C200   C     0.20641   0.77052   0.39917   0.00000  Uiso   1.00
C201   C     0.14471   0.71429   0.05213   0.00000  Uiso   1.00
C202   C     0.20869   0.77019   0.45013   0.00000  Uiso   1.00
C203   C     0.16893   0.74866   0.02755   0.00000  Uiso   1.00
C204   C     0.16921   0.74926   0.47319   0.00000  Uiso   1.00
C205   C     0.06803   0.74998   0.23773   0.00000  Uiso   1.00
C206   C     0.26529   0.75078   0.26219   0.00000  Uiso   1.00
C207   C     0.01285   0.74920   0.23086   0.00000  Uiso   1.00
C208   C     0.32044   0.75288   0.26873   0.00000  Uiso   1.00
C209   C     0.15826   0.54645   0.29189   0.00000  Uiso   1.00
C210   C     0.14552   0.95234   0.20880   0.00000  Uiso   1.00
C211   C     0.15859   0.59241   0.29219   0.00000  Uiso   1.00
C212   C     0.14570   0.90640   0.20851   0.00000  Uiso   1.00
C213   C     0.16744   0.61661   0.25061   0.00000  Uiso   1.00
C214   C     0.16733   0.88312   0.24948   0.00000  Uiso   1.00
C215   C     0.17671   0.59425   0.20898   0.00000  Uiso   1.00
C216   C     0.18903   0.90612   0.29065   0.00000  Uiso   1.00
C217   C     0.17706   0.54836   0.20889   0.00000  Uiso   1.00
C218   C     0.18945   0.95202   0.29076   0.00000  Uiso   1.00
C219   C     0.16755   0.52408   0.25023   0.00000  Uiso   1.00
C220   C     0.16749   0.97551   0.24992   0.00000  Uiso   1.00
Cu221  Cu    0.16667   0.75000   0.29822   0.00000  Uiso   1.00
Cu222  Cu    0.16667   0.75001   0.20179   0.00000  Uiso   1.00
H223   H     0.32665   0.74504   0.19438   0.00000  Uiso   1.00
H224   H     0.00665   0.75792   0.30493   0.00000  Uiso   1.00
H225   H     0.15013   0.52843   0.32404   0.00000  Uiso   1.00
H226   H     0.12753   0.96969   0.17716   0.00000  Uiso   1.00
H227   H     0.15141   0.60886   0.32478   0.00000  Uiso   1.00
H228   H     0.12809   0.88907   0.17668   0.00000  Uiso   1.00
H229   H     0.18415   0.61217   0.17654   0.00000  Uiso   1.00
H230   H     0.20627   0.88860   0.32251   0.00000  Uiso   1.00
H231   H     0.18530   0.53191   0.17662   0.00000  Uiso   1.00
H232   H     0.20745   0.96913   0.32257   0.00000  Uiso   1.00
H233   H     0.20981   0.81109   0.03843   0.00000  Uiso   1.00
H234   H     0.09675   0.71394   0.45931   0.00000  Uiso   1.00
H235   H     0.12438   0.68923   0.12025   0.00000  Uiso   1.00
H236   H     0.23705   0.78710   0.38261   0.00000  Uiso   1.00
H237   H     0.12704   0.68593   0.03280   0.00000  Uiso   1.00
H238   H     0.24161   0.78591   0.47113   0.00000  Uiso   1.00
N239   N     0.16667   0.75001   0.12935   0.00000  Uiso   1.00
N240   N     0.16667   0.74999   0.37066   0.00000  Uiso   1.00
O241   O     0.16667   0.68573   0.29072   0.00000  Uiso   1.00
O242   O     0.16666   0.81428   0.20929   0.00000  Uiso   1.00
O243   O     0.16667   0.68573   0.20928   0.00000  Uiso   1.00
O244   O     0.16666   0.81427   0.29072   0.00000  Uiso   1.00
O245   O     0.09161   0.75000   0.28132   0.00000  Uiso   1.00
O246   O     0.24172   0.75001   0.21868   0.00000  Uiso   1.00
O247   O     0.09161   0.75000   0.19989   0.00000  Uiso   1.00
O248   O     0.24172   0.75000   0.30012   0.00000  Uiso   1.00
C249   C     0.21864   0.82120   0.13154   0.00000  Uiso   1.00
O250   O     0.25690   0.81536   0.16047   0.00000  Uiso   1.00
O251   O     0.20287   0.86411   0.11949   0.00000  Uiso   1.00
H252   H     0.22520   0.88743   0.13841   0.00000  Uiso   1.00
C253   C     0.08337   0.70459   0.36656   0.00000  Uiso   1.00
O254   O     0.08965   0.67669   0.33696   0.00000  Uiso   1.00
O255   O     0.03410   0.71044   0.37955   0.00000  Uiso   1.00
H256   H     0.00693   0.69059   0.36093   0.00000  Uiso   1.00
C257   C     0.50021   0.66495   0.25028   0.00000  Uiso   1.00
C258   C     0.50018   0.83495   0.24975   0.00000  Uiso   1.00
C259   C     0.52493   0.78352   0.05559   0.00000  Uiso   1.00
C260   C     0.46182   0.72950   0.44333   0.00000  Uiso   1.00
C261   C     0.52463   0.78356   0.10600   0.00000  Uiso   1.00
C262   C     0.46111   0.72904   0.39282   0.00000  Uiso   1.00
C263   C     0.47688   0.71585   0.10258   0.00000  Uiso   1.00
C264   C     0.53975   0.77052   0.39917   0.00000  Uiso   1.00
C265   C     0.47805   0.71429   0.05213   0.00000  Uiso   1.00
C266   C     0.54202   0.77019   0.45013   0.00000  Uiso   1.00
C267   C     0.50226   0.74866   0.02755   0.00000  Uiso   1.00
C268   C     0.50254   0.74926   0.47319   0.00000  Uiso   1.00
C269   C     0.40136   0.74998   0.23773   0.00000  Uiso   1.00
C270   C     0.59863   0.75078   0.26219   0.00000  Uiso   1.00
C271   C     0.34618   0.74920   0.23086   0.00000  Uiso   1.00
C272   C     0.65377   0.75288   0.26873   0.00000  Uiso   1.00
C273   C     0.49160   0.54645   0.29189   0.00000  Uiso   1.00
C274   C     0.47885   0.95234   0.20880   0.00000  Uiso   1.00
C275   C     0.49192   0.59241   0.29219   0.00000  Uiso   1.00
C276   C     0.47903   0.90640   0.20851   0.00000  Uiso   1.00
C277   C     0.50077   0.61661   0.25061   0.00000  Uiso   1.00
C278   C     0.50067   0.88312   0.24948   0.00000  Uiso   1.00
C279   C     0.51005   0.59425   0.20898   0.00000  Uiso   1.00
C280   C     0.52236   0.90612   0.29065   0.00000  Uiso   1.00
C281   C     0.51039   0.54836   0.20889   0.00000  Uiso   1.00
C282   C     0.52278   0.95202   0.29076   0.00000  Uiso   1.00
C283   C     0.50088   0.52408   0.25023   0.00000  Uiso   1.00
C284   C     0.50082   0.97551   0.24992   0.00000  Uiso   1.00
Cu285  Cu    0.50000   0.75000   0.29822   0.00000  Uiso   1.00
Cu286  Cu    0.50000   0.75001   0.20179   0.00000  Uiso   1.00
H287   H     0.65998   0.74504   0.19438   0.00000  Uiso   1.00
H288   H     0.33998   0.75792   0.30493   0.00000  Uiso   1.00
H289   H     0.48347   0.52843   0.32404   0.00000  Uiso   1.00
H290   H     0.46087   0.96969   0.17716   0.00000  Uiso   1.00
H291   H     0.48474   0.60886   0.32478   0.00000  Uiso   1.00
H292   H     0.46142   0.88907   0.17668   0.00000  Uiso   1.00
H293   H     0.51749   0.61217   0.17654   0.00000  Uiso   1.00
H294   H     0.53961   0.88860   0.32251   0.00000  Uiso   1.00
H295   H     0.51864   0.53191   0.17662   0.00000  Uiso   1.00
H296   H     0.54078   0.96913   0.32257   0.00000  Uiso   1.00
H297   H     0.54315   0.81109   0.03843   0.00000  Uiso   1.00
H298   H     0.43009   0.71394   0.45931   0.00000  Uiso   1.00
H299   H     0.45771   0.68923   0.12025   0.00000  Uiso   1.00
H300   H     0.57038   0.78710   0.38261   0.00000  Uiso   1.00
H301   H     0.46037   0.68593   0.03280   0.00000  Uiso   1.00
H302   H     0.57494   0.78591   0.47113   0.00000  Uiso   1.00
N303   N     0.50000   0.75001   0.12935   0.00000  Uiso   1.00
N304   N     0.50000   0.74999   0.37066   0.00000  Uiso   1.00
O305   O     0.50000   0.68573   0.29072   0.00000  Uiso   1.00
O306   O     0.50000   0.81428   0.20929   0.00000  Uiso   1.00
O307   O     0.50000   0.68573   0.20928   0.00000  Uiso   1.00
O308   O     0.50000   0.81427   0.29072   0.00000  Uiso   1.00
O309   O     0.42495   0.75000   0.28132   0.00000  Uiso   1.00
O310   O     0.57505   0.75001   0.21868   0.00000  Uiso   1.00
O311   O     0.42495   0.75000   0.19989   0.00000  Uiso   1.00
O312   O     0.57505   0.75000   0.30012   0.00000  Uiso   1.00
C313   C     0.55198   0.82120   0.13154   0.00000  Uiso   1.00
O314   O     0.59023   0.81536   0.16047   0.00000  Uiso   1.00
O315   O     0.53620   0.86411   0.11949   0.00000  Uiso   1.00
H316   H     0.55853   0.88743   0.13841   0.00000  Uiso   1.00
C317   C     0.41670   0.70459   0.36656   0.00000  Uiso   1.00
O318   O     0.42299   0.67669   0.33696   0.00000  Uiso   1.00
O319   O     0.36743   0.71044   0.37955   0.00000  Uiso   1.00
H320   H     0.34026   0.69059   0.36093   0.00000  Uiso   1.00
C321   C     0.83354   0.66495   0.25028   0.00000  Uiso   1.00
C322   C     0.83352   0.83495   0.24975   0.00000  Uiso   1.00
C323   C     0.85826   0.78352   0.05559   0.00000  Uiso   1.00
C324   C     0.79515   0.72950   0.44333   0.00000  Uiso   1.00
C325   C     0.85796   0.78356   0.10600   0.00000  Uiso   1.00
C326   C     0.79444   0.72904   0.39282   0.00000  Uiso   1.00
C327   C     0.81022   0.71585   0.10258   0.00000  Uiso   1.00
C328   C     0.87308   0.77052   0.39917   0.00000  Uiso   1.00
C329   C     0.81138   0.71429   0.05213   0.00000  Uiso   1.00
C330   C     0.87535   0.77019   0.45013   0.00000  Uiso   1.00
C331   C     0.83559   0.74866   0.02755   0.00000  Uiso   1.00
C332   C     0.83588   0.74926   0.47319   0.00000  Uiso   1.00
C333   C     0.73470   0.74998   0.23773   0.00000  Uiso   1.00
C334   C     0.93196   0.75078   0.26219   0.00000  Uiso   1.00
C335   C     0.67952   0.74920   0.23086   0.00000  Uiso   1.00
C336   C     0.98710   0.75288   0.26873   0.00000  Uiso   1.00
C337   C     0.82493   0.54645   0.29189   0.00000  Uiso   1.00
C338   C     0.81218   0.95234   0.20880   0.00000  Uiso   1.00
C339   C     0.82526   0.59241   0.29219   0.00000  Uiso   1.00
C340   C     0.81237   0.90640   0.20851   0.00000  Uiso   1.00
C341   C     0.83410   0.61661   0.25061   0.00000  Uiso   1.00
C342   C     0.83400   0.88312   0.24948   0.00000  Uiso   1.00
C343   C     0.84338   0.59425   0.20898   0.00000  Uiso   1.00
C344   C     0.85569   0.90612   0.29065   0.00000  Uiso   1.00
C345   C     0.84372   0.54836   0.20889   0.00000  Uiso   1.00
C346   C     0.85611   0.95202   0.29076   0.00000  Uiso   1.00
C347   C     0.83422   0.52408   0.25023   0.00000  Uiso   1.00
C348   C     0.83415   0.97551   0.24992   0.00000  Uiso   1.00
Cu349  Cu    0.83333   0.75000   0.29822   0.00000  Uiso   1.00
Cu350  Cu    0.83333   0.75001   0.20179   0.00000  Uiso   1.00
H351   H     0.99332   0.74504   0.19438   0.00000  Uiso   1.00
H352   H     0.67331   0.75792   0.30493   0.00000  Uiso   1.00
H353   H     0.81680   0.52843   0.32404   0.00000  Uiso   1.00
H354   H     0.79420   0.96969   0.17716   0.00000  Uiso   1.00
H355   H     0.81807   0.60886   0.32478   0.00000  Uiso   1.00
H356   H     0.79475   0.88907   0.17668   0.00000  Uiso   1.00
H357   H     0.85082   0.61217   0.17654   0.00000  Uiso   1.00
H358   H     0.87294   0.88860   0.32251   0.00000  Uiso   1.00
H359   H     0.85197   0.53191   0.17662   0.00000  Uiso   1.00
H360   H     0.87412   0.96913   0.32257   0.00000  Uiso   1.00
H361   H     0.87648   0.81109   0.03843   0.00000  Uiso   1.00
H362   H     0.76342   0.71394   0.45931   0.00000  Uiso   1.00
H363   H     0.79104   0.68923   0.12025   0.00000  Uiso   1.00
H364   H     0.90371   0.78710   0.38261   0.00000  Uiso   1.00
H365   H     0.79370   0.68593   0.03280   0.00000  Uiso   1.00
H366   H     0.90828   0.78591   0.47113   0.00000  Uiso   1.00
N367   N     0.83333   0.75001   0.12935   0.00000  Uiso   1.00
N368   N     0.83333   0.74999   0.37066   0.00000  Uiso   1.00
O369   O     0.83334   0.68573   0.29072   0.00000  Uiso   1.00
O370   O     0.83333   0.81428   0.20929   0.00000  Uiso   1.00
O371   O     0.83334   0.68573   0.20928   0.00000  Uiso   1.00
O372   O     0.83333   0.81427   0.29072   0.00000  Uiso   1.00
O373   O     0.75828   0.75000   0.28132   0.00000  Uiso   1.00
O374   O     0.90839   0.75001   0.21868   0.00000  Uiso   1.00
O375   O     0.75828   0.75000   0.19989   0.00000  Uiso   1.00
O376   O     0.90839   0.75000   0.30012   0.00000  Uiso   1.00
C377   C     0.88531   0.82120   0.13154   0.00000  Uiso   1.00
O378   O     0.92357   0.81536   0.16047   0.00000  Uiso   1.00
O379   O     0.86953   0.86411   0.11949   0.00000  Uiso   1.00
H380   H     0.89186   0.88743   0.13841   0.00000  Uiso   1.00
C381   C     0.75004   0.70459   0.36656   0.00000  Uiso   1.00
O382   O     0.75632   0.67669   0.33696   0.00000  Uiso   1.00
O383   O     0.70077   0.71044   0.37955   0.00000  Uiso   1.00
H384   H     0.67360   0.69059   0.36093   0.00000  Uiso   1.00
C385   C     0.16687   0.16495   0.75028   0.00000  Uiso   1.00
C386   C     0.16685   0.33495   0.74975   0.00000  Uiso   1.00
C387   C     0.19160   0.28352   0.55559   0.00000  Uiso   1.00
C388   C     0.12849   0.22950   0.94333   0.00000  Uiso   1.00
C389   C     0.19130   0.28356   0.60600   0.00000  Uiso   1.00
C390   C     0.12778   0.22904   0.89282   0.00000  Uiso   1.00
C391   C     0.14355   0.21585   0.60258   0.00000  Uiso   1.00
C392   C     0.20641   0.27052   0.89917   0.00000  Uiso   1.00
C393   C     0.14471   0.21429   0.55213   0.00000  Uiso   1.00
C394   C     0.20869   0.27019   0.95013   0.00000  Uiso   1.00
C395   C     0.16893   0.24866   0.52755   0.00000  Uiso   1.00
C396   C     0.16921   0.24926   0.97319   0.00000  Uiso   1.00
C397   C     0.06803   0.24998   0.73773   0.00000  Uiso   1.00
C398   C     0.26529   0.25078   0.76219   0.00000  Uiso   1.00
C399   C     0.01285   0.24920   0.73086   0.00000  Uiso   1.00
C400   C     0.32044   0.25288   0.76873   0.00000  Uiso   1.00
C401   C     0.15826   0.04645   0.79189   0.00000  Uiso   1.00
C402   C     0.14552   0.45234   0.70880   0.00000  Uiso   1.00
C403   C     0.15859   0.09241   0.79219   0.00000  Uiso   1.00
C404   C     0.14570   0.40640   0.70851   0.00000  Uiso   1.00
C405   C     0.16744   0.11661   0.75061   0.00000  Uiso   1.00
C406   C     0.16733   0.38312   0.74948   0.00000  Uiso   1.00
C407   C     0.17671   0.09425   0.70898   0.00000  Uiso   1.00
C408   C     0.18903   0.40612   0.79065   0.00000  Uiso   1.00
C409   C     0.17706   0.04836   0.70889   0.00000  Uiso   1.00
C410   C     0.18945   0.45202   0.79076   0.00000  Uiso   1.00
C411   C     0.16755   0.02408   0.75023   0.00000  Uiso   1.00
C412   C     0.16749   0.47551   0.74992   0.00000  Uiso   1.00
Cu413  Cu    0.16667   0.25000   0.79822   0.00000  Uiso   1.00
Cu414  Cu    0.16667   0.25001   0.70179   0.00000  Uiso   1.00
H415   H     0.32665   0.24504   0.69438   0.00000  Uiso   1.00
H416   H     0.00665   0.25792   0.80493   0.00000  Uiso   1.00
H417   H     0.15013   0.02843   0.82404   0.00000  Uiso   1.00
H418   H     0.12753   0.46969   0.67716   0.00000  Uiso   1.00
H419   H     0.15141   0.10886   0.82478   0.00000  Uiso   1.00
H420   H     0.12809   0.38907   0.67668   0.00000  Uiso   1.00
H421   H     0.18415   0.11217   0.67654   0.00000  Uiso   1.00
H422   H     0.20627   0.38860   0.82251   0.00000  Uiso   1.00
H423   H     0.18530   0.03191   0.67662   0.00000  Uiso   1.00
H424   H     0.20745   0.46913   0.82257   0.00000  Uiso   1.00
H425   H     0.20981   0.31109   0.53843   0.00000  Uiso   1.00
H426   H     0.09675   0.21394   0.95931   0.00000  Uiso   1.00
H427   H     0.12438   0.18923   0.62025   0.00000  Uiso   1.00
H428   H     0.23705   0.28710   0.88261   0.00000  Uiso   1.00
H429   H     0.12704   0.18593   0.53280   0.00000  Uiso   1.00
H430   H     0.24161   0.28591   0.97113   0.00000  Uiso   1.00
N431   N     0.16667   0.25001   0.62935   0.00000  Uiso   1.00
N432   N     0.16667   0.24999   0.87066   0.00000  Uiso   1.00
O433   O     0.16667   0.18573   0.79072   0.00000  Uiso   1.00
O434   O     0.16666   0.31428   0.70929   0.00000  Uiso   1.00
O435   O     0.16667   0.18573   0.70928   0.00000  Uiso   1.00
O436   O     0.16666   0.31427   0.79072   0.00000  Uiso   1.00
O437   O     0.09161   0.25000   0.78132   0.00000  Uiso   1.00
O438   O     0.24172   0.25001   0.71868   0.00000  Uiso   1.00
O439   O     0.09161   0.25000   0.69989   0.00000  Uiso   1.00
O440   O     0.24172   0.25000   0.80012   0.00000  Uiso   1.00
C441   C     0.21864   0.32120   0.63154   0.00000  Uiso   1.00
O442   O     0.25690   0.31536   0.66047   0.00000  Uiso   1.00
O443   O     0.20287   0.36411   0.61949   0.00000  Uiso   1.00
H444   H     0.22520   0.38743   0.63841   0.00000  Uiso   1.00
C445   C     0.08337   0.20459   0.86656   0.00000  Uiso   1.00
O446   O     0.08965   0.17669   0.83696   0.00000  Uiso   1.00
O447   O     0.03410   0.21044   0.87955   0.00000  Uiso   1.00
H448   H     0.00693   0.19059   0.86093   0.00000  Uiso   1.00
C449   C     0.50021   0.16495   0.75028   0.00000  Uiso   1.00
C450   C     0.50018   0.33495   0.74975   0.00000  Uiso   1.00
C451   C     0.52493   0.28352   0.55559   0.00000  Uiso   1.00
C452   C     0.46182   0.22950   0.94333   0.00000  Uiso   1.00
C453   C     0.52463   0.28356   0.60600   0.00000  Uiso   1.00
C454   C     0.46111   0.22904   0.89282   0.00000  Uiso   1.00
C455   C     0.47688   0.21585   0.60258   0.00000  Uiso   1.00
C456   C     0.53975   0.27052   0.89917   0.00000  Uiso   1.00
C457   C     0.47805   0.21429   0.55213   0.00000  Uiso   1.00
C458   C     0.54202   0.27019   0.95013   0.00000  Uiso   1.00
C459   C     0.50226   0.24866   0.52755   0.00000  Uiso   1.00
C460   C     0.50254   0.24926   0.97319   0.00000  Uiso   1.00
C461   C     0.40136   0.24998   0.73773   0.00000  Uiso   1.00
C462   C     0.59863   0.25078   0.76219   0.00000  Uiso   1.00
C463   C     0.34618   0.24920   0.73086   0.00000  Uiso   1.00
C464   C     0.65377   0.25288   0.76873   0.00000  Uiso   1.00
C465   C     0.49160   0.04645   0.79189   0.00000  Uiso   1.00
C466   C     0.47885   0.45234   0.70880   0.00000  Uiso   1.00
C467   C     0.49192   0.09241   0.79219   0.00000  Uiso   1.00
C468   C     0.47903   0.40640   0.70851   0.00000  Uiso   1.00
C469   C     0.50077   0.11661   0.75061   0.00000  Uiso   1.00
C470   C     0.50067   0.38312   0.74948   0.00000  Uiso   1.00
C471   C     0.51005   0.09425   0.70898   0.00000  Uiso   1.00
C472   C     0.52236   0.40612   0.79065   0.00000  Uiso   1.00
C473   C     0.51039   0.04836   0.70889   0.00000  Uiso   1.00
C474   C     0.52278   0.45202   0.79076   0.00000  Uiso   1.00
C475   C     0.50088   0.02408   0.75023   0.00000  Uiso   1.00
C476   C     0.50082   0.47551   0.74992   0.00000  Uiso   1.00
Cu477  Cu    0.50000   0.25000   0.79822   0.00000  Uiso   1.00
Cu478  Cu    0.50000   0.25001   0.70179   0.00000  Uiso   1.00
H479   H     0.65998   0.24504   0.69438   0.00000  Uiso   1.00
H480   H     0.33998   0.25792   0.80493   0.00000  Uiso   1.00
H481   H     0.48347   0.02843   0.82404   0.00000  Uiso   1.00
H482   H     0.46087   0.46969   0.67716   0.00000  Uiso   1.00
H483   H     0.48474   0.10886   0.82478   0.00000  Uiso   1.00
H484   H     0.46142   0.38907   0.67668   0.00000  Uiso   1.00
H485   H     0.51749   0.11217   0.67654   0.00000  Uiso   1.00
H486   H     0.53961   0.38860   0.82251   0.00000  Uiso   1.00
H487   H     0.51864   0.03191   0.67662   0.00000  Uiso   1.00
H488   H     0.54078   0.46913   0.82257   0.00000  Uiso   1.00
H489   H     0.54315   0.31109   0.53843   0.00000  Uiso   1.00
H490   H     0.43009   0.21394   0.95931   0.00000  Uiso   1.00
H491   H     0.45771   0.18923   0.62025   0.00000  Uiso   1.00
H492   H     0.57038   0.28710   0.88261   0.00000  Uiso   1.00
H493   H     0.46037   0.18593   0.53280   0.00000  Uiso   1.00
H494   H     0.57494   0.28591   0.97113   0.00000  Uiso   1.00
N495   N     0.50000   0.25001   0.62935   0.00000  Uiso   1.00
N496   N     0.50000   0.24999   0.87066   0.00000  Uiso   1.00
O497   O     0.50000   0.18573   0.79072   0.00000  Uiso   1.00
O498   O     0.50000   0.31428   0.70929   0.00000  Uiso   1.00
O499   O     0.50000   0.18573   0.70928   0.00000  Uiso   1.00
O500   O     0.50000   0.31427   0.79072   0.00000  Uiso   1.00
O501   O     0.42495   0.25000   0.78132   0.00000  Uiso   1.00
O502   O     0.57505   0.25001   0.71868   0.00000  Uiso   1.00
O503   O     0.42495   0.25000   0.69989   0.00000  Uiso   1.00
O504   O     0.57505   0.25000   0.80012   0.00000  Uiso   1.00
C505   C     0.55198   0.32120   0.63154   0.00000  Uiso   1.00
O506   O     0.59023   0.31536   0.66047   0.00000  Uiso   1.00
O507   O     0.53620   0.36411   0.61949   0.00000  Uiso   1.00
H508   H     0.55853   0.38743   0.63841   0.00000  Uiso   1.00
C509   C     0.41670   0.20459   0.86656   0.00000  Uiso   1.00
O510   O     0.42299   0.17669   0.83696   0.00000  Uiso   1.00
O511   O     0.36743   0.21044   0.87955   0.00000  Uiso   1.00
H512   H     0.34026   0.19059   0.86093   0.00000  Uiso   1.00
C513   C     0.83354   0.16495   0.75028   0.00000  Uiso   1.00
C514   C     0.83352   0.33495   0.74975   0.00000  Uiso   1.00
C515   C     0.85826   0.28352   0.55559   0.00000  Uiso   1.00
C516   C     0.79515   0.22950   0.94333   0.00000  Uiso   1.00
C517   C     0.85796   0.28356   0.60600   0.00000  Uiso   1.00
C518   C     0.79444   0.22904   0.89282   0.00000  Uiso   1.00
C519   C     0.81022   0.21585   0.60258   0.00000  Uiso   1.00
C520   C     0.87308   0.27052   0.89917   0.00000  Uiso   1.00
C521   C     0.81138   0.21429   0.55213   0.00000  Uiso   1.00
C522   C     0.87535   0.27019   0.95013   0.00000  Uiso   1.00
C523   C     0.83559   0.24866   0.52755   0.00000  Uiso   1.00
C524   C     0.83588   0.24926   0.97319   0.00000  Uiso   1.00
C525   C     0.73470   0.24998   0.73773   0.00000  Uiso   1.00
C526   C     0.93196   0.25078   0.76219   0.00000  Uiso   1.00
C527   C     0.67952   0.24920   0.73086   0.00000  Uiso   1.00
C528   C     0.98710   0.25288   0.76873   0.00000  Uiso   1.00
C529   C     0.82493   0.04645   0.79189   0.00000  Uiso   1.00
C530   C     0.81218   0.45234   0.70880   0.00000  Uiso   1.00
C531   C     0.82526   0.09241   0.79219   0.00000  Uiso   1.00
C532   C     0.81237   0.40640   0.70851   0.00000  Uiso   1.00
C533   C     0.83410   0.11661   0.75061   0.00000  Uiso   1.00
C534   C     0.83400   0.38312   0.74948   0.00000  Uiso   1.00
C535   C     0.84338   0.09425   0.70898   0.00000  Uiso   1.00
C536   C     0.85569   0.40612   0.79065   0.00000  Uiso   1.00
C537   C     0.84372   0.04836   0.70889   0.00000  Uiso   1.00
C538   C     0.85611   0.45202   0.79076   0.00000  Uiso   1.00
C539   C     0.83422   0.02408   0.75023   0.00000  Uiso   1.00
C540   C     0.83415   0.47551   0.74992   0.00000  Uiso   1.00
Cu541  Cu    0.83333   0.25000   0.79822   0.00000  Uiso   1.00
Cu542  Cu    0.83333   0.25001   0.70179   0.00000  Uiso   1.00
H543   H     0.99332   0.24504   0.69438   0.00000  Uiso   1.00
H544   H     0.67331   0.25792   0.80493   0.00000  Uiso   1.00
H545   H     0.81680   0.02843   0.82404   0.00000  Uiso   1.00
H546   H     0.79420   0.46969   0.67716   0.00000  Uiso   1.00
H547   H     0.81807   0.10886   0.82478   0.00000  Uiso   1.00
H548   H     0.79475   0.38907   0.67668   0.00000  Uiso   1.00
H549   H     0.85082   0.11217   0.67654   0.00000  Uiso   1.00
H550   H     0.87294   0.38860   0.82251   0.00000  Uiso   1.00
H551   H     0.85197   0.03191   0.67662   0.00000  Uiso   1.00
H552   H     0.87412   0.46913   0.82257   0.00000  Uiso   1.00
H553   H     0.87648   0.31109   0.53843   0.00000  Uiso   1.00
H554   H     0.76342   0.21394   0.95931   0.00000  Uiso   1.00
H555   H     0.79104   0.18923   0.62025   0.00000  Uiso   1.00
H556   H     0.90371   0.28710   0.88261   0.00000  Uiso   1.00
H557   H     0.79370   0.18593   0.53280   0.00000  Uiso   1.00
H558   H     0.90828   0.28591   0.97113   0.00000  Uiso   1.00
N559   N     0.83333   0.25001   0.62935   0.00000  Uiso   1.00
N560   N     0.83333   0.24999   0.87066   0.00000  Uiso   1.00
O561   O     0.83334   0.18573   0.79072   0.00000  Uiso   1.00
O562   O     0.83333   0.31428   0.70929   0.00000  Uiso   1.00
O563   O     0.83334   0.18573   0.70928   0.00000  Uiso   1.00
O564   O     0.83333   0.31427   0.79072   0.00000  Uiso   1.00
O565   O     0.75828   0.25000   0.78132   0.00000  Uiso   1.00
O566   O     0.90839   0.25001   0.71868   0.00000  Uiso   1.00
O567   O     0.75828   0.25000   0.69989   0.00000  Uiso   1.00
O568   O     0.90839   0.25000   0.80012   0.00000  Uiso   1.00
C569   C     0.88531   0.32120   0.63154   0.00000  Uiso   1.00
O570   O     0.92357   0.31536   0.66047   0.00000  Uiso   1.00
O571   O     0.86953   0.36411   0.61949   0.00000  Uiso   1.00
H572   H     0.89186   0.38743   0.63841   0.00000  Uiso   1.00
C573   C     0.75004   0.20459   0.86656   0.00000  Uiso   1.00
O574   O     0.75632   0.17669   0.83696   0.00000  Uiso   1.00
O575   O     0.70077   0.21044   0.87955   0.00000  Uiso   1.00
H576   H     0.67360   0.19059   0.86093   0.00000  Uiso   1.00
C577   C     0.16687   0.66495   0.75028   0.00000  Uiso   1.00
C578   C     0.16685   0.83495   0.74975   0.00000  Uiso   1.00
C579   C     0.19160   0.78352   0.55559   0.00000  Uiso   1.00
C580   C     0.12849   0.72950   0.94333   0.00000  Uiso   1.00
C581   C     0.19130   0.78356   0.60600   0.00000  Uiso   1.00
C582   C     0.12778   0.72904   0.89282   0.00000  Uiso   1.00
C583   C     0.14355   0.71585   0.60258   0.00000  Uiso   1.00
C584   C     0.20641   0.77052   0.89917   0.00000  Uiso   1.00
C585   C     0.14471   0.71429   0.55213   0.00000  Uiso   1.00
C586   C     0.20869   0.77019   0.95013   0.00000  Uiso   1.00
C587   C     0.16893   0.74866   0.52755   0.00000  Uiso   1.00
C588   C     0.16921   0.74926   0.97319   0.00000  Uiso   1.00
C589   C     0.06803   0.74998   0.73773   0.00000  Uiso   1.00
C590   C     0.26529   0.75078   0.76219   0.00000  Uiso   1.00
C591   C     0.01285   0.74920   0.73086   0.00000  Uiso   1.00
C592   C     0.32044   0.75288   0.76873   0.00000  Uiso   1.00
C593   C     0.15826   0.54645   0.79189   0.00000  Uiso   1.00
C594   C     0.14552   0.95234   0.70880   0.00000  Uiso   1.00
C595   C     0.15859   0.59241   0.79219   0.00000  Uiso   1.00
C596   C     0.14570   0.90640   0.70851   0.00000  Uiso   1.00
C597   C     0.16744   0.61661   0.75061   0.00000  Uiso   1.00
C598   C     0.16733   0.88312   0.74948   0.00000  Uiso   1.00
C599   C     0.17671   0.59425   0.70898   0.00000  Uiso   1.00
C600   C     0.18903   0.90612   0.79065   0.00000  Uiso   1.00
C601   C     0.17706   0.54836   0.70889   0.00000  Uiso   1.00
C602   C     0.18945   0.95202   0.79076   0.00000  Uiso   1.00
C603   C     0.16755   0.52408   0.75023   0.00000  Uiso   1.00
C604   C     0.16749   0.97551   0.74992   0.00000  Uiso   1.00
Cu605  Cu    0.16667   0.75000   0.79822   0.00000  Uiso   1.00
Cu606  Cu    0.16667   0.75001   0.70179   0.00000  Uiso   1.00
H607   H     0.32665   0.74504   0.69438   0.00000  Uiso   1.00
H608   H     0.00665   0.75792   0.80493   0.00000  Uiso   1.00
H609   H     0.15013   0.52843   0.82404   0.00000  Uiso   1.00
H610   H     0.12753   0.96969   0.67716   0.00000  Uiso   1.00
H611   H     0.15141   0.60886   0.82478   0.00000  Uiso   1.00
H612   H     0.12809   0.88907   0.67668   0.00000  Uiso   1.00
H613   H     0.18415   0.61217   0.67654   0.00000  Uiso   1.00
H614   H     0.20627   0.88860   0.82251   0.00000  Uiso   1.00
H615   H     0.18530   0.53191   0.67662   0.00000  Uiso   1.00
H616   H     0.20745   0.96913   0.82257   0.00000  Uiso   1.00
H617   H     0.20981   0.81109   0.53843   0.00000  Uiso   1.00
H618   H     0.09675   0.71394   0.95931   0.00000  Uiso   1.00
H619   H     0.12438   0.68923   0.62025   0.00000  Uiso   1.00
H620   H     0.23705   0.78710   0.88261   0.00000  Uiso   1.00
H621   H     0.12704   0.68593   0.53280   0.00000  Uiso   1.00
H622   H     0.24161   0.78591   0.97113   0.00000  Uiso   1.00
N623   N     0.16667   0.75001   0.62935   0.00000  Uiso   1.00
N624   N     0.16667   0.74999   0.87066   0.00000  Uiso   1.00
O625   O     0.16667   0.68573   0.79072   0.00000  Uiso   1.00
O626   O     0.16666   0.81428   0.70929   0.00000  Uiso   1.00
O627   O     0.16667   0.68573   0.70928   0.00000  Uiso   1.00
O628   O     0.16666   0.81427   0.79072   0.00000  Uiso   1.00
O629   O     0.09161   0.75000   0.78132   0.00000  Uiso   1.00
O630   O     0.24172   0.75001   0.71868   0.00000  Uiso   1.00
O631   O     0.09161   0.75000   0.69989   0.00000  Uiso   1.00
O632   O     0.24172   0.75000   0.80012   0.00000  Uiso   1.00
C633   C     0.21864   0.82120   0.63154   0.00000  Uiso   1.00
O634   O     0.25690   0.81536   0.66047   0.00000  Uiso   1.00
O635   O     0.20287   0.86411   0.61949   0.00000  Uiso   1.00
H636   H     0.22520   0.88743   0.63841   0.00000  Uiso   1.00
C637   C     0.08337   0.70459   0.86656   0.00000  Uiso   1.00
O638   O     0.08965   0.67669   0.83696   0.00000  Uiso   1.00
O639   O     0.03410   0.71044   0.87955   0.00000  Uiso   1.00
H640   H     0.00693   0.69059   0.86093   0.00000  Uiso   1.00
C641   C     0.50021   0.66495   0.75028   0.00000  Uiso   1.00
C642   C     0.50018   0.83495   0.74975   0.00000  Uiso   1.00
C643   C     0.52493   0.78352   0.55559   0.00000  Uiso   1.00
C644   C     0.46182   0.72950   0.94333   0.00000  Uiso   1.00
C645   C     0.52463   0.78356   0.60600   0.00000  Uiso   1.00
C646   C     0.46111   0.72904   0.89282   0.00000  Uiso   1.00
C647   C     0.47688   0.71585   0.60258   0.00000  Uiso   1.00
C648   C     0.53975   0.77052   0.89917   0.00000  Uiso   1.00
C649   C     0.47805   0.71429   0.55213   0.00000  Uiso   1.00
C650   C     0.54202   0.77019   0.95013   0.00000  Uiso   1.00
C651   C     0.50226   0.74866   0.52755   0.00000  Uiso   1.00
C652   C     0.50254   0.74926   0.97319   0.00000  Uiso   1.00
C653   C     0.40136   0.74998   0.73773   0.00000  Uiso   1.00
C654   C     0.59863   0.75078   0.76219   0.00000  Uiso   1.00
C655   C     0.34618   0.74920   0.73086   0.00000  Uiso   1.00
C656   C     0.65377   0.75288   0.76873   0.00000  Uiso   1.00
C657   C     0.49160   0.54645   0.79189   0.00000  Uiso   1.00
C658   C     0.47885   0.95234   0.70880   0.00000  Uiso   1.00
C659   C     0.49192   0.59241   0.79219   0.00000  Uiso   1.00
C660   C     0.47903   0.90640   0.70851   0.00000  Uiso   1.00
C661   C     0.50077   0.61661   0.75061   0.00000  Uiso   1.00
C662   C     0.50067   0.88312   0.74948   0.00000  Uiso   1.00
C663   C     0.51005   0.59425   0.70898   0.00000  Uiso   1.00
C664   C     0.52236   0.90612   0.79065   0.00000  Uiso   1.00
C665   C     0.51039   0.54836   0.70889   0.00000  Uiso   1.00
C666   C     0.52278   0.95202   0.79076   0.00000  Uiso   1.00
C667   C     0.50088   0.52408   0.75023   0.00000  Uiso   1.00
C668   C     0.50082   0.97551   0.74992   0.00000  Uiso   1.00
Cu669  Cu    0.50000   0.75000   0.79822   0.00000  Uiso   1.00
Cu670  Cu    0.50000   0.75001   0.70179   0.00000  Uiso   1.00
H671   H     0.65998   0.74504   0.69438   0.00000  Uiso   1.00
H672   H     0.33998   0.75792   0.80493   0.00000  Uiso   1.00
H673   H     0.48347   0.52843   0.82404   0.00000  Uiso   1.00
H674   H     0.46087   0.96969   0.67716   0.00000  Uiso   1.00
H675   H     0.48474   0.60886   0.82478   0.00000  Uiso   1.00
H676   H     0.46142   0.88907   0.67668   0.00000  Uiso   1.00
H677   H     0.51749   0.61217   0.67654   0.00000  Uiso   1.00
H678   H     0.53961   0.88860   0.82251   0.00000  Uiso   1.00
H679   H     0.51864   0.53191   0.67662   0.00000  Uiso   1.00
H680   H     0.54078   0.96913   0.82257   0.00000  Uiso   1.00
H681   H     0.54315   0.81109   0.53843   0.00000  Uiso   1.00
H682   H     0.43009   0.71394   0.95931   0.00000  Uiso   1.00
H683   H     0.45771   0.68923   0.62025   0.00000  Uiso   1.00
H684   H     0.57038   0.78710   0.88261   0.00000  Uiso   1.00
H685   H     0.46037   0.68593   0.53280   0.00000  Uiso   1.00
H686   H     0.57494   0.78591   0.97113   0.00000  Uiso   1.00
N687   N     0.50000   0.75001   0.62935   0.00000  Uiso   1.00
N688   N     0.50000   0.74999   0.87066   0.00000  Uiso   1.00
O689   O     0.50000   0.68573   0.79072   0.00000  Uiso   1.00
O690   O     0.50000   0.81428   0.70929   0.00000  Uiso   1.00
O691   O     0.50000   0.68573   0.70928   0.00000  Uiso   1.00
O692   O     0.50000   0.81427   0.79072   0.00000  Uiso   1.00
O693   O     0.42495   0.75000   0.78132   0.00000  Uiso   1.00
O694   O     0.57505   0.75001   0.71868   0.00000  Uiso   1.00
O695   O     0.42495   0.75000   0.69989   0.00000  Uiso   1.00
O696   O     0.57505   0.75000   0.80012   0.00000  Uiso   1.00
C697   C     0.55198   0.82120   0.63154   0.00000  Uiso   1.00
O698   O     0.59023   0.81536   0.66047   0.00000  Uiso   1.00
O699   O     0.53620   0.86411   0.61949   0.00000  Uiso   1.00
H700   H     0.55853   0.88743   0.63841   0.00000  Uiso   1.00
C701   C     0.41670   0.70459   0.86656   0.00000  Uiso   1.00
O702   O     0.42299   0.67669   0.83696   0.00000  Uiso   1.00
O703   O     0.36743   0.71044   0.87955   0.00000  Uiso   1.00
H704   H     0.34026   0.69059   0.86093   0.00000  Uiso   1.00
C705   C     0.83354   0.66495   0.75028   0.00000  Uiso   1.00
C706   C     0.83352   0.83495   0.74975   0.00000  Uiso   1.00
C707   C     0.85826   0.78352   0.55559   0.00000  Uiso   1.00
C708   C     0.79515   0.72950   0.94333   0.00000  Uiso   1.00
C709   C     0.85796   0.78356   0.60600   0.00000  Uiso   1.00
C710   C     0.79444   0.72904   0.89282   0.00000  Uiso   1.00
C711   C     0.81022   0.71585   0.60258   0.00000  Uiso   1.00
C712   C     0.87308   0.77052   0.89917   0.00000  Uiso   1.00
C713   C     0.81138   0.71429   0.55213   0.00000  Uiso   1.00
C714   C     0.87535   0.77019   0.95013   0.00000  Uiso   1.00
C715   C     0.83559   0.74866   0.52755   0.00000  Uiso   1.00
C716   C     0.83588   0.74926   0.97319   0.00000  Uiso   1.00
C717   C     0.73470   0.74998   0.73773   0.00000  Uiso   1.00
C718   C     0.93196   0.75078   0.76219   0.00000  Uiso   1.00
C719   C     0.67952   0.74920   0.73086   0.00000  Uiso   1.00
C720   C     0.98710   0.75288   0.76873   0.00000  Uiso   1.00
C721   C     0.82493   0.54645   0.79189   0.00000  Uiso   1.00
C722   C     0.81218   0.95234   0.70880   0.00000  Uiso   1.00
C723   C     0.82526   0.59241   0.79219   0.00000  Uiso   1.00
C724   C     0.81237   0.90640   0.70851   0.00000  Uiso   1.00
C725   C     0.83410   0.61661   0.75061   0.00000  Uiso   1.00
C726   C     0.83400   0.88312   0.74948   0.00000  Uiso   1.00
C727   C     0.84338   0.59425   0.70898   0.00000  Uiso   1.00
C728   C     0.85569   0.90612   0.79065   0.00000  Uiso   1.00
C729   C     0.84372   0.54836   0.70889   0.00000  Uiso   1.00
C730   C     0.85611   0.95202   0.79076   0.00000  Uiso   1.00
C731   C     0.83422   0.52408   0.75023   0.00000  Uiso   1.00
C732   C     0.83415   0.97551   0.74992   0.00000  Uiso   1.00
Cu733  Cu    0.83333   0.75000   0.79822   0.00000  Uiso   1.00
Cu734  Cu    0.83333   0.75001   0.70179   0.00000  Uiso   1.00
H735   H     0.99332   0.74504   0.69438   0.00000  Uiso   1.00
H736   H     0.67331   0.75792   0.80493   0.00000  Uiso   1.00
H737   H     0.81680   0.52843   0.82404   0.00000  Uiso   1.00
H738   H     0.79420   0.96969   0.67716   0.00000  Uiso   1.00
H739   H     0.81807   0.60886   0.82478   0.00000  Uiso   1.00
H740   H     0.79475   0.88907   0.67668   0.00000  Uiso   1.00
H741   H     0.85082   0.61217   0.67654   0.00000  Uiso   1.00
H742   H     0.87294   0.88860   0.82251   0.00000  Uiso   1.00
H743   H     0.85197   0.53191   0.67662   0.00000  Uiso   1.00
H744   H     0.87412   0.96913   0.82257   0.00000  Uiso   1.00
H745   H     0.87648   0.81109   0.53843   0.00000  Uiso   1.00
H746   H     0.76342   0.71394   0.95931   0.00000  Uiso   1.00
H747   H     0.79104   0.68923   0.62025   0.00000  Uiso   1.00
H748   H     0.90371   0.78710   0.88261   0.00000  Uiso   1.00
H749   H     0.79370   0.68593   0.53280   0.00000  Uiso   1.00
H750   H     0.90828   0.78591   0.97113   0.00000  Uiso   1.00
N751   N     0.83333   0.75001   0.62935   0.00000  Uiso   1.00
N752   N     0.83333   0.74999   0.87066   0.00000  Uiso   1.00
O753   O     0.83334   0.68573   0.79072   0.00000  Uiso   1.00
O754   O     0.83333   0.81428   0.70929   0.00000  Uiso   1.00
O755   O     0.83334   0.68573   0.70928   0.00000  Uiso   1.00
O756   O     0.83333   0.81427   0.79072   0.00000  Uiso   1.00
O757   O     0.75828   0.75000   0.78132   0.00000  Uiso   1.00
O758   O     0.90839   0.75001   0.71868   0.00000  Uiso   1.00
O759   O     0.75828   0.75000   0.69989   0.00000  Uiso   1.00
O760   O     0.90839   0.75000   0.80012   0.00000  Uiso   1.00
C761   C     0.88531   0.82120   0.63154   0.00000  Uiso   1.00
O762   O     0.92357   0.81536   0.66047   0.00000  Uiso   1.00
O763   O     0.86953   0.86411   0.61949   0.00000  Uiso   1.00
H764   H     0.89186   0.88743   0.63841   0.00000  Uiso   1.00
C765   C     0.75004   0.70459   0.86656   0.00000  Uiso   1.00
O766   O     0.75632   0.67669   0.83696   0.00000  Uiso   1.00
O767   O     0.70077   0.71044   0.87955   0.00000  Uiso   1.00
H768   H     0.67360   0.69059   0.86093   0.00000  Uiso   1.00
loop_
_geom_bond_atom_site_label_1
_geom_bond_atom_site_label_2
_geom_bond_distance
_geom_bond_site_symmetry_2
_ccdc_geom_bond_type
C1     C21     1.463   .     S
C1     O51     1.296   .     A
C1     O49     1.300   .     A
C2     C22     1.457   .     S
C2     O52     1.295   .     A
C2     O50     1.298   .     A
C3     C5      1.407   .     A
C3     C11     1.396   .     A
C3     H41     1.083   .     S
C4     C12     1.394   .     A
C4     H42     1.083   .     S
C4     C6      1.407   .     A
C5     C57     1.472   .     S
C5     N47     1.384   .     A
C6     N48     1.388   .     A
C6     C61     1.479   .     S
C7     H43     1.081   .     S
C7     N47     1.366   .     A
C7     C9      1.413   .     A
C8     N48     1.368   .     A
C8     C10     1.415   .     A
C8     H44     1.081   .     S
C9     H45     1.082   .     S
C9     C11     1.414   .     A
C10    H46     1.082   .     S
C10    C12     1.413   .     A
C11    C396    1.517   1_554 S
C12    C395    1.517   .     S
C13    O53     1.293   .     A
C13    C15     1.432   .     S
C13    O55     1.288   .     A
C14    O56     1.289   .     A
C14    O54     1.291   .     A
C14    C16     1.431   .     S
C15    C144    1.330   1_455 S
C15    H159    1.087   1_455 S
C16    C79     1.330   .     S
C16    H96     1.084   .     S
C17    H33     1.083   .     S
C17    C27     1.404   .     A
C17    C19     1.391   .     A
C18    C28     1.405   .     A
C18    H34     1.083   .     S
C18    C20     1.391   .     A
C19    H35     1.082   .     S
C19    C21     1.402   .     A
C20    C22     1.400   .     A
C20    H36     1.083   .     S
C21    C23     1.403   .     A
C22    C24     1.401   .     A
C23    H37     1.083   .     S
C23    C25     1.389   .     A
C24    H38     1.083   .     S
C24    C26     1.389   .     A
C25    H39     1.083   .     S
C25    C27     1.402   .     A
C26    H40     1.083   .     S
C26    C28     1.403   .     A
C27    C220    1.470   1_545 S
C28    C219    1.470   .     S
Cu29   Cu30    2.689   .     S
Cu29   O56     1.958   .     S
Cu29   O49     1.959   .     S
Cu29   O53     1.962   .     S
Cu29   N48     2.020   .     S
Cu29   O52     1.953   .     S
Cu30   O51     1.953   .     S
Cu30   O55     1.958   .     S
Cu30   O50     1.959   .     S
Cu30   O54     1.962   .     S
Cu30   N47     2.020   .     S
H31    C79     1.087   .     S
H32    C144    1.084   1_455 S
C57    O58     1.220   .     D
C57    O59     1.398   .     S
O59    H60     1.014   .     S
C61    O62     1.218   .     D
C61    O63     1.399   .     S
O63    H64     1.014   .     S
C65    C85     1.463   .     S
C65    O115    1.296   .     A
C65    O113    1.300   .     A
C66    C86     1.457   .     S
C66    O116    1.295   .     A
C66    O114    1.298   .     A
C67    C69     1.407   .     A
C67    C75     1.396   .     A
C67    H105    1.083   .     S
C68    C76     1.394   .     A
C68    H106    1.083   .     S
C68    C70     1.407   .     A
C69    C121    1.472   .     S
C69    N111    1.384   .     A
C70    N112    1.388   .     A
C70    C125    1.479   .     S
C71    H107    1.081   .     S
C71    N111    1.366   .     A
C71    C73     1.413   .     A
C72    N112    1.368   .     A
C72    C74     1.415   .     A
C72    H108    1.081   .     S
C73    H109    1.082   .     S
C73    C75     1.414   .     A
C74    H110    1.082   .     S
C74    C76     1.413   .     A
C75    C460    1.517   1_554 S
C76    C459    1.517   .     S
C77    O117    1.293   .     A
C77    C79     1.432   .     S
C77    O119    1.288   .     A
C78    O120    1.289   .     A
C78    O118    1.291   .     A
C78    C80     1.431   .     S
C80    C143    1.330   .     S
C80    H160    1.084   .     S
C81    H97     1.083   .     S
C81    C91     1.404   .     A
C81    C83     1.391   .     A
C82    C92     1.405   .     A
C82    H98     1.083   .     S
C82    C84     1.391   .     A
C83    H99     1.082   .     S
C83    C85     1.402   .     A
C84    C86     1.400   .     A
C84    H100    1.083   .     S
C85    C87     1.403   .     A
C86    C88     1.401   .     A
C87    H101    1.083   .     S
C87    C89     1.389   .     A
C88    H102    1.083   .     S
C88    C90     1.389   .     A
C89    H103    1.083   .     S
C89    C91     1.402   .     A
C90    H104    1.083   .     S
C90    C92     1.403   .     A
C91    C284    1.470   1_545 S
C92    C283    1.470   .     S
Cu93   Cu94    2.689   .     S
Cu93   O120    1.958   .     S
Cu93   O113    1.959   .     S
Cu93   O117    1.962   .     S
Cu93   N112    2.020   .     S
Cu93   O116    1.953   .     S
Cu94   O115    1.953   .     S
Cu94   O119    1.958   .     S
Cu94   O114    1.959   .     S
Cu94   O118    1.962   .     S
Cu94   N111    2.020   .     S
H95    C143    1.087   .     S
C121   O122    1.220   .     D
C121   O123    1.398   .     S
O123   H124    1.014   .     S
C125   O126    1.218   .     D
C125   O127    1.399   .     S
O127   H128    1.014   .     S
C129   C149    1.463   .     S
C129   O179    1.296   .     A
C129   O177    1.300   .     A
C130   C150    1.457   .     S
C130   O180    1.295   .     A
C130   O178    1.298   .     A
C131   C133    1.407   .     A
C131   C139    1.396   .     A
C131   H169    1.083   .     S
C132   C140    1.394   .     A
C132   H170    1.083   .     S
C132   C134    1.407   .     A
C133   C185    1.472   .     S
C133   N175    1.384   .     A
C134   N176    1.388   .     A
C134   C189    1.479   .     S
C135   H171    1.081   .     S
C135   N175    1.366   .     A
C135   C137    1.413   .     A
C136   N176    1.368   .     A
C136   C138    1.415   .     A
C136   H172    1.081   .     S
C137   H173    1.082   .     S
C137   C139    1.414   .     A
C138   H174    1.082   .     S
C138   C140    1.413   .     A
C139   C524    1.517   1_554 S
C140   C523    1.517   .     S
C141   O181    1.293   .     A
C141   C143    1.432   .     S
C141   O183    1.288   .     A
C142   O184    1.289   .     A
C142   O182    1.291   .     A
C142   C144    1.431   .     S
C144   C15     1.330   1_655 S
C144   H32     1.084   1_655 S
C145   H161    1.083   .     S
C145   C155    1.404   .     A
C145   C147    1.391   .     A
C146   C156    1.405   .     A
C146   H162    1.083   .     S
C146   C148    1.391   .     A
C147   H163    1.082   .     S
C147   C149    1.402   .     A
C148   C150    1.400   .     A
C148   H164    1.083   .     S
C149   C151    1.403   .     A
C150   C152    1.401   .     A
C151   H165    1.083   .     S
C151   C153    1.389   .     A
C152   H166    1.083   .     S
C152   C154    1.389   .     A
C153   H167    1.083   .     S
C153   C155    1.402   .     A
C154   H168    1.083   .     S
C154   C156    1.403   .     A
C155   C348    1.470   1_545 S
C156   C347    1.470   .     S
Cu157  Cu158   2.689   .     S
Cu157  O184    1.958   .     S
Cu157  O177    1.959   .     S
Cu157  O181    1.962   .     S
Cu157  N176    2.020   .     S
Cu157  O180    1.953   .     S
Cu158  O179    1.953   .     S
Cu158  O183    1.958   .     S
Cu158  O178    1.959   .     S
Cu158  O182    1.962   .     S
Cu158  N175    2.020   .     S
H159   C15     1.087   1_655 S
C185   O186    1.220   .     D
C185   O187    1.398   .     S
O187   H188    1.014   .     S
C189   O190    1.218   .     D
C189   O191    1.399   .     S
O191   H192    1.014   .     S
C193   C213    1.463   .     S
C193   O243    1.296   .     A
C193   O241    1.300   .     A
C194   C214    1.457   .     S
C194   O244    1.295   .     A
C194   O242    1.298   .     A
C195   C197    1.407   .     A
C195   C203    1.396   .     A
C195   H233    1.083   .     S
C196   C204    1.394   .     A
C196   H234    1.083   .     S
C196   C198    1.407   .     A
C197   C249    1.472   .     S
C197   N239    1.384   .     A
C198   N240    1.388   .     A
C198   C253    1.479   .     S
C199   H235    1.081   .     S
C199   N239    1.366   .     A
C199   C201    1.413   .     A
C200   N240    1.368   .     A
C200   C202    1.415   .     A
C200   H236    1.081   .     S
C201   H237    1.082   .     S
C201   C203    1.414   .     A
C202   H238    1.082   .     S
C202   C204    1.413   .     A
C203   C588    1.517   1_554 S
C204   C587    1.517   .     S
C205   O245    1.293   .     A
C205   C207    1.432   .     S
C205   O247    1.288   .     A
C206   O248    1.289   .     A
C206   O246    1.291   .     A
C206   C208    1.431   .     S
C207   C336    1.330   1_455 S
C207   H351    1.087   1_455 S
C208   C271    1.330   .     S
C208   H288    1.084   .     S
C209   H225    1.083   .     S
C209   C219    1.404   .     A
C209   C211    1.391   .     A
C210   C220    1.405   .     A
C210   H226    1.083   .     S
C210   C212    1.391   .     A
C211   H227    1.082   .     S
C211   C213    1.402   .     A
C212   C214    1.400   .     A
C212   H228    1.083   .     S
C213   C215    1.403   .     A
C214   C216    1.401   .     A
C215   H229    1.083   .     S
C215   C217    1.389   .     A
C216   H230    1.083   .     S
C216   C218    1.389   .     A
C217   H231    1.083   .     S
C217   C219    1.402   .     A
C218   H232    1.083   .     S
C218   C220    1.403   .     A
C220   C27     1.470   1_565 S
Cu221  Cu222   2.689   .     S
Cu221  O248    1.958   .     S
Cu221  O241    1.959   .     S
Cu221  O245    1.962   .     S
Cu221  N240    2.020   .     S
Cu221  O244    1.953   .     S
Cu222  O243    1.953   .     S
Cu222  O247    1.958   .     S
Cu222  O242    1.959   .     S
Cu222  O246    1.962   .     S
Cu222  N239    2.020   .     S
H223   C271    1.087   .     S
H224   C336    1.084   1_455 S
C249   O250    1.220   .     D
C249   O251    1.398   .     S
O251   H252    1.014   .     S
C253   O254    1.218   .     D
C253   O255    1.399   .     S
O255   H256    1.014   .     S
C257   C277    1.463   .     S
C257   O307    1.296   .     A
C257   O305    1.300   .     A
C258   C278    1.457   .     S
C258   O308    1.295   .     A
C258   O306    1.298   .     A
C259   C261    1.407   .     A
C259   C267    1.396   .     A
C259   H297    1.083   .     S
C260   C268    1.394   .     A
C260   H298    1.083   .     S
C260   C262    1.407   .     A
C261   C313    1.472   .     S
C261   N303    1.384   .     A
C262   N304    1.388   .     A
C262   C317    1.479   .     S
C263   H299    1.081   .     S
C263   N303    1.366   .     A
C263   C265    1.413   .     A
C264   N304    1.368   .     A
C264   C266    1.415   .     A
C264   H300    1.081   .     S
C265   H301    1.082   .     S
C265   C267    1.414   .     A
C266   H302    1.082   .     S
C266   C268    1.413   .     A
C267   C652    1.517   1_554 S
C268   C651    1.517   .     S
C269   O309    1.293   .     A
C269   C271    1.432   .     S
C269   O311    1.288   .     A
C270   O312    1.289   .     A
C270   O310    1.291   .     A
C270   C272    1.431   .     S
C272   C335    1.330   .     S
C272   H352    1.084   .     S
C273   H289    1.083   .     S
C273   C283    1.404   .     A
C273   C275    1.391   .     A
C274   C284    1.405   .     A
C274   H290    1.083   .     S
C274   C276    1.391   .     A
C275   H291    1.082   .     S
C275   C277    1.402   .     A
C276   C278    1.400   .     A
C276   H292    1.083   .     S
C277   C279    1.403   .     A
C278   C280    1.401   .     A
C279   H293    1.083   .     S
C279   C281    1.389   .     A
C280   H294    1.083   .     S
C280   C282    1.389   .     A
C281   H295    1.083   .     S
C281   C283    1.402   .     A
C282   H296    1.083   .     S
C282   C284    1.403   .     A
C284   C91     1.470   1_565 S
Cu285  Cu286   2.689   .     S
Cu285  O312    1.958   .     S
Cu285  O305    1.959   .     S
Cu285  O309    1.962   .     S
Cu285  N304    2.020   .     S
Cu285  O308    1.953   .     S
Cu286  O307    1.953   .     S
Cu286  O311    1.958   .     S
Cu286  O306    1.959   .     S
Cu286  O310    1.962   .     S
Cu286  N303    2.020   .     S
H287   C335    1.087   .     S
C313   O314    1.220   .     D
C313   O315    1.398   .     S
O315   H316    1.014   .     S
C317   O318    1.218   .     D
C317   O319    1.399   .     S
O319   H320    1.014   .     S
C321   C341    1.463   .     S
C321   O371    1.296   .     A
C321   O369    1.300   .     A
C322   C342    1.457   .     S
C322   O372    1.295   .     A
C322   O370    1.298   .     A
C323   C325    1.407   .     A
C323   C331    1.396   .     A
C323   H361    1.083   .     S
C324   C332    1.394   .     A
C324   H362    1.083   .     S
C324   C326    1.407   .     A
C325   C377    1.472   .     S
C325   N367    1.384   .     A
C326   N368    1.388   .     A
C326   C381    1.479   .     S
C327   H363    1.081   .     S
C327   N367    1.366   .     A
C327   C329    1.413   .     A
C328   N368    1.368   .     A
C328   C330    1.415   .     A
C328   H364    1.081   .     S
C329   H365    1.082   .     S
C329   C331    1.414   .     A
C330   H366    1.082   .     S
C330   C332    1.413   .     A
C331   C716    1.517   1_554 S
C332   C715    1.517   .     S
C333   O373    1.293   .     A
C333   C335    1.432   .     S
C333   O375    1.288   .     A
C334   O376    1.289   .     A
C334   O374    1.291   .     A
C334   C336    1.431   .     S
C336   C207    1.330   1_655 S
C336   H224    1.084   1_655 S
C337   H353    1.083   .     S
C337   C347    1.404   .     A
C337   C339    1.391   .     A
C338   C348    1.405   .     A
C338   H354    1.083   .     S
C338   C340    1.391   .     A
C339   H355    1.082   .     S
C339   C341    1.402   .     A
C340   C342    1.400   .     A
C340   H356    1.083   .     S
C341   C343    1.403   .     A
C342   C344    1.401   .     A
C343   H357    1.083   .     S
C343   C345    1.389   .     A
C344   H358    1.083   .     S
C344   C346    1.389   .     A
C345   H359    1.083   .     S
C345   C347    1.402   .     A
C346   H360    1.083   .     S
C346   C348    1.403   .     A
C348   C155    1.470   1_565 S
Cu349  Cu350   2.689   .     S
Cu349  O376    1.958   .     S
Cu349  O369    1.959   .     S
Cu349  O373    1.962   .     S
Cu349  N368    2.020   .     S
Cu349  O372    1.953   .     S
Cu350  O371    1.953   .     S
Cu350  O375    1.958   .     S
Cu350  O370    1.959   .     S
Cu350  O374    1.962   .     S
Cu350  N367    2.020   .     S
H351   C207    1.087   1_655 S
C377   O378    1.220   .     D
C377   O379    1.398   .     S
O379   H380    1.014   .     S
C381   O382    1.218   .     D
C381   O383    1.399   .     S
O383   H384    1.014   .     S
C385   C405    1.463   .     S
C385   O435    1.296   .     A
C385   O433    1.300   .     A
C386   C406    1.457   .     S
C386   O436    1.295   .     A
C386   O434    1.298   .     A
C387   C389    1.407   .     A
C387   C395    1.396   .     A
C387   H425    1.083   .     S
C388   C396    1.394   .     A
C388   H426    1.083   .     S
C388   C390    1.407   .     A
C389   C441    1.472   .     S
C389   N431    1.384   .     A
C390   N432    1.388   .     A
C390   C445    1.479   .     S
C391   H427    1.081   .     S
C391   N431    1.366   .     A
C391   C393    1.413   .     A
C392   N432    1.368   .     A
C392   C394    1.415   .     A
C392   H428    1.081   .     S
C393   H429    1.082   .     S
C393   C395    1.414   .     A
C394   H430    1.082   .     S
C394   C396    1.413   .     A
C396   C11     1.517   1_556 S
C397   O437    1.293   .     A
C397   C399    1.432   .     S
C397   O439    1.288   .     A
C398   O440    1.289   .     A
C398   O438    1.291   .     A
C398   C400    1.431   .     S
C399   C528    1.330   1_455 S
C399   H543    1.087   1_455 S
C400   C463    1.330   .     S
C400   H480    1.084   .     S
C401   H417    1.083   .     S
C401   C411    1.404   .     A
C401   C403    1.391   .     A
C402   C412    1.405   .     A
C402   H418    1.083   .     S
C402   C404    1.391   .     A
C403   H419    1.082   .     S
C403   C405    1.402   .     A
C404   C406    1.400   .     A
C404   H420    1.083   .     S
C405   C407    1.403   .     A
C406   C408    1.401   .     A
C407   H421    1.083   .     S
C407   C409    1.389   .     A
C408   H422    1.083   .     S
C408   C410    1.389   .     A
C409   H423    1.083   .     S
C409   C411    1.402   .     A
C410   H424    1.083   .     S
C410   C412    1.403   .     A
C411   C604    1.470   1_545 S
C412   C603    1.470   .     S
Cu413  Cu414   2.689   .     S
Cu413  O440    1.958   .     S
Cu413  O433    1.959   .     S
Cu413  O437    1.962   .     S
Cu413  N432    2.020   .     S
Cu413  O436    1.953   .     S
Cu414  O435    1.953   .     S
Cu414  O439    1.958   .     S
Cu414  O434    1.959   .     S
Cu414  O438    1.962   .     S
Cu414  N431    2.020   .     S
H415   C463    1.087   .     S
H416   C528    1.084   1_455 S
C441   O442    1.220   .     D
C441   O443    1.398   .     S
O443   H444    1.014   .     S
C445   O446    1.218   .     D
C445   O447    1.399   .     S
O447   H448    1.014   .     S
C449   C469    1.463   .     S
C449   O499    1.296   .     A
C449   O497    1.300   .     A
C450   C470    1.457   .     S
C450   O500    1.295   .     A
C450   O498    1.298   .     A
C451   C453    1.407   .     A
C451   C459    1.396   .     A
C451   H489    1.083   .     S
C452   C460    1.394   .     A
C452   H490    1.083   .     S
C452   C454    1.407   .     A
C453   C505    1.472   .     S
C453   N495    1.384   .     A
C454   N496    1.388   .     A
C454   C509    1.479   .     S
C455   H491    1.081   .     S
C455   N495    1.366   .     A
C455   C457    1.413   .     A
C456   N496    1.368   .     A
C456   C458    1.415   .     A
C456   H492    1.081   .     S
C457   H493    1.082   .     S
C457   C459    1.414   .     A
C458   H494    1.082   .     S
C458   C460    1.413   .     A
C460   C75     1.517   1_556 S
C461   O501    1.293   .     A
C461   C463    1.432   .     S
C461   O503    1.288   .     A
C462   O504    1.289   .     A
C462   O502    1.291   .     A
C462   C464    1.431   .     S
C464   C527    1.330   .     S
C464   H544    1.084   .     S
C465   H481    1.083   .     S
C465   C475    1.404   .     A
C465   C467    1.391   .     A
C466   C476    1.405   .     A
C466   H482    1.083   .     S
C466   C468    1.391   .     A
C467   H483    1.082   .     S
C467   C469    1.402   .     A
C468   C470    1.400   .     A
C468   H484    1.083   .     S
C469   C471    1.403   .     A
C470   C472    1.401   .     A
C471   H485    1.083   .     S
C471   C473    1.389   .     A
C472   H486    1.083   .     S
C472   C474    1.389   .     A
C473   H487    1.083   .     S
C473   C475    1.402   .     A
C474   H488    1.083   .     S
C474   C476    1.403   .     A
C475   C668    1.470   1_545 S
C476   C667    1.470   .     S
Cu477  Cu478   2.689   .     S
Cu477  O504    1.958   .     S
Cu477  O497    1.959   .     S
Cu477  O501    1.962   .     S
Cu477  N496    2.020   .     S
Cu477  O500    1.953   .     S
Cu478  O499    1.953   .     S
Cu478  O503    1.958   .     S
Cu478  O498    1.959   .     S
Cu478  O502    1.962   .     S
Cu478  N495    2.020   .     S
H479   C527    1.087   .     S
C505   O506    1.220   .     D
C505   O507    1.398   .     S
O507   H508    1.014   .     S
C509   O510    1.218   .     D
C509   O511    1.399   .     S
O511   H512    1.014   .     S
C513   C533    1.463   .     S
C513   O563    1.296   .     A
C513   O561    1.300   .     A
C514   C534    1.457   .     S
C514   O564    1.295   .     A
C514   O562    1.298   .     A
C515   C517    1.407   .     A
C515   C523    1.396   .     A
C515   H553    1.083   .     S
C516   C524    1.394   .     A
C516   H554    1.083   .     S
C516   C518    1.407   .     A
C517   C569    1.472   .     S
C517   N559    1.384   .     A
C518   N560    1.388   .     A
C518   C573    1.479   .     S
C519   H555    1.081   .     S
C519   N559    1.366   .     A
C519   C521    1.413   .     A
C520   N560    1.368   .     A
C520   C522    1.415   .     A
C520   H556    1.081   .     S
C521   H557    1.082   .     S
C521   C523    1.414   .     A
C522   H558    1.082   .     S
C522   C524    1.413   .     A
C524   C139    1.517   1_556 S
C525   O565    1.293   .     A
C525   C527    1.432   .     S
C525   O567    1.288   .     A
C526   O568    1.289   .     A
C526   O566    1.291   .     A
C526   C528    1.431   .     S
C528   C399    1.330   1_655 S
C528   H416    1.084   1_655 S
C529   H545    1.083   .     S
C529   C539    1.404   .     A
C529   C531    1.391   .     A
C530   C540    1.405   .     A
C530   H546    1.083   .     S
C530   C532    1.391   .     A
C531   H547    1.082   .     S
C531   C533    1.402   .     A
C532   C534    1.400   .     A
C532   H548    1.083   .     S
C533   C535    1.403   .     A
C534   C536    1.401   .     A
C535   H549    1.083   .     S
C535   C537    1.389   .     A
C536   H550    1.083   .     S
C536   C538    1.389   .     A
C537   H551    1.083   .     S
C537   C539    1.402   .     A
C538   H552    1.083   .     S
C538   C540    1.403   .     A
C539   C732    1.470   1_545 S
C540   C731    1.470   .     S
Cu541  Cu542   2.689   .     S
Cu541  O568    1.958   .     S
Cu541  O561    1.959   .     S
Cu541  O565    1.962   .     S
Cu541  N560    2.020   .     S
Cu541  O564    1.953   .     S
Cu542  O563    1.953   .     S
Cu542  O567    1.958   .     S
Cu542  O562    1.959   .     S
Cu542  O566    1.962   .     S
Cu542  N559    2.020   .     S
H543   C399    1.087   1_655 S
C569   O570    1.220   .     D
C569   O571    1.398   .     S
O571   H572    1.014   .     S
C573   O574    1.218   .     D
C573   O575    1.399   .     S
O575   H576    1.014   .     S
C577   C597    1.463   .     S
C577   O627    1.296   .     A
C577   O625    1.300   .     A
C578   C598    1.457   .     S
C578   O628    1.295   .     A
C578   O626    1.298   .     A
C579   C581    1.407   .     A
C579   C587    1.396   .     A
C579   H617    1.083   .     S
C580   C588    1.394   .     A
C580   H618    1.083   .     S
C580   C582    1.407   .     A
C581   C633    1.472   .     S
C581   N623    1.384   .     A
C582   N624    1.388   .     A
C582   C637    1.479   .     S
C583   H619    1.081   .     S
C583   N623    1.366   .     A
C583   C585    1.413   .     A
C584   N624    1.368   .     A
C584   C586    1.415   .     A
C584   H620    1.081   .     S
C585   H621    1.082   .     S
C585   C587    1.414   .     A
C586   H622    1.082   .     S
C586   C588    1.413   .     A
C588   C203    1.517   1_556 S
C589   O629    1.293   .     A
C589   C591    1.432   .     S
C589   O631    1.288   .     A
C590   O632    1.289   .     A
C590   O630    1.291   .     A
C590   C592    1.431   .     S
C591   C720    1.330   1_455 S
C591   H735    1.087   1_455 S
C592   C655    1.330   .     S
C592   H672    1.084   .     S
C593   H609    1.083   .     S
C593   C603    1.404   .     A
C593   C595    1.391   .     A
C594   C604    1.405   .     A
C594   H610    1.083   .     S
C594   C596    1.391   .     A
C595   H611    1.082   .     S
C595   C597    1.402   .     A
C596   C598    1.400   .     A
C596   H612    1.083   .     S
C597   C599    1.403   .     A
C598   C600    1.401   .     A
C599   H613    1.083   .     S
C599   C601    1.389   .     A
C600   H614    1.083   .     S
C600   C602    1.389   .     A
C601   H615    1.083   .     S
C601   C603    1.402   .     A
C602   H616    1.083   .     S
C602   C604    1.403   .     A
C604   C411    1.470   1_565 S
Cu605  Cu606   2.689   .     S
Cu605  O632    1.958   .     S
Cu605  O625    1.959   .     S
Cu605  O629    1.962   .     S
Cu605  N624    2.020   .     S
Cu605  O628    1.953   .     S
Cu606  O627    1.953   .     S
Cu606  O631    1.958   .     S
Cu606  O626    1.959   .     S
Cu606  O630    1.962   .     S
Cu606  N623    2.020   .     S
H607   C655    1.087   .     S
H608   C720    1.084   1_455 S
C633   O634    1.220   .     D
C633   O635    1.398   .     S
O635   H636    1.014   .     S
C637   O638    1.218   .     D
C637   O639    1.399   .     S
O639   H640    1.014   .     S
C641   C661    1.463   .     S
C641   O691    1.296   .     A
C641   O689    1.300   .     A
C642   C662    1.457   .     S
C642   O692    1.295   .     A
C642   O690    1.298   .     A
C643   C645    1.407   .     A
C643   C651    1.396   .     A
C643   H681    1.083   .     S
C644   C652    1.394   .     A
C644   H682    1.083   .     S
C644   C646    1.407   .     A
C645   C697    1.472   .     S
C645   N687    1.384   .     A
C646   N688    1.388   .     A
C646   C701    1.479   .     S
C647   H683    1.081   .     S
C647   N687    1.366   .     A
C647   C649    1.413   .     A
C648   N688    1.368   .     A
C648   C650    1.415   .     A
C648   H684    1.081   .     S
C649   H685    1.082   .     S
C649   C651    1.414   .     A
C650   H686    1.082   .     S
C650   C652    1.413   .     A
C652   C267    1.517   1_556 S
C653   O693    1.293   .     A
C653   C655    1.432   .     S
C653   O695    1.288   .     A
C654   O696    1.289   .     A
C654   O694    1.291   .     A
C654   C656    1.431   .     S
C656   C719    1.330   .     S
C656   H736    1.084   .     S
C657   H673    1.083   .     S
C657   C667    1.404   .     A
C657   C659    1.391   .     A
C658   C668    1.405   .     A
C658   H674    1.083   .     S
C658   C660    1.391   .     A
C659   H675    1.082   .     S
C659   C661    1.402   .     A
C660   C662    1.400   .     A
C660   H676    1.083   .     S
C661   C663    1.403   .     A
C662   C664    1.401   .     A
C663   H677    1.083   .     S
C663   C665    1.389   .     A
C664   H678    1.083   .     S
C664   C666    1.389   .     A
C665   H679    1.083   .     S
C665   C667    1.402   .     A
C666   H680    1.083   .     S
C666   C668    1.403   .     A
C668   C475    1.470   1_565 S
Cu669  Cu670   2.689   .     S
Cu669  O696    1.958   .     S
Cu669  O689    1.959   .     S
Cu669  O693    1.962   .     S
Cu669  N688    2.020   .     S
Cu669  O692    1.953   .     S
Cu670  O691    1.953   .     S
Cu670  O695    1.958   .     S
Cu670  O690    1.959   .     S
Cu670  O694    1.962   .     S
Cu670  N687    2.020   .     S
H671   C719    1.087   .     S
C697   O698    1.220   .     D
C697   O699    1.398   .     S
O699   H700    1.014   .     S
C701   O702    1.218   .     D
C701   O703    1.399   .     S
O703   H704    1.014   .     S
C705   C725    1.463   .     S
C705   O755    1.296   .     A
C705   O753    1.300   .     A
C706   C726    1.457   .     S
C706   O756    1.295   .     A
C706   O754    1.298   .     A
C707   C709    1.407   .     A
C707   C715    1.396   .     A
C707   H745    1.083   .     S
C708   C716    1.394   .     A
C708   H746    1.083   .     S
C708   C710    1.407   .     A
C709   C761    1.472   .     S
C709   N751    1.384   .     A
C710   N752    1.388   .     A
C710   C765    1.479   .     S
C711   H747    1.081   .     S
C711   N751    1.366   .     A
C711   C713    1.413   .     A
C712   N752    1.368   .     A
C712   C714    1.415   .     A
C712   H748    1.081   .     S
C713   H749    1.082   .     S
C713   C715    1.414   .     A
C714   H750    1.082   .     S
C714   C716    1.413   .     A
C716   C331    1.517   1_556 S
C717   O757    1.293   .     A
C717   C719    1.432   .     S
C717   O759    1.288   .     A
C718   O760    1.289   .     A
C718   O758    1.291   .     A
C718   C720    1.431   .     S
C720   C591    1.330   1_655 S
C720   H608    1.084   1_655 S
C721   H737    1.083   .     S
C721   C731    1.404   .     A
C721   C723    1.391   .     A
C722   C732    1.405   .     A
C722   H738    1.083   .     S
C722   C724    1.391   .     A
C723   H739    1.082   .     S
C723   C725    1.402   .     A
C724   C726    1.400   .     A
C724   H740    1.083   .     S
C725   C727    1.403   .     A
C726   C728    1.401   .     A
C727   H741    1.083   .     S
C727   C729    1.389   .     A
C728   H742    1.083   .     S
C728   C730    1.389   .     A
C729   H743    1.083   .     S
C729   C731    1.402   .     A
C730   H744    1.083   .     S
C730   C732    1.403   .     A
C732   C539    1.470   1_565 S
Cu733  Cu734   2.689   .     S
Cu733  O760    1.958   .     S
Cu733  O753    1.959   .     S
Cu733  O757    1.962   .     S
Cu733  N752    2.020   .     S
Cu733  O756    1.953   .     S
Cu734  O755    1.953   .     S
Cu734  O759    1.958   .     S
Cu734  O754    1.959   .     S
Cu734  O758    1.962   .     S
Cu734  N751    2.020   .     S
H735   C591    1.087   1_655 S
C761   O762    1.220   .     D
C761   O763    1.398   .     S
O763   H764    1.014   .     S
C765   O766    1.218   .     D
C765   O767    1.399   .     S
O767   H768    1.014   .     S
