data_str_m2_o2_o10_pcu_sym.124
_audit_creation_date              2020-01-03
_audit_creation_method            'Materials Studio'
_symmetry_space_group_name_H-M    'P1'
_symmetry_Int_Tables_number       1
_symmetry_cell_setting            triclinic
loop_
_symmetry_equiv_pos_as_xyz
  x,y,z
_cell_length_a                    26.4433
_cell_length_b                    30.5734
_cell_length_c                    27.9321
_cell_angle_alpha                 87.8300
_cell_angle_beta                  96.2998
_cell_angle_gamma                 90.9402
loop_
_atom_site_label
_atom_site_type_symbol
_atom_site_fract_x
_atom_site_fract_y
_atom_site_fract_z
_atom_site_U_iso_or_equiv
_atom_site_adp_type
_atom_site_occupancy
C1     C     0.16456   0.16520   0.25062   0.00000  Uiso   1.00
C2     C     0.20437   0.27264   0.44890   0.00000  Uiso   1.00
C3     C     0.16370   0.25125   0.02682   0.00000  Uiso   1.00
C4     C     0.16514   0.25191   0.47253   0.00000  Uiso   1.00
C5     C     0.06821   0.24882   0.23815   0.00000  Uiso   1.00
C6     C     0.26520   0.25108   0.26197   0.00000  Uiso   1.00
C7     C     0.01350   0.24547   0.23225   0.00000  Uiso   1.00
C8     C     0.32012   0.25319   0.26856   0.00000  Uiso   1.00
C9     C     0.20370   0.04811   0.27598   0.00000  Uiso   1.00
C10    C     0.14140   0.45383   0.20891   0.00000  Uiso   1.00
C11    C     0.19980   0.09283   0.28215   0.00000  Uiso   1.00
C12    C     0.16675   0.33505   0.24918   0.00000  Uiso   1.00
C13    C     0.13927   0.40806   0.20934   0.00000  Uiso   1.00
C14    C     0.16289   0.11711   0.25196   0.00000  Uiso   1.00
C15    C     0.16747   0.38354   0.24756   0.00000  Uiso   1.00
C16    C     0.12472   0.09447   0.22251   0.00000  Uiso   1.00
C17    C     0.19590   0.40661   0.28508   0.00000  Uiso   1.00
C18    C     0.12583   0.04873   0.22230   0.00000  Uiso   1.00
C19    C     0.19289   0.45212   0.28534   0.00000  Uiso   1.00
C20    C     0.16601   0.02509   0.24759   0.00000  Uiso   1.00
C21    C     0.16693   0.47639   0.24711   0.00000  Uiso   1.00
C22    C     0.22944   0.11127   0.32640   0.00000  Uiso   1.00
C23    C     0.19069   0.28266   0.05420   0.00000  Uiso   1.00
C24    C     0.27252   0.14247   0.31536   0.00000  Uiso   1.00
C25    C     0.28811   0.17040   0.35880   0.00000  Uiso   1.00
C26    C     0.10442   0.38804   0.16897   0.00000  Uiso   1.00
C27    C     0.12584   0.39548   0.12032   0.00000  Uiso   1.00
C28    C     0.09918   0.36690   0.08139   0.00000  Uiso   1.00
C29    C     0.07939   0.11682   0.19420   0.00000  Uiso   1.00
C30    C     0.03279   0.11458   0.22244   0.00000  Uiso   1.00
C31    C     0.31802   0.12825   0.19043   0.00000  Uiso   1.00
C32    C     0.23280   0.38557   0.32451   0.00000  Uiso   1.00
C33    C     0.21186   0.38579   0.37376   0.00000  Uiso   1.00
C34    C     0.12763   0.23015   0.44338   0.00000  Uiso   1.00
C35    C     0.25423   0.37966   0.41517   0.00000  Uiso   1.00
C36    C     0.23534   0.31013   0.12897   0.00000  Uiso   1.00
C37    C     0.28825   0.29701   0.11742   0.00000  Uiso   1.00
C38    C     0.32963   0.32444   0.14449   0.00000  Uiso   1.00
C39    C     0.09656   0.19117   0.37039   0.00000  Uiso   1.00
C40    C     0.10866   0.14566   0.39430   0.00000  Uiso   1.00
C41    C     0.08685   0.10846   0.36313   0.00000  Uiso   1.00
C42    C     0.19515   0.28017   0.10487   0.00000  Uiso   1.00
C43    C     0.13102   0.22597   0.39386   0.00000  Uiso   1.00
C44    C     0.13745   0.22024   0.10312   0.00000  Uiso   1.00
C45    C     0.20365   0.27211   0.39821   0.00000  Uiso   1.00
C46    C     0.13670   0.21937   0.05246   0.00000  Uiso   1.00
Cu47   Cu    0.16667   0.25000   0.29821   0.00000  Uiso   1.00
Cu48   Cu    0.16667   0.25001   0.20178   0.00000  Uiso   1.00
H49    H     0.32826   0.23656   0.19754   0.00000  Uiso   1.00
H50    H     0.23369   0.28848   0.38103   0.00000  Uiso   1.00
H51    H     0.11529   0.19336   0.03417   0.00000  Uiso   1.00
H52    H     0.23610   0.28881   0.46897   0.00000  Uiso   1.00
H53    H     0.25443   0.18517   0.37213   0.00000  Uiso   1.00
H54    H     0.30880   0.15046   0.38851   0.00000  Uiso   1.00
H55    H     0.31250   0.19763   0.34783   0.00000  Uiso   1.00
H56    H     0.30539   0.12336   0.30674   0.00000  Uiso   1.00
H57    H     0.26102   0.16411   0.28361   0.00000  Uiso   1.00
H58    H     0.20213   0.12754   0.34685   0.00000  Uiso   1.00
H59    H     0.24605   0.08466   0.35127   0.00000  Uiso   1.00
H60    H     0.00547   0.26150   0.30373   0.00000  Uiso   1.00
H61    H     0.10302   0.33174   0.09237   0.00000  Uiso   1.00
H62    H     0.05828   0.37524   0.07453   0.00000  Uiso   1.00
H63    H     0.11688   0.37260   0.04740   0.00000  Uiso   1.00
H64    H     0.12139   0.43033   0.10801   0.00000  Uiso   1.00
H65    H     0.16697   0.38844   0.12463   0.00000  Uiso   1.00
H66    H     0.09687   0.35304   0.17620   0.00000  Uiso   1.00
H67    H     0.06660   0.40379   0.16691   0.00000  Uiso   1.00
H68    H     0.30982   0.10522   0.16066   0.00000  Uiso   1.00
H69    H     0.28510   0.12763   0.21190   0.00000  Uiso   1.00
H70    H     0.32263   0.16180   0.17484   0.00000  Uiso   1.00
H71    H     0.23573   0.03141   0.29544   0.00000  Uiso   1.00
H72    H     0.02697   0.08073   0.23700   0.00000  Uiso   1.00
H73    H     0.03915   0.13679   0.25319   0.00000  Uiso   1.00
H74    H     0.08712   0.15151   0.18485   0.00000  Uiso   1.00
H75    H     0.07056   0.10049   0.15928   0.00000  Uiso   1.00
H76    H     0.27709   0.35036   0.41036   0.00000  Uiso   1.00
H77    H     0.27987   0.40883   0.41687   0.00000  Uiso   1.00
H78    H     0.23741   0.37572   0.44983   0.00000  Uiso   1.00
H79    H     0.19295   0.41725   0.37860   0.00000  Uiso   1.00
H80    H     0.18277   0.35941   0.37580   0.00000  Uiso   1.00
H81    H     0.24351   0.35199   0.31640   0.00000  Uiso   1.00
H82    H     0.12197   0.47169   0.17837   0.00000  Uiso   1.00
H83    H     0.26913   0.40466   0.32621   0.00000  Uiso   1.00
H84    H     0.32587   0.32368   0.18368   0.00000  Uiso   1.00
H85    H     0.32726   0.35891   0.13057   0.00000  Uiso   1.00
H86    H     0.03368   0.31088   0.13885   0.00000  Uiso   1.00
H87    H     0.29437   0.26179   0.12670   0.00000  Uiso   1.00
H88    H     0.29159   0.30185   0.07825   0.00000  Uiso   1.00
H89    H     0.22852   0.34412   0.11493   0.00000  Uiso   1.00
H90    H     0.23547   0.31074   0.16794   0.00000  Uiso   1.00
H91    H     0.04479   0.10943   0.35882   0.00000  Uiso   1.00
H92    H     0.10089   0.11083   0.32717   0.00000  Uiso   1.00
H93    H     0.09426   0.03191   0.20268   0.00000  Uiso   1.00
H94    H     0.09880   0.07657   0.38076   0.00000  Uiso   1.00
H95    H     0.15041   0.14163   0.40189   0.00000  Uiso   1.00
H96    H     0.09257   0.14261   0.42941   0.00000  Uiso   1.00
H97    H     0.05726   0.19953   0.37559   0.00000  Uiso   1.00
H98    H     0.09780   0.18956   0.33170   0.00000  Uiso   1.00
H99    H     0.21178   0.46823   0.31621   0.00000  Uiso   1.00
H100   H     0.21026   0.30891   0.03648   0.00000  Uiso   1.00
H101   H     0.09628   0.21423   0.45912   0.00000  Uiso   1.00
H102   H     0.11528   0.19624   0.12138   0.00000  Uiso   1.00
N103   N     0.16667   0.25001   0.12934   0.00000  Uiso   1.00
N104   N     0.16667   0.24999   0.37065   0.00000  Uiso   1.00
O105   O     0.16667   0.18573   0.29071   0.00000  Uiso   1.00
O106   O     0.16666   0.31428   0.20928   0.00000  Uiso   1.00
O107   O     0.16667   0.18573   0.20928   0.00000  Uiso   1.00
O108   O     0.16666   0.31427   0.29072   0.00000  Uiso   1.00
O109   O     0.09161   0.25000   0.28132   0.00000  Uiso   1.00
O110   O     0.24172   0.25001   0.21868   0.00000  Uiso   1.00
O111   O     0.09161   0.25000   0.19988   0.00000  Uiso   1.00
O112   O     0.24172   0.25000   0.30011   0.00000  Uiso   1.00
C113   C     0.49789   0.16520   0.25062   0.00000  Uiso   1.00
C114   C     0.53771   0.27264   0.44890   0.00000  Uiso   1.00
C115   C     0.49704   0.25125   0.02682   0.00000  Uiso   1.00
C116   C     0.49847   0.25191   0.47253   0.00000  Uiso   1.00
C117   C     0.40154   0.24882   0.23815   0.00000  Uiso   1.00
C118   C     0.59854   0.25108   0.26197   0.00000  Uiso   1.00
C119   C     0.34683   0.24547   0.23225   0.00000  Uiso   1.00
C120   C     0.65345   0.25319   0.26856   0.00000  Uiso   1.00
C121   C     0.53703   0.04811   0.27598   0.00000  Uiso   1.00
C122   C     0.47474   0.45383   0.20891   0.00000  Uiso   1.00
C123   C     0.53314   0.09283   0.28215   0.00000  Uiso   1.00
C124   C     0.50008   0.33505   0.24918   0.00000  Uiso   1.00
C125   C     0.47261   0.40806   0.20934   0.00000  Uiso   1.00
C126   C     0.49622   0.11711   0.25196   0.00000  Uiso   1.00
C127   C     0.50080   0.38354   0.24756   0.00000  Uiso   1.00
C128   C     0.45805   0.09447   0.22251   0.00000  Uiso   1.00
C129   C     0.52923   0.40661   0.28508   0.00000  Uiso   1.00
C130   C     0.45917   0.04873   0.22230   0.00000  Uiso   1.00
C131   C     0.52622   0.45212   0.28534   0.00000  Uiso   1.00
C132   C     0.49934   0.02509   0.24759   0.00000  Uiso   1.00
C133   C     0.50026   0.47639   0.24711   0.00000  Uiso   1.00
C134   C     0.56277   0.11127   0.32640   0.00000  Uiso   1.00
C135   C     0.52402   0.28266   0.05420   0.00000  Uiso   1.00
C136   C     0.60586   0.14247   0.31536   0.00000  Uiso   1.00
C137   C     0.62144   0.17040   0.35880   0.00000  Uiso   1.00
C138   C     0.43775   0.38804   0.16897   0.00000  Uiso   1.00
C139   C     0.45918   0.39548   0.12032   0.00000  Uiso   1.00
C140   C     0.43252   0.36690   0.08139   0.00000  Uiso   1.00
C141   C     0.41272   0.11682   0.19420   0.00000  Uiso   1.00
C142   C     0.36612   0.11458   0.22244   0.00000  Uiso   1.00
C143   C     0.65135   0.12825   0.19043   0.00000  Uiso   1.00
C144   C     0.56614   0.38557   0.32451   0.00000  Uiso   1.00
C145   C     0.54520   0.38579   0.37376   0.00000  Uiso   1.00
C146   C     0.46096   0.23015   0.44338   0.00000  Uiso   1.00
C147   C     0.58756   0.37966   0.41517   0.00000  Uiso   1.00
C148   C     0.56868   0.31013   0.12897   0.00000  Uiso   1.00
C149   C     0.62159   0.29701   0.11742   0.00000  Uiso   1.00
C150   C     0.66296   0.32444   0.14449   0.00000  Uiso   1.00
C151   C     0.42989   0.19117   0.37039   0.00000  Uiso   1.00
C152   C     0.44200   0.14566   0.39430   0.00000  Uiso   1.00
C153   C     0.42018   0.10846   0.36313   0.00000  Uiso   1.00
C154   C     0.52849   0.28017   0.10487   0.00000  Uiso   1.00
C155   C     0.46435   0.22597   0.39386   0.00000  Uiso   1.00
C156   C     0.47079   0.22024   0.10312   0.00000  Uiso   1.00
C157   C     0.53699   0.27211   0.39821   0.00000  Uiso   1.00
C158   C     0.47003   0.21937   0.05246   0.00000  Uiso   1.00
Cu159  Cu    0.50000   0.25000   0.29821   0.00000  Uiso   1.00
Cu160  Cu    0.50000   0.25001   0.20178   0.00000  Uiso   1.00
H161   H     0.66159   0.23656   0.19754   0.00000  Uiso   1.00
H162   H     0.56702   0.28848   0.38103   0.00000  Uiso   1.00
H163   H     0.44863   0.19336   0.03417   0.00000  Uiso   1.00
H164   H     0.56943   0.28881   0.46897   0.00000  Uiso   1.00
H165   H     0.58777   0.18517   0.37213   0.00000  Uiso   1.00
H166   H     0.64213   0.15046   0.38851   0.00000  Uiso   1.00
H167   H     0.64584   0.19763   0.34783   0.00000  Uiso   1.00
H168   H     0.63873   0.12336   0.30674   0.00000  Uiso   1.00
H169   H     0.59435   0.16411   0.28361   0.00000  Uiso   1.00
H170   H     0.53546   0.12754   0.34685   0.00000  Uiso   1.00
H171   H     0.57938   0.08466   0.35127   0.00000  Uiso   1.00
H172   H     0.33880   0.26150   0.30373   0.00000  Uiso   1.00
H173   H     0.43636   0.33174   0.09237   0.00000  Uiso   1.00
H174   H     0.39161   0.37524   0.07453   0.00000  Uiso   1.00
H175   H     0.45021   0.37260   0.04740   0.00000  Uiso   1.00
H176   H     0.45473   0.43033   0.10801   0.00000  Uiso   1.00
H177   H     0.50030   0.38844   0.12463   0.00000  Uiso   1.00
H178   H     0.43021   0.35304   0.17620   0.00000  Uiso   1.00
H179   H     0.39993   0.40379   0.16691   0.00000  Uiso   1.00
H180   H     0.64316   0.10522   0.16066   0.00000  Uiso   1.00
H181   H     0.61844   0.12763   0.21190   0.00000  Uiso   1.00
H182   H     0.65596   0.16180   0.17484   0.00000  Uiso   1.00
H183   H     0.56906   0.03141   0.29544   0.00000  Uiso   1.00
H184   H     0.36030   0.08073   0.23700   0.00000  Uiso   1.00
H185   H     0.37248   0.13679   0.25319   0.00000  Uiso   1.00
H186   H     0.42045   0.15151   0.18485   0.00000  Uiso   1.00
H187   H     0.40390   0.10049   0.15928   0.00000  Uiso   1.00
H188   H     0.61042   0.35036   0.41036   0.00000  Uiso   1.00
H189   H     0.61321   0.40883   0.41687   0.00000  Uiso   1.00
H190   H     0.57074   0.37572   0.44983   0.00000  Uiso   1.00
H191   H     0.52628   0.41725   0.37860   0.00000  Uiso   1.00
H192   H     0.51610   0.35941   0.37580   0.00000  Uiso   1.00
H193   H     0.57685   0.35199   0.31640   0.00000  Uiso   1.00
H194   H     0.45531   0.47169   0.17837   0.00000  Uiso   1.00
H195   H     0.60246   0.40466   0.32621   0.00000  Uiso   1.00
H196   H     0.65920   0.32368   0.18368   0.00000  Uiso   1.00
H197   H     0.66060   0.35891   0.13057   0.00000  Uiso   1.00
H198   H     0.36701   0.31088   0.13885   0.00000  Uiso   1.00
H199   H     0.62770   0.26179   0.12670   0.00000  Uiso   1.00
H200   H     0.62493   0.30185   0.07825   0.00000  Uiso   1.00
H201   H     0.56186   0.34412   0.11493   0.00000  Uiso   1.00
H202   H     0.56880   0.31074   0.16794   0.00000  Uiso   1.00
H203   H     0.37812   0.10943   0.35882   0.00000  Uiso   1.00
H204   H     0.43422   0.11083   0.32717   0.00000  Uiso   1.00
H205   H     0.42759   0.03191   0.20268   0.00000  Uiso   1.00
H206   H     0.43213   0.07657   0.38076   0.00000  Uiso   1.00
H207   H     0.48374   0.14163   0.40189   0.00000  Uiso   1.00
H208   H     0.42591   0.14261   0.42941   0.00000  Uiso   1.00
H209   H     0.39059   0.19953   0.37559   0.00000  Uiso   1.00
H210   H     0.43114   0.18956   0.33170   0.00000  Uiso   1.00
H211   H     0.54511   0.46823   0.31621   0.00000  Uiso   1.00
H212   H     0.54359   0.30891   0.03648   0.00000  Uiso   1.00
H213   H     0.42961   0.21423   0.45912   0.00000  Uiso   1.00
H214   H     0.44861   0.19624   0.12138   0.00000  Uiso   1.00
N215   N     0.50000   0.25001   0.12934   0.00000  Uiso   1.00
N216   N     0.50000   0.24999   0.37065   0.00000  Uiso   1.00
O217   O     0.50000   0.18573   0.29071   0.00000  Uiso   1.00
O218   O     0.50000   0.31428   0.20928   0.00000  Uiso   1.00
O219   O     0.50000   0.18573   0.20928   0.00000  Uiso   1.00
O220   O     0.50000   0.31427   0.29072   0.00000  Uiso   1.00
O221   O     0.42495   0.25000   0.28132   0.00000  Uiso   1.00
O222   O     0.57505   0.25001   0.21868   0.00000  Uiso   1.00
O223   O     0.42495   0.25000   0.19988   0.00000  Uiso   1.00
O224   O     0.57505   0.25000   0.30011   0.00000  Uiso   1.00
C225   C     0.83123   0.16520   0.25062   0.00000  Uiso   1.00
C226   C     0.87104   0.27264   0.44890   0.00000  Uiso   1.00
C227   C     0.83037   0.25125   0.02682   0.00000  Uiso   1.00
C228   C     0.83181   0.25191   0.47253   0.00000  Uiso   1.00
C229   C     0.73487   0.24882   0.23815   0.00000  Uiso   1.00
C230   C     0.93187   0.25108   0.26197   0.00000  Uiso   1.00
C231   C     0.68016   0.24547   0.23225   0.00000  Uiso   1.00
C232   C     0.98679   0.25319   0.26856   0.00000  Uiso   1.00
C233   C     0.87037   0.04811   0.27598   0.00000  Uiso   1.00
C234   C     0.80807   0.45383   0.20891   0.00000  Uiso   1.00
C235   C     0.86647   0.09283   0.28215   0.00000  Uiso   1.00
C236   C     0.83341   0.33505   0.24918   0.00000  Uiso   1.00
C237   C     0.80594   0.40806   0.20934   0.00000  Uiso   1.00
C238   C     0.82956   0.11711   0.25196   0.00000  Uiso   1.00
C239   C     0.83413   0.38354   0.24756   0.00000  Uiso   1.00
C240   C     0.79138   0.09447   0.22251   0.00000  Uiso   1.00
C241   C     0.86256   0.40661   0.28508   0.00000  Uiso   1.00
C242   C     0.79250   0.04873   0.22230   0.00000  Uiso   1.00
C243   C     0.85955   0.45212   0.28534   0.00000  Uiso   1.00
C244   C     0.83268   0.02509   0.24759   0.00000  Uiso   1.00
C245   C     0.83360   0.47639   0.24711   0.00000  Uiso   1.00
C246   C     0.89611   0.11127   0.32640   0.00000  Uiso   1.00
C247   C     0.85736   0.28266   0.05420   0.00000  Uiso   1.00
C248   C     0.93919   0.14247   0.31536   0.00000  Uiso   1.00
C249   C     0.95478   0.17040   0.35880   0.00000  Uiso   1.00
C250   C     0.77109   0.38804   0.16897   0.00000  Uiso   1.00
C251   C     0.79251   0.39548   0.12032   0.00000  Uiso   1.00
C252   C     0.76585   0.36690   0.08139   0.00000  Uiso   1.00
C253   C     0.74606   0.11682   0.19420   0.00000  Uiso   1.00
C254   C     0.69945   0.11458   0.22244   0.00000  Uiso   1.00
C255   C     0.98468   0.12825   0.19043   0.00000  Uiso   1.00
C256   C     0.89947   0.38557   0.32451   0.00000  Uiso   1.00
C257   C     0.87853   0.38579   0.37376   0.00000  Uiso   1.00
C258   C     0.79430   0.23015   0.44338   0.00000  Uiso   1.00
C259   C     0.92090   0.37966   0.41517   0.00000  Uiso   1.00
C260   C     0.90201   0.31013   0.12897   0.00000  Uiso   1.00
C261   C     0.95492   0.29701   0.11742   0.00000  Uiso   1.00
C262   C     0.99629   0.32444   0.14449   0.00000  Uiso   1.00
C263   C     0.76323   0.19117   0.37039   0.00000  Uiso   1.00
C264   C     0.77533   0.14566   0.39430   0.00000  Uiso   1.00
C265   C     0.75352   0.10846   0.36313   0.00000  Uiso   1.00
C266   C     0.86182   0.28017   0.10487   0.00000  Uiso   1.00
C267   C     0.79769   0.22597   0.39386   0.00000  Uiso   1.00
C268   C     0.80412   0.22024   0.10312   0.00000  Uiso   1.00
C269   C     0.87032   0.27211   0.39821   0.00000  Uiso   1.00
C270   C     0.80337   0.21937   0.05246   0.00000  Uiso   1.00
Cu271  Cu    0.83333   0.25000   0.29821   0.00000  Uiso   1.00
Cu272  Cu    0.83333   0.25001   0.20178   0.00000  Uiso   1.00
H273   H     0.99493   0.23656   0.19754   0.00000  Uiso   1.00
H274   H     0.90036   0.28848   0.38103   0.00000  Uiso   1.00
H275   H     0.78196   0.19336   0.03417   0.00000  Uiso   1.00
H276   H     0.90276   0.28881   0.46897   0.00000  Uiso   1.00
H277   H     0.92110   0.18517   0.37213   0.00000  Uiso   1.00
H278   H     0.97547   0.15046   0.38851   0.00000  Uiso   1.00
H279   H     0.97917   0.19763   0.34783   0.00000  Uiso   1.00
H280   H     0.97206   0.12336   0.30674   0.00000  Uiso   1.00
H281   H     0.92768   0.16411   0.28361   0.00000  Uiso   1.00
H282   H     0.86880   0.12754   0.34685   0.00000  Uiso   1.00
H283   H     0.91271   0.08466   0.35127   0.00000  Uiso   1.00
H284   H     0.67213   0.26150   0.30373   0.00000  Uiso   1.00
H285   H     0.76969   0.33174   0.09237   0.00000  Uiso   1.00
H286   H     0.72495   0.37524   0.07453   0.00000  Uiso   1.00
H287   H     0.78355   0.37260   0.04740   0.00000  Uiso   1.00
H288   H     0.78806   0.43033   0.10801   0.00000  Uiso   1.00
H289   H     0.83363   0.38844   0.12463   0.00000  Uiso   1.00
H290   H     0.76354   0.35304   0.17620   0.00000  Uiso   1.00
H291   H     0.73326   0.40379   0.16691   0.00000  Uiso   1.00
H292   H     0.97649   0.10522   0.16066   0.00000  Uiso   1.00
H293   H     0.95177   0.12763   0.21190   0.00000  Uiso   1.00
H294   H     0.98929   0.16180   0.17484   0.00000  Uiso   1.00
H295   H     0.90240   0.03141   0.29544   0.00000  Uiso   1.00
H296   H     0.69364   0.08073   0.23700   0.00000  Uiso   1.00
H297   H     0.70581   0.13679   0.25319   0.00000  Uiso   1.00
H298   H     0.75379   0.15151   0.18485   0.00000  Uiso   1.00
H299   H     0.73723   0.10049   0.15928   0.00000  Uiso   1.00
H300   H     0.94376   0.35036   0.41036   0.00000  Uiso   1.00
H301   H     0.94654   0.40883   0.41687   0.00000  Uiso   1.00
H302   H     0.90407   0.37572   0.44983   0.00000  Uiso   1.00
H303   H     0.85961   0.41725   0.37860   0.00000  Uiso   1.00
H304   H     0.84943   0.35941   0.37580   0.00000  Uiso   1.00
H305   H     0.91018   0.35199   0.31640   0.00000  Uiso   1.00
H306   H     0.78864   0.47169   0.17837   0.00000  Uiso   1.00
H307   H     0.93580   0.40466   0.32621   0.00000  Uiso   1.00
H308   H     0.99254   0.32368   0.18368   0.00000  Uiso   1.00
H309   H     0.99393   0.35891   0.13057   0.00000  Uiso   1.00
H310   H     0.70034   0.31088   0.13885   0.00000  Uiso   1.00
H311   H     0.96104   0.26179   0.12670   0.00000  Uiso   1.00
H312   H     0.95826   0.30185   0.07825   0.00000  Uiso   1.00
H313   H     0.89519   0.34412   0.11493   0.00000  Uiso   1.00
H314   H     0.90213   0.31074   0.16794   0.00000  Uiso   1.00
H315   H     0.71146   0.10943   0.35882   0.00000  Uiso   1.00
H316   H     0.76755   0.11083   0.32717   0.00000  Uiso   1.00
H317   H     0.76092   0.03191   0.20268   0.00000  Uiso   1.00
H318   H     0.76547   0.07657   0.38076   0.00000  Uiso   1.00
H319   H     0.81708   0.14163   0.40189   0.00000  Uiso   1.00
H320   H     0.75924   0.14261   0.42941   0.00000  Uiso   1.00
H321   H     0.72393   0.19953   0.37559   0.00000  Uiso   1.00
H322   H     0.76447   0.18956   0.33170   0.00000  Uiso   1.00
H323   H     0.87845   0.46823   0.31621   0.00000  Uiso   1.00
H324   H     0.87692   0.30891   0.03648   0.00000  Uiso   1.00
H325   H     0.76295   0.21423   0.45912   0.00000  Uiso   1.00
H326   H     0.78194   0.19624   0.12138   0.00000  Uiso   1.00
N327   N     0.83333   0.25001   0.12934   0.00000  Uiso   1.00
N328   N     0.83333   0.24999   0.37065   0.00000  Uiso   1.00
O329   O     0.83334   0.18573   0.29071   0.00000  Uiso   1.00
O330   O     0.83333   0.31428   0.20928   0.00000  Uiso   1.00
O331   O     0.83334   0.18573   0.20928   0.00000  Uiso   1.00
O332   O     0.83333   0.31427   0.29072   0.00000  Uiso   1.00
O333   O     0.75828   0.25000   0.28132   0.00000  Uiso   1.00
O334   O     0.90839   0.25001   0.21868   0.00000  Uiso   1.00
O335   O     0.75828   0.25000   0.19988   0.00000  Uiso   1.00
O336   O     0.90839   0.25000   0.30011   0.00000  Uiso   1.00
C337   C     0.16456   0.66520   0.25062   0.00000  Uiso   1.00
C338   C     0.20437   0.77264   0.44890   0.00000  Uiso   1.00
C339   C     0.16370   0.75125   0.02682   0.00000  Uiso   1.00
C340   C     0.16514   0.75191   0.47253   0.00000  Uiso   1.00
C341   C     0.06821   0.74882   0.23815   0.00000  Uiso   1.00
C342   C     0.26520   0.75108   0.26197   0.00000  Uiso   1.00
C343   C     0.01350   0.74547   0.23225   0.00000  Uiso   1.00
C344   C     0.32012   0.75319   0.26856   0.00000  Uiso   1.00
C345   C     0.20370   0.54811   0.27598   0.00000  Uiso   1.00
C346   C     0.14140   0.95383   0.20891   0.00000  Uiso   1.00
C347   C     0.19980   0.59283   0.28215   0.00000  Uiso   1.00
C348   C     0.16675   0.83505   0.24918   0.00000  Uiso   1.00
C349   C     0.13927   0.90806   0.20934   0.00000  Uiso   1.00
C350   C     0.16289   0.61711   0.25196   0.00000  Uiso   1.00
C351   C     0.16747   0.88354   0.24756   0.00000  Uiso   1.00
C352   C     0.12472   0.59447   0.22251   0.00000  Uiso   1.00
C353   C     0.19590   0.90661   0.28508   0.00000  Uiso   1.00
C354   C     0.12583   0.54873   0.22230   0.00000  Uiso   1.00
C355   C     0.19289   0.95212   0.28534   0.00000  Uiso   1.00
C356   C     0.16601   0.52509   0.24759   0.00000  Uiso   1.00
C357   C     0.16693   0.97639   0.24711   0.00000  Uiso   1.00
C358   C     0.22944   0.61127   0.32640   0.00000  Uiso   1.00
C359   C     0.19069   0.78266   0.05420   0.00000  Uiso   1.00
C360   C     0.27252   0.64247   0.31536   0.00000  Uiso   1.00
C361   C     0.28811   0.67040   0.35880   0.00000  Uiso   1.00
C362   C     0.10442   0.88804   0.16897   0.00000  Uiso   1.00
C363   C     0.12584   0.89548   0.12032   0.00000  Uiso   1.00
C364   C     0.09918   0.86690   0.08139   0.00000  Uiso   1.00
C365   C     0.07939   0.61682   0.19420   0.00000  Uiso   1.00
C366   C     0.03279   0.61458   0.22244   0.00000  Uiso   1.00
C367   C     0.31802   0.62825   0.19043   0.00000  Uiso   1.00
C368   C     0.23280   0.88557   0.32451   0.00000  Uiso   1.00
C369   C     0.21186   0.88579   0.37376   0.00000  Uiso   1.00
C370   C     0.12763   0.73015   0.44338   0.00000  Uiso   1.00
C371   C     0.25423   0.87966   0.41517   0.00000  Uiso   1.00
C372   C     0.23534   0.81013   0.12897   0.00000  Uiso   1.00
C373   C     0.28825   0.79701   0.11742   0.00000  Uiso   1.00
C374   C     0.32963   0.82444   0.14449   0.00000  Uiso   1.00
C375   C     0.09656   0.69117   0.37039   0.00000  Uiso   1.00
C376   C     0.10866   0.64566   0.39430   0.00000  Uiso   1.00
C377   C     0.08685   0.60846   0.36313   0.00000  Uiso   1.00
C378   C     0.19515   0.78017   0.10487   0.00000  Uiso   1.00
C379   C     0.13102   0.72597   0.39386   0.00000  Uiso   1.00
C380   C     0.13745   0.72024   0.10312   0.00000  Uiso   1.00
C381   C     0.20365   0.77211   0.39821   0.00000  Uiso   1.00
C382   C     0.13670   0.71937   0.05246   0.00000  Uiso   1.00
Cu383  Cu    0.16667   0.75000   0.29821   0.00000  Uiso   1.00
Cu384  Cu    0.16667   0.75001   0.20178   0.00000  Uiso   1.00
H385   H     0.32826   0.73656   0.19754   0.00000  Uiso   1.00
H386   H     0.23369   0.78848   0.38103   0.00000  Uiso   1.00
H387   H     0.11529   0.69336   0.03417   0.00000  Uiso   1.00
H388   H     0.23610   0.78881   0.46897   0.00000  Uiso   1.00
H389   H     0.25443   0.68517   0.37213   0.00000  Uiso   1.00
H390   H     0.30880   0.65046   0.38851   0.00000  Uiso   1.00
H391   H     0.31250   0.69763   0.34783   0.00000  Uiso   1.00
H392   H     0.30539   0.62336   0.30674   0.00000  Uiso   1.00
H393   H     0.26102   0.66411   0.28361   0.00000  Uiso   1.00
H394   H     0.20213   0.62754   0.34685   0.00000  Uiso   1.00
H395   H     0.24605   0.58466   0.35127   0.00000  Uiso   1.00
H396   H     0.00547   0.76150   0.30373   0.00000  Uiso   1.00
H397   H     0.10302   0.83174   0.09237   0.00000  Uiso   1.00
H398   H     0.05828   0.87524   0.07453   0.00000  Uiso   1.00
H399   H     0.11688   0.87260   0.04740   0.00000  Uiso   1.00
H400   H     0.12139   0.93033   0.10801   0.00000  Uiso   1.00
H401   H     0.16697   0.88844   0.12463   0.00000  Uiso   1.00
H402   H     0.09687   0.85304   0.17620   0.00000  Uiso   1.00
H403   H     0.06660   0.90379   0.16691   0.00000  Uiso   1.00
H404   H     0.30982   0.60522   0.16066   0.00000  Uiso   1.00
H405   H     0.28510   0.62763   0.21190   0.00000  Uiso   1.00
H406   H     0.32263   0.66180   0.17484   0.00000  Uiso   1.00
H407   H     0.23573   0.53141   0.29544   0.00000  Uiso   1.00
H408   H     0.02697   0.58073   0.23700   0.00000  Uiso   1.00
H409   H     0.03915   0.63679   0.25319   0.00000  Uiso   1.00
H410   H     0.08712   0.65151   0.18485   0.00000  Uiso   1.00
H411   H     0.07056   0.60049   0.15928   0.00000  Uiso   1.00
H412   H     0.27709   0.85036   0.41036   0.00000  Uiso   1.00
H413   H     0.27987   0.90883   0.41687   0.00000  Uiso   1.00
H414   H     0.23741   0.87572   0.44983   0.00000  Uiso   1.00
H415   H     0.19295   0.91725   0.37860   0.00000  Uiso   1.00
H416   H     0.18277   0.85941   0.37580   0.00000  Uiso   1.00
H417   H     0.24351   0.85199   0.31640   0.00000  Uiso   1.00
H418   H     0.12197   0.97169   0.17837   0.00000  Uiso   1.00
H419   H     0.26913   0.90466   0.32621   0.00000  Uiso   1.00
H420   H     0.32587   0.82368   0.18368   0.00000  Uiso   1.00
H421   H     0.32726   0.85891   0.13057   0.00000  Uiso   1.00
H422   H     0.03368   0.81088   0.13885   0.00000  Uiso   1.00
H423   H     0.29437   0.76179   0.12670   0.00000  Uiso   1.00
H424   H     0.29159   0.80185   0.07825   0.00000  Uiso   1.00
H425   H     0.22852   0.84412   0.11493   0.00000  Uiso   1.00
H426   H     0.23547   0.81074   0.16794   0.00000  Uiso   1.00
H427   H     0.04479   0.60943   0.35882   0.00000  Uiso   1.00
H428   H     0.10089   0.61083   0.32717   0.00000  Uiso   1.00
H429   H     0.09426   0.53191   0.20268   0.00000  Uiso   1.00
H430   H     0.09880   0.57657   0.38076   0.00000  Uiso   1.00
H431   H     0.15041   0.64163   0.40189   0.00000  Uiso   1.00
H432   H     0.09257   0.64261   0.42941   0.00000  Uiso   1.00
H433   H     0.05726   0.69953   0.37559   0.00000  Uiso   1.00
H434   H     0.09780   0.68956   0.33170   0.00000  Uiso   1.00
H435   H     0.21178   0.96823   0.31621   0.00000  Uiso   1.00
H436   H     0.21026   0.80891   0.03648   0.00000  Uiso   1.00
H437   H     0.09628   0.71423   0.45912   0.00000  Uiso   1.00
H438   H     0.11528   0.69624   0.12138   0.00000  Uiso   1.00
N439   N     0.16667   0.75001   0.12934   0.00000  Uiso   1.00
N440   N     0.16667   0.74999   0.37065   0.00000  Uiso   1.00
O441   O     0.16667   0.68573   0.29071   0.00000  Uiso   1.00
O442   O     0.16666   0.81428   0.20928   0.00000  Uiso   1.00
O443   O     0.16667   0.68573   0.20928   0.00000  Uiso   1.00
O444   O     0.16666   0.81427   0.29072   0.00000  Uiso   1.00
O445   O     0.09161   0.75000   0.28132   0.00000  Uiso   1.00
O446   O     0.24172   0.75001   0.21868   0.00000  Uiso   1.00
O447   O     0.09161   0.75000   0.19988   0.00000  Uiso   1.00
O448   O     0.24172   0.75000   0.30011   0.00000  Uiso   1.00
C449   C     0.49789   0.66520   0.25062   0.00000  Uiso   1.00
C450   C     0.53771   0.77264   0.44890   0.00000  Uiso   1.00
C451   C     0.49704   0.75125   0.02682   0.00000  Uiso   1.00
C452   C     0.49847   0.75191   0.47253   0.00000  Uiso   1.00
C453   C     0.40154   0.74882   0.23815   0.00000  Uiso   1.00
C454   C     0.59854   0.75108   0.26197   0.00000  Uiso   1.00
C455   C     0.34683   0.74547   0.23225   0.00000  Uiso   1.00
C456   C     0.65345   0.75319   0.26856   0.00000  Uiso   1.00
C457   C     0.53703   0.54811   0.27598   0.00000  Uiso   1.00
C458   C     0.47474   0.95383   0.20891   0.00000  Uiso   1.00
C459   C     0.53314   0.59283   0.28215   0.00000  Uiso   1.00
C460   C     0.50008   0.83505   0.24918   0.00000  Uiso   1.00
C461   C     0.47261   0.90806   0.20934   0.00000  Uiso   1.00
C462   C     0.49622   0.61711   0.25196   0.00000  Uiso   1.00
C463   C     0.50080   0.88354   0.24756   0.00000  Uiso   1.00
C464   C     0.45805   0.59447   0.22251   0.00000  Uiso   1.00
C465   C     0.52923   0.90661   0.28508   0.00000  Uiso   1.00
C466   C     0.45917   0.54873   0.22230   0.00000  Uiso   1.00
C467   C     0.52622   0.95212   0.28534   0.00000  Uiso   1.00
C468   C     0.49934   0.52509   0.24759   0.00000  Uiso   1.00
C469   C     0.50026   0.97639   0.24711   0.00000  Uiso   1.00
C470   C     0.56277   0.61127   0.32640   0.00000  Uiso   1.00
C471   C     0.52402   0.78266   0.05420   0.00000  Uiso   1.00
C472   C     0.60586   0.64247   0.31536   0.00000  Uiso   1.00
C473   C     0.62144   0.67040   0.35880   0.00000  Uiso   1.00
C474   C     0.43775   0.88804   0.16897   0.00000  Uiso   1.00
C475   C     0.45918   0.89548   0.12032   0.00000  Uiso   1.00
C476   C     0.43252   0.86690   0.08139   0.00000  Uiso   1.00
C477   C     0.41272   0.61682   0.19420   0.00000  Uiso   1.00
C478   C     0.36612   0.61458   0.22244   0.00000  Uiso   1.00
C479   C     0.65135   0.62825   0.19043   0.00000  Uiso   1.00
C480   C     0.56614   0.88557   0.32451   0.00000  Uiso   1.00
C481   C     0.54520   0.88579   0.37376   0.00000  Uiso   1.00
C482   C     0.46096   0.73015   0.44338   0.00000  Uiso   1.00
C483   C     0.58756   0.87966   0.41517   0.00000  Uiso   1.00
C484   C     0.56868   0.81013   0.12897   0.00000  Uiso   1.00
C485   C     0.62159   0.79701   0.11742   0.00000  Uiso   1.00
C486   C     0.66296   0.82444   0.14449   0.00000  Uiso   1.00
C487   C     0.42989   0.69117   0.37039   0.00000  Uiso   1.00
C488   C     0.44200   0.64566   0.39430   0.00000  Uiso   1.00
C489   C     0.42018   0.60846   0.36313   0.00000  Uiso   1.00
C490   C     0.52849   0.78017   0.10487   0.00000  Uiso   1.00
C491   C     0.46435   0.72597   0.39386   0.00000  Uiso   1.00
C492   C     0.47079   0.72024   0.10312   0.00000  Uiso   1.00
C493   C     0.53699   0.77211   0.39821   0.00000  Uiso   1.00
C494   C     0.47003   0.71937   0.05246   0.00000  Uiso   1.00
Cu495  Cu    0.50000   0.75000   0.29821   0.00000  Uiso   1.00
Cu496  Cu    0.50000   0.75001   0.20178   0.00000  Uiso   1.00
H497   H     0.66159   0.73656   0.19754   0.00000  Uiso   1.00
H498   H     0.56702   0.78848   0.38103   0.00000  Uiso   1.00
H499   H     0.44863   0.69336   0.03417   0.00000  Uiso   1.00
H500   H     0.56943   0.78881   0.46897   0.00000  Uiso   1.00
H501   H     0.58777   0.68517   0.37213   0.00000  Uiso   1.00
H502   H     0.64213   0.65046   0.38851   0.00000  Uiso   1.00
H503   H     0.64584   0.69763   0.34783   0.00000  Uiso   1.00
H504   H     0.63873   0.62336   0.30674   0.00000  Uiso   1.00
H505   H     0.59435   0.66411   0.28361   0.00000  Uiso   1.00
H506   H     0.53546   0.62754   0.34685   0.00000  Uiso   1.00
H507   H     0.57938   0.58466   0.35127   0.00000  Uiso   1.00
H508   H     0.33880   0.76150   0.30373   0.00000  Uiso   1.00
H509   H     0.43636   0.83174   0.09237   0.00000  Uiso   1.00
H510   H     0.39161   0.87524   0.07453   0.00000  Uiso   1.00
H511   H     0.45021   0.87260   0.04740   0.00000  Uiso   1.00
H512   H     0.45473   0.93033   0.10801   0.00000  Uiso   1.00
H513   H     0.50030   0.88844   0.12463   0.00000  Uiso   1.00
H514   H     0.43021   0.85304   0.17620   0.00000  Uiso   1.00
H515   H     0.39993   0.90379   0.16691   0.00000  Uiso   1.00
H516   H     0.64316   0.60522   0.16066   0.00000  Uiso   1.00
H517   H     0.61844   0.62763   0.21190   0.00000  Uiso   1.00
H518   H     0.65596   0.66180   0.17484   0.00000  Uiso   1.00
H519   H     0.56906   0.53141   0.29544   0.00000  Uiso   1.00
H520   H     0.36030   0.58073   0.23700   0.00000  Uiso   1.00
H521   H     0.37248   0.63679   0.25319   0.00000  Uiso   1.00
H522   H     0.42045   0.65151   0.18485   0.00000  Uiso   1.00
H523   H     0.40390   0.60049   0.15928   0.00000  Uiso   1.00
H524   H     0.61042   0.85036   0.41036   0.00000  Uiso   1.00
H525   H     0.61321   0.90883   0.41687   0.00000  Uiso   1.00
H526   H     0.57074   0.87572   0.44983   0.00000  Uiso   1.00
H527   H     0.52628   0.91725   0.37860   0.00000  Uiso   1.00
H528   H     0.51610   0.85941   0.37580   0.00000  Uiso   1.00
H529   H     0.57685   0.85199   0.31640   0.00000  Uiso   1.00
H530   H     0.45531   0.97169   0.17837   0.00000  Uiso   1.00
H531   H     0.60246   0.90466   0.32621   0.00000  Uiso   1.00
H532   H     0.65920   0.82368   0.18368   0.00000  Uiso   1.00
H533   H     0.66060   0.85891   0.13057   0.00000  Uiso   1.00
H534   H     0.36701   0.81088   0.13885   0.00000  Uiso   1.00
H535   H     0.62770   0.76179   0.12670   0.00000  Uiso   1.00
H536   H     0.62493   0.80185   0.07825   0.00000  Uiso   1.00
H537   H     0.56186   0.84412   0.11493   0.00000  Uiso   1.00
H538   H     0.56880   0.81074   0.16794   0.00000  Uiso   1.00
H539   H     0.37812   0.60943   0.35882   0.00000  Uiso   1.00
H540   H     0.43422   0.61083   0.32717   0.00000  Uiso   1.00
H541   H     0.42759   0.53191   0.20268   0.00000  Uiso   1.00
H542   H     0.43213   0.57657   0.38076   0.00000  Uiso   1.00
H543   H     0.48374   0.64163   0.40189   0.00000  Uiso   1.00
H544   H     0.42591   0.64261   0.42941   0.00000  Uiso   1.00
H545   H     0.39059   0.69953   0.37559   0.00000  Uiso   1.00
H546   H     0.43114   0.68956   0.33170   0.00000  Uiso   1.00
H547   H     0.54511   0.96823   0.31621   0.00000  Uiso   1.00
H548   H     0.54359   0.80891   0.03648   0.00000  Uiso   1.00
H549   H     0.42961   0.71423   0.45912   0.00000  Uiso   1.00
H550   H     0.44861   0.69624   0.12138   0.00000  Uiso   1.00
N551   N     0.50000   0.75001   0.12934   0.00000  Uiso   1.00
N552   N     0.50000   0.74999   0.37065   0.00000  Uiso   1.00
O553   O     0.50000   0.68573   0.29071   0.00000  Uiso   1.00
O554   O     0.50000   0.81428   0.20928   0.00000  Uiso   1.00
O555   O     0.50000   0.68573   0.20928   0.00000  Uiso   1.00
O556   O     0.50000   0.81427   0.29072   0.00000  Uiso   1.00
O557   O     0.42495   0.75000   0.28132   0.00000  Uiso   1.00
O558   O     0.57505   0.75001   0.21868   0.00000  Uiso   1.00
O559   O     0.42495   0.75000   0.19988   0.00000  Uiso   1.00
O560   O     0.57505   0.75000   0.30011   0.00000  Uiso   1.00
C561   C     0.83123   0.66520   0.25062   0.00000  Uiso   1.00
C562   C     0.87104   0.77264   0.44890   0.00000  Uiso   1.00
C563   C     0.83037   0.75125   0.02682   0.00000  Uiso   1.00
C564   C     0.83181   0.75191   0.47253   0.00000  Uiso   1.00
C565   C     0.73487   0.74882   0.23815   0.00000  Uiso   1.00
C566   C     0.93187   0.75108   0.26197   0.00000  Uiso   1.00
C567   C     0.68016   0.74547   0.23225   0.00000  Uiso   1.00
C568   C     0.98679   0.75319   0.26856   0.00000  Uiso   1.00
C569   C     0.87037   0.54811   0.27598   0.00000  Uiso   1.00
C570   C     0.80807   0.95383   0.20891   0.00000  Uiso   1.00
C571   C     0.86647   0.59283   0.28215   0.00000  Uiso   1.00
C572   C     0.83341   0.83505   0.24918   0.00000  Uiso   1.00
C573   C     0.80594   0.90806   0.20934   0.00000  Uiso   1.00
C574   C     0.82956   0.61711   0.25196   0.00000  Uiso   1.00
C575   C     0.83413   0.88354   0.24756   0.00000  Uiso   1.00
C576   C     0.79138   0.59447   0.22251   0.00000  Uiso   1.00
C577   C     0.86256   0.90661   0.28508   0.00000  Uiso   1.00
C578   C     0.79250   0.54873   0.22230   0.00000  Uiso   1.00
C579   C     0.85955   0.95212   0.28534   0.00000  Uiso   1.00
C580   C     0.83268   0.52509   0.24759   0.00000  Uiso   1.00
C581   C     0.83360   0.97639   0.24711   0.00000  Uiso   1.00
C582   C     0.89611   0.61127   0.32640   0.00000  Uiso   1.00
C583   C     0.85736   0.78266   0.05420   0.00000  Uiso   1.00
C584   C     0.93919   0.64247   0.31536   0.00000  Uiso   1.00
C585   C     0.95478   0.67040   0.35880   0.00000  Uiso   1.00
C586   C     0.77109   0.88804   0.16897   0.00000  Uiso   1.00
C587   C     0.79251   0.89548   0.12032   0.00000  Uiso   1.00
C588   C     0.76585   0.86690   0.08139   0.00000  Uiso   1.00
C589   C     0.74606   0.61682   0.19420   0.00000  Uiso   1.00
C590   C     0.69945   0.61458   0.22244   0.00000  Uiso   1.00
C591   C     0.98468   0.62825   0.19043   0.00000  Uiso   1.00
C592   C     0.89947   0.88557   0.32451   0.00000  Uiso   1.00
C593   C     0.87853   0.88579   0.37376   0.00000  Uiso   1.00
C594   C     0.79430   0.73015   0.44338   0.00000  Uiso   1.00
C595   C     0.92090   0.87966   0.41517   0.00000  Uiso   1.00
C596   C     0.90201   0.81013   0.12897   0.00000  Uiso   1.00
C597   C     0.95492   0.79701   0.11742   0.00000  Uiso   1.00
C598   C     0.99629   0.82444   0.14449   0.00000  Uiso   1.00
C599   C     0.76323   0.69117   0.37039   0.00000  Uiso   1.00
C600   C     0.77533   0.64566   0.39430   0.00000  Uiso   1.00
C601   C     0.75352   0.60846   0.36313   0.00000  Uiso   1.00
C602   C     0.86182   0.78017   0.10487   0.00000  Uiso   1.00
C603   C     0.79769   0.72597   0.39386   0.00000  Uiso   1.00
C604   C     0.80412   0.72024   0.10312   0.00000  Uiso   1.00
C605   C     0.87032   0.77211   0.39821   0.00000  Uiso   1.00
C606   C     0.80337   0.71937   0.05246   0.00000  Uiso   1.00
Cu607  Cu    0.83333   0.75000   0.29821   0.00000  Uiso   1.00
Cu608  Cu    0.83333   0.75001   0.20178   0.00000  Uiso   1.00
H609   H     0.99493   0.73656   0.19754   0.00000  Uiso   1.00
H610   H     0.90036   0.78848   0.38103   0.00000  Uiso   1.00
H611   H     0.78196   0.69336   0.03417   0.00000  Uiso   1.00
H612   H     0.90276   0.78881   0.46897   0.00000  Uiso   1.00
H613   H     0.92110   0.68517   0.37213   0.00000  Uiso   1.00
H614   H     0.97547   0.65046   0.38851   0.00000  Uiso   1.00
H615   H     0.97917   0.69763   0.34783   0.00000  Uiso   1.00
H616   H     0.97206   0.62336   0.30674   0.00000  Uiso   1.00
H617   H     0.92768   0.66411   0.28361   0.00000  Uiso   1.00
H618   H     0.86880   0.62754   0.34685   0.00000  Uiso   1.00
H619   H     0.91271   0.58466   0.35127   0.00000  Uiso   1.00
H620   H     0.67213   0.76150   0.30373   0.00000  Uiso   1.00
H621   H     0.76969   0.83174   0.09237   0.00000  Uiso   1.00
H622   H     0.72495   0.87524   0.07453   0.00000  Uiso   1.00
H623   H     0.78355   0.87260   0.04740   0.00000  Uiso   1.00
H624   H     0.78806   0.93033   0.10801   0.00000  Uiso   1.00
H625   H     0.83363   0.88844   0.12463   0.00000  Uiso   1.00
H626   H     0.76354   0.85304   0.17620   0.00000  Uiso   1.00
H627   H     0.73326   0.90379   0.16691   0.00000  Uiso   1.00
H628   H     0.97649   0.60522   0.16066   0.00000  Uiso   1.00
H629   H     0.95177   0.62763   0.21190   0.00000  Uiso   1.00
H630   H     0.98929   0.66180   0.17484   0.00000  Uiso   1.00
H631   H     0.90240   0.53141   0.29544   0.00000  Uiso   1.00
H632   H     0.69364   0.58073   0.23700   0.00000  Uiso   1.00
H633   H     0.70581   0.63679   0.25319   0.00000  Uiso   1.00
H634   H     0.75379   0.65151   0.18485   0.00000  Uiso   1.00
H635   H     0.73723   0.60049   0.15928   0.00000  Uiso   1.00
H636   H     0.94376   0.85036   0.41036   0.00000  Uiso   1.00
H637   H     0.94654   0.90883   0.41687   0.00000  Uiso   1.00
H638   H     0.90407   0.87572   0.44983   0.00000  Uiso   1.00
H639   H     0.85961   0.91725   0.37860   0.00000  Uiso   1.00
H640   H     0.84943   0.85941   0.37580   0.00000  Uiso   1.00
H641   H     0.91018   0.85199   0.31640   0.00000  Uiso   1.00
H642   H     0.78864   0.97169   0.17837   0.00000  Uiso   1.00
H643   H     0.93580   0.90466   0.32621   0.00000  Uiso   1.00
H644   H     0.99254   0.82368   0.18368   0.00000  Uiso   1.00
H645   H     0.99393   0.85891   0.13057   0.00000  Uiso   1.00
H646   H     0.70034   0.81088   0.13885   0.00000  Uiso   1.00
H647   H     0.96104   0.76179   0.12670   0.00000  Uiso   1.00
H648   H     0.95826   0.80185   0.07825   0.00000  Uiso   1.00
H649   H     0.89519   0.84412   0.11493   0.00000  Uiso   1.00
H650   H     0.90213   0.81074   0.16794   0.00000  Uiso   1.00
H651   H     0.71146   0.60943   0.35882   0.00000  Uiso   1.00
H652   H     0.76755   0.61083   0.32717   0.00000  Uiso   1.00
H653   H     0.76092   0.53191   0.20268   0.00000  Uiso   1.00
H654   H     0.76547   0.57657   0.38076   0.00000  Uiso   1.00
H655   H     0.81708   0.64163   0.40189   0.00000  Uiso   1.00
H656   H     0.75924   0.64261   0.42941   0.00000  Uiso   1.00
H657   H     0.72393   0.69953   0.37559   0.00000  Uiso   1.00
H658   H     0.76447   0.68956   0.33170   0.00000  Uiso   1.00
H659   H     0.87845   0.96823   0.31621   0.00000  Uiso   1.00
H660   H     0.87692   0.80891   0.03648   0.00000  Uiso   1.00
H661   H     0.76295   0.71423   0.45912   0.00000  Uiso   1.00
H662   H     0.78194   0.69624   0.12138   0.00000  Uiso   1.00
N663   N     0.83333   0.75001   0.12934   0.00000  Uiso   1.00
N664   N     0.83333   0.74999   0.37065   0.00000  Uiso   1.00
O665   O     0.83334   0.68573   0.29071   0.00000  Uiso   1.00
O666   O     0.83333   0.81428   0.20928   0.00000  Uiso   1.00
O667   O     0.83334   0.68573   0.20928   0.00000  Uiso   1.00
O668   O     0.83333   0.81427   0.29072   0.00000  Uiso   1.00
O669   O     0.75828   0.75000   0.28132   0.00000  Uiso   1.00
O670   O     0.90839   0.75001   0.21868   0.00000  Uiso   1.00
O671   O     0.75828   0.75000   0.19988   0.00000  Uiso   1.00
O672   O     0.90839   0.75000   0.30011   0.00000  Uiso   1.00
C673   C     0.16456   0.16520   0.75062   0.00000  Uiso   1.00
C674   C     0.20437   0.27264   0.94890   0.00000  Uiso   1.00
C675   C     0.16370   0.25125   0.52682   0.00000  Uiso   1.00
C676   C     0.16514   0.25191   0.97253   0.00000  Uiso   1.00
C677   C     0.06821   0.24882   0.73815   0.00000  Uiso   1.00
C678   C     0.26520   0.25108   0.76197   0.00000  Uiso   1.00
C679   C     0.01350   0.24547   0.73225   0.00000  Uiso   1.00
C680   C     0.32012   0.25319   0.76856   0.00000  Uiso   1.00
C681   C     0.20370   0.04811   0.77598   0.00000  Uiso   1.00
C682   C     0.14140   0.45383   0.70891   0.00000  Uiso   1.00
C683   C     0.19980   0.09283   0.78215   0.00000  Uiso   1.00
C684   C     0.16675   0.33505   0.74918   0.00000  Uiso   1.00
C685   C     0.13927   0.40806   0.70934   0.00000  Uiso   1.00
C686   C     0.16289   0.11711   0.75196   0.00000  Uiso   1.00
C687   C     0.16747   0.38354   0.74756   0.00000  Uiso   1.00
C688   C     0.12472   0.09447   0.72251   0.00000  Uiso   1.00
C689   C     0.19590   0.40661   0.78508   0.00000  Uiso   1.00
C690   C     0.12583   0.04873   0.72230   0.00000  Uiso   1.00
C691   C     0.19289   0.45212   0.78534   0.00000  Uiso   1.00
C692   C     0.16601   0.02509   0.74759   0.00000  Uiso   1.00
C693   C     0.16693   0.47639   0.74711   0.00000  Uiso   1.00
C694   C     0.22944   0.11127   0.82640   0.00000  Uiso   1.00
C695   C     0.19069   0.28266   0.55420   0.00000  Uiso   1.00
C696   C     0.27252   0.14247   0.81536   0.00000  Uiso   1.00
C697   C     0.28811   0.17040   0.85880   0.00000  Uiso   1.00
C698   C     0.10442   0.38804   0.66897   0.00000  Uiso   1.00
C699   C     0.12584   0.39548   0.62032   0.00000  Uiso   1.00
C700   C     0.09918   0.36690   0.58139   0.00000  Uiso   1.00
C701   C     0.07939   0.11682   0.69420   0.00000  Uiso   1.00
C702   C     0.03279   0.11458   0.72244   0.00000  Uiso   1.00
C703   C     0.31802   0.12825   0.69043   0.00000  Uiso   1.00
C704   C     0.23280   0.38557   0.82451   0.00000  Uiso   1.00
C705   C     0.21186   0.38579   0.87376   0.00000  Uiso   1.00
C706   C     0.12763   0.23015   0.94338   0.00000  Uiso   1.00
C707   C     0.25423   0.37966   0.91517   0.00000  Uiso   1.00
C708   C     0.23534   0.31013   0.62897   0.00000  Uiso   1.00
C709   C     0.28825   0.29701   0.61742   0.00000  Uiso   1.00
C710   C     0.32963   0.32444   0.64449   0.00000  Uiso   1.00
C711   C     0.09656   0.19117   0.87039   0.00000  Uiso   1.00
C712   C     0.10866   0.14566   0.89430   0.00000  Uiso   1.00
C713   C     0.08685   0.10846   0.86313   0.00000  Uiso   1.00
C714   C     0.19515   0.28017   0.60487   0.00000  Uiso   1.00
C715   C     0.13102   0.22597   0.89386   0.00000  Uiso   1.00
C716   C     0.13745   0.22024   0.60312   0.00000  Uiso   1.00
C717   C     0.20365   0.27211   0.89821   0.00000  Uiso   1.00
C718   C     0.13670   0.21937   0.55246   0.00000  Uiso   1.00
Cu719  Cu    0.16667   0.25000   0.79821   0.00000  Uiso   1.00
Cu720  Cu    0.16667   0.25001   0.70178   0.00000  Uiso   1.00
H721   H     0.32826   0.23656   0.69754   0.00000  Uiso   1.00
H722   H     0.23369   0.28848   0.88103   0.00000  Uiso   1.00
H723   H     0.11529   0.19336   0.53417   0.00000  Uiso   1.00
H724   H     0.23610   0.28881   0.96897   0.00000  Uiso   1.00
H725   H     0.25443   0.18517   0.87213   0.00000  Uiso   1.00
H726   H     0.30880   0.15046   0.88851   0.00000  Uiso   1.00
H727   H     0.31250   0.19763   0.84783   0.00000  Uiso   1.00
H728   H     0.30539   0.12336   0.80674   0.00000  Uiso   1.00
H729   H     0.26102   0.16411   0.78361   0.00000  Uiso   1.00
H730   H     0.20213   0.12754   0.84685   0.00000  Uiso   1.00
H731   H     0.24605   0.08466   0.85127   0.00000  Uiso   1.00
H732   H     0.00547   0.26150   0.80373   0.00000  Uiso   1.00
H733   H     0.10302   0.33174   0.59237   0.00000  Uiso   1.00
H734   H     0.05828   0.37524   0.57453   0.00000  Uiso   1.00
H735   H     0.11688   0.37260   0.54740   0.00000  Uiso   1.00
H736   H     0.12139   0.43033   0.60801   0.00000  Uiso   1.00
H737   H     0.16697   0.38844   0.62463   0.00000  Uiso   1.00
H738   H     0.09687   0.35304   0.67620   0.00000  Uiso   1.00
H739   H     0.06660   0.40379   0.66691   0.00000  Uiso   1.00
H740   H     0.30982   0.10522   0.66066   0.00000  Uiso   1.00
H741   H     0.28510   0.12763   0.71190   0.00000  Uiso   1.00
H742   H     0.32263   0.16180   0.67484   0.00000  Uiso   1.00
H743   H     0.23573   0.03141   0.79544   0.00000  Uiso   1.00
H744   H     0.02697   0.08073   0.73700   0.00000  Uiso   1.00
H745   H     0.03915   0.13679   0.75319   0.00000  Uiso   1.00
H746   H     0.08712   0.15151   0.68485   0.00000  Uiso   1.00
H747   H     0.07056   0.10049   0.65928   0.00000  Uiso   1.00
H748   H     0.27709   0.35036   0.91036   0.00000  Uiso   1.00
H749   H     0.27987   0.40883   0.91687   0.00000  Uiso   1.00
H750   H     0.23741   0.37572   0.94983   0.00000  Uiso   1.00
H751   H     0.19295   0.41725   0.87860   0.00000  Uiso   1.00
H752   H     0.18277   0.35941   0.87580   0.00000  Uiso   1.00
H753   H     0.24351   0.35199   0.81640   0.00000  Uiso   1.00
H754   H     0.12197   0.47169   0.67837   0.00000  Uiso   1.00
H755   H     0.26913   0.40466   0.82621   0.00000  Uiso   1.00
H756   H     0.32587   0.32368   0.68368   0.00000  Uiso   1.00
H757   H     0.32726   0.35891   0.63057   0.00000  Uiso   1.00
H758   H     0.03368   0.31088   0.63885   0.00000  Uiso   1.00
H759   H     0.29437   0.26179   0.62670   0.00000  Uiso   1.00
H760   H     0.29159   0.30185   0.57825   0.00000  Uiso   1.00
H761   H     0.22852   0.34412   0.61493   0.00000  Uiso   1.00
H762   H     0.23547   0.31074   0.66794   0.00000  Uiso   1.00
H763   H     0.04479   0.10943   0.85882   0.00000  Uiso   1.00
H764   H     0.10089   0.11083   0.82717   0.00000  Uiso   1.00
H765   H     0.09426   0.03191   0.70268   0.00000  Uiso   1.00
H766   H     0.09880   0.07657   0.88076   0.00000  Uiso   1.00
H767   H     0.15041   0.14163   0.90189   0.00000  Uiso   1.00
H768   H     0.09257   0.14261   0.92941   0.00000  Uiso   1.00
H769   H     0.05726   0.19953   0.87559   0.00000  Uiso   1.00
H770   H     0.09780   0.18956   0.83170   0.00000  Uiso   1.00
H771   H     0.21178   0.46823   0.81621   0.00000  Uiso   1.00
H772   H     0.21026   0.30891   0.53648   0.00000  Uiso   1.00
H773   H     0.09628   0.21423   0.95912   0.00000  Uiso   1.00
H774   H     0.11528   0.19624   0.62138   0.00000  Uiso   1.00
N775   N     0.16667   0.25001   0.62934   0.00000  Uiso   1.00
N776   N     0.16667   0.24999   0.87065   0.00000  Uiso   1.00
O777   O     0.16667   0.18573   0.79071   0.00000  Uiso   1.00
O778   O     0.16666   0.31428   0.70928   0.00000  Uiso   1.00
O779   O     0.16667   0.18573   0.70928   0.00000  Uiso   1.00
O780   O     0.16666   0.31427   0.79072   0.00000  Uiso   1.00
O781   O     0.09161   0.25000   0.78132   0.00000  Uiso   1.00
O782   O     0.24172   0.25001   0.71868   0.00000  Uiso   1.00
O783   O     0.09161   0.25000   0.69988   0.00000  Uiso   1.00
O784   O     0.24172   0.25000   0.80011   0.00000  Uiso   1.00
C785   C     0.49789   0.16520   0.75062   0.00000  Uiso   1.00
C786   C     0.53771   0.27264   0.94890   0.00000  Uiso   1.00
C787   C     0.49704   0.25125   0.52682   0.00000  Uiso   1.00
C788   C     0.49847   0.25191   0.97253   0.00000  Uiso   1.00
C789   C     0.40154   0.24882   0.73815   0.00000  Uiso   1.00
C790   C     0.59854   0.25108   0.76197   0.00000  Uiso   1.00
C791   C     0.34683   0.24547   0.73225   0.00000  Uiso   1.00
C792   C     0.65345   0.25319   0.76856   0.00000  Uiso   1.00
C793   C     0.53703   0.04811   0.77598   0.00000  Uiso   1.00
C794   C     0.47474   0.45383   0.70891   0.00000  Uiso   1.00
C795   C     0.53314   0.09283   0.78215   0.00000  Uiso   1.00
C796   C     0.50008   0.33505   0.74918   0.00000  Uiso   1.00
C797   C     0.47261   0.40806   0.70934   0.00000  Uiso   1.00
C798   C     0.49622   0.11711   0.75196   0.00000  Uiso   1.00
C799   C     0.50080   0.38354   0.74756   0.00000  Uiso   1.00
C800   C     0.45805   0.09447   0.72251   0.00000  Uiso   1.00
C801   C     0.52923   0.40661   0.78508   0.00000  Uiso   1.00
C802   C     0.45917   0.04873   0.72230   0.00000  Uiso   1.00
C803   C     0.52622   0.45212   0.78534   0.00000  Uiso   1.00
C804   C     0.49934   0.02509   0.74759   0.00000  Uiso   1.00
C805   C     0.50026   0.47639   0.74711   0.00000  Uiso   1.00
C806   C     0.56277   0.11127   0.82640   0.00000  Uiso   1.00
C807   C     0.52402   0.28266   0.55420   0.00000  Uiso   1.00
C808   C     0.60586   0.14247   0.81536   0.00000  Uiso   1.00
C809   C     0.62144   0.17040   0.85880   0.00000  Uiso   1.00
C810   C     0.43775   0.38804   0.66897   0.00000  Uiso   1.00
C811   C     0.45918   0.39548   0.62032   0.00000  Uiso   1.00
C812   C     0.43252   0.36690   0.58139   0.00000  Uiso   1.00
C813   C     0.41272   0.11682   0.69420   0.00000  Uiso   1.00
C814   C     0.36612   0.11458   0.72244   0.00000  Uiso   1.00
C815   C     0.65135   0.12825   0.69043   0.00000  Uiso   1.00
C816   C     0.56614   0.38557   0.82451   0.00000  Uiso   1.00
C817   C     0.54520   0.38579   0.87376   0.00000  Uiso   1.00
C818   C     0.46096   0.23015   0.94338   0.00000  Uiso   1.00
C819   C     0.58756   0.37966   0.91517   0.00000  Uiso   1.00
C820   C     0.56868   0.31013   0.62897   0.00000  Uiso   1.00
C821   C     0.62159   0.29701   0.61742   0.00000  Uiso   1.00
C822   C     0.66296   0.32444   0.64449   0.00000  Uiso   1.00
C823   C     0.42989   0.19117   0.87039   0.00000  Uiso   1.00
C824   C     0.44200   0.14566   0.89430   0.00000  Uiso   1.00
C825   C     0.42018   0.10846   0.86313   0.00000  Uiso   1.00
C826   C     0.52849   0.28017   0.60487   0.00000  Uiso   1.00
C827   C     0.46435   0.22597   0.89386   0.00000  Uiso   1.00
C828   C     0.47079   0.22024   0.60312   0.00000  Uiso   1.00
C829   C     0.53699   0.27211   0.89821   0.00000  Uiso   1.00
C830   C     0.47003   0.21937   0.55246   0.00000  Uiso   1.00
Cu831  Cu    0.50000   0.25000   0.79821   0.00000  Uiso   1.00
Cu832  Cu    0.50000   0.25001   0.70178   0.00000  Uiso   1.00
H833   H     0.66159   0.23656   0.69754   0.00000  Uiso   1.00
H834   H     0.56702   0.28848   0.88103   0.00000  Uiso   1.00
H835   H     0.44863   0.19336   0.53417   0.00000  Uiso   1.00
H836   H     0.56943   0.28881   0.96897   0.00000  Uiso   1.00
H837   H     0.58777   0.18517   0.87213   0.00000  Uiso   1.00
H838   H     0.64213   0.15046   0.88851   0.00000  Uiso   1.00
H839   H     0.64584   0.19763   0.84783   0.00000  Uiso   1.00
H840   H     0.63873   0.12336   0.80674   0.00000  Uiso   1.00
H841   H     0.59435   0.16411   0.78361   0.00000  Uiso   1.00
H842   H     0.53546   0.12754   0.84685   0.00000  Uiso   1.00
H843   H     0.57938   0.08466   0.85127   0.00000  Uiso   1.00
H844   H     0.33880   0.26150   0.80373   0.00000  Uiso   1.00
H845   H     0.43636   0.33174   0.59237   0.00000  Uiso   1.00
H846   H     0.39161   0.37524   0.57453   0.00000  Uiso   1.00
H847   H     0.45021   0.37260   0.54740   0.00000  Uiso   1.00
H848   H     0.45473   0.43033   0.60801   0.00000  Uiso   1.00
H849   H     0.50030   0.38844   0.62463   0.00000  Uiso   1.00
H850   H     0.43021   0.35304   0.67620   0.00000  Uiso   1.00
H851   H     0.39993   0.40379   0.66691   0.00000  Uiso   1.00
H852   H     0.64316   0.10522   0.66066   0.00000  Uiso   1.00
H853   H     0.61844   0.12763   0.71190   0.00000  Uiso   1.00
H854   H     0.65596   0.16180   0.67484   0.00000  Uiso   1.00
H855   H     0.56906   0.03141   0.79544   0.00000  Uiso   1.00
H856   H     0.36030   0.08073   0.73700   0.00000  Uiso   1.00
H857   H     0.37248   0.13679   0.75319   0.00000  Uiso   1.00
H858   H     0.42045   0.15151   0.68485   0.00000  Uiso   1.00
H859   H     0.40390   0.10049   0.65928   0.00000  Uiso   1.00
H860   H     0.61042   0.35036   0.91036   0.00000  Uiso   1.00
H861   H     0.61321   0.40883   0.91687   0.00000  Uiso   1.00
H862   H     0.57074   0.37572   0.94983   0.00000  Uiso   1.00
H863   H     0.52628   0.41725   0.87860   0.00000  Uiso   1.00
H864   H     0.51610   0.35941   0.87580   0.00000  Uiso   1.00
H865   H     0.57685   0.35199   0.81640   0.00000  Uiso   1.00
H866   H     0.45531   0.47169   0.67837   0.00000  Uiso   1.00
H867   H     0.60246   0.40466   0.82621   0.00000  Uiso   1.00
H868   H     0.65920   0.32368   0.68368   0.00000  Uiso   1.00
H869   H     0.66060   0.35891   0.63057   0.00000  Uiso   1.00
H870   H     0.36701   0.31088   0.63885   0.00000  Uiso   1.00
H871   H     0.62770   0.26179   0.62670   0.00000  Uiso   1.00
H872   H     0.62493   0.30185   0.57825   0.00000  Uiso   1.00
H873   H     0.56186   0.34412   0.61493   0.00000  Uiso   1.00
H874   H     0.56880   0.31074   0.66794   0.00000  Uiso   1.00
H875   H     0.37812   0.10943   0.85882   0.00000  Uiso   1.00
H876   H     0.43422   0.11083   0.82717   0.00000  Uiso   1.00
H877   H     0.42759   0.03191   0.70268   0.00000  Uiso   1.00
H878   H     0.43213   0.07657   0.88076   0.00000  Uiso   1.00
H879   H     0.48374   0.14163   0.90189   0.00000  Uiso   1.00
H880   H     0.42591   0.14261   0.92941   0.00000  Uiso   1.00
H881   H     0.39059   0.19953   0.87559   0.00000  Uiso   1.00
H882   H     0.43114   0.18956   0.83170   0.00000  Uiso   1.00
H883   H     0.54511   0.46823   0.81621   0.00000  Uiso   1.00
H884   H     0.54359   0.30891   0.53648   0.00000  Uiso   1.00
H885   H     0.42961   0.21423   0.95912   0.00000  Uiso   1.00
H886   H     0.44861   0.19624   0.62138   0.00000  Uiso   1.00
N887   N     0.50000   0.25001   0.62934   0.00000  Uiso   1.00
N888   N     0.50000   0.24999   0.87065   0.00000  Uiso   1.00
O889   O     0.50000   0.18573   0.79071   0.00000  Uiso   1.00
O890   O     0.50000   0.31428   0.70928   0.00000  Uiso   1.00
O891   O     0.50000   0.18573   0.70928   0.00000  Uiso   1.00
O892   O     0.50000   0.31427   0.79072   0.00000  Uiso   1.00
O893   O     0.42495   0.25000   0.78132   0.00000  Uiso   1.00
O894   O     0.57505   0.25001   0.71868   0.00000  Uiso   1.00
O895   O     0.42495   0.25000   0.69988   0.00000  Uiso   1.00
O896   O     0.57505   0.25000   0.80011   0.00000  Uiso   1.00
C897   C     0.83123   0.16520   0.75062   0.00000  Uiso   1.00
C898   C     0.87104   0.27264   0.94890   0.00000  Uiso   1.00
C899   C     0.83037   0.25125   0.52682   0.00000  Uiso   1.00
C900   C     0.83181   0.25191   0.97253   0.00000  Uiso   1.00
C901   C     0.73487   0.24882   0.73815   0.00000  Uiso   1.00
C902   C     0.93187   0.25108   0.76197   0.00000  Uiso   1.00
C903   C     0.68016   0.24547   0.73225   0.00000  Uiso   1.00
C904   C     0.98679   0.25319   0.76856   0.00000  Uiso   1.00
C905   C     0.87037   0.04811   0.77598   0.00000  Uiso   1.00
C906   C     0.80807   0.45383   0.70891   0.00000  Uiso   1.00
C907   C     0.86647   0.09283   0.78215   0.00000  Uiso   1.00
C908   C     0.83341   0.33505   0.74918   0.00000  Uiso   1.00
C909   C     0.80594   0.40806   0.70934   0.00000  Uiso   1.00
C910   C     0.82956   0.11711   0.75196   0.00000  Uiso   1.00
C911   C     0.83413   0.38354   0.74756   0.00000  Uiso   1.00
C912   C     0.79138   0.09447   0.72251   0.00000  Uiso   1.00
C913   C     0.86256   0.40661   0.78508   0.00000  Uiso   1.00
C914   C     0.79250   0.04873   0.72230   0.00000  Uiso   1.00
C915   C     0.85955   0.45212   0.78534   0.00000  Uiso   1.00
C916   C     0.83268   0.02509   0.74759   0.00000  Uiso   1.00
C917   C     0.83360   0.47639   0.74711   0.00000  Uiso   1.00
C918   C     0.89611   0.11127   0.82640   0.00000  Uiso   1.00
C919   C     0.85736   0.28266   0.55420   0.00000  Uiso   1.00
C920   C     0.93919   0.14247   0.81536   0.00000  Uiso   1.00
C921   C     0.95478   0.17040   0.85880   0.00000  Uiso   1.00
C922   C     0.77109   0.38804   0.66897   0.00000  Uiso   1.00
C923   C     0.79251   0.39548   0.62032   0.00000  Uiso   1.00
C924   C     0.76585   0.36690   0.58139   0.00000  Uiso   1.00
C925   C     0.74606   0.11682   0.69420   0.00000  Uiso   1.00
C926   C     0.69945   0.11458   0.72244   0.00000  Uiso   1.00
C927   C     0.98468   0.12825   0.69043   0.00000  Uiso   1.00
C928   C     0.89947   0.38557   0.82451   0.00000  Uiso   1.00
C929   C     0.87853   0.38579   0.87376   0.00000  Uiso   1.00
C930   C     0.79430   0.23015   0.94338   0.00000  Uiso   1.00
C931   C     0.92090   0.37966   0.91517   0.00000  Uiso   1.00
C932   C     0.90201   0.31013   0.62897   0.00000  Uiso   1.00
C933   C     0.95492   0.29701   0.61742   0.00000  Uiso   1.00
C934   C     0.99629   0.32444   0.64449   0.00000  Uiso   1.00
C935   C     0.76323   0.19117   0.87039   0.00000  Uiso   1.00
C936   C     0.77533   0.14566   0.89430   0.00000  Uiso   1.00
C937   C     0.75352   0.10846   0.86313   0.00000  Uiso   1.00
C938   C     0.86182   0.28017   0.60487   0.00000  Uiso   1.00
C939   C     0.79769   0.22597   0.89386   0.00000  Uiso   1.00
C940   C     0.80412   0.22024   0.60312   0.00000  Uiso   1.00
C941   C     0.87032   0.27211   0.89821   0.00000  Uiso   1.00
C942   C     0.80337   0.21937   0.55246   0.00000  Uiso   1.00
Cu943  Cu    0.83333   0.25000   0.79821   0.00000  Uiso   1.00
Cu944  Cu    0.83333   0.25001   0.70178   0.00000  Uiso   1.00
H945   H     0.99493   0.23656   0.69754   0.00000  Uiso   1.00
H946   H     0.90036   0.28848   0.88103   0.00000  Uiso   1.00
H947   H     0.78196   0.19336   0.53417   0.00000  Uiso   1.00
H948   H     0.90276   0.28881   0.96897   0.00000  Uiso   1.00
H949   H     0.92110   0.18517   0.87213   0.00000  Uiso   1.00
H950   H     0.97547   0.15046   0.88851   0.00000  Uiso   1.00
H951   H     0.97917   0.19763   0.84783   0.00000  Uiso   1.00
H952   H     0.97206   0.12336   0.80674   0.00000  Uiso   1.00
H953   H     0.92768   0.16411   0.78361   0.00000  Uiso   1.00
H954   H     0.86880   0.12754   0.84685   0.00000  Uiso   1.00
H955   H     0.91271   0.08466   0.85127   0.00000  Uiso   1.00
H956   H     0.67213   0.26150   0.80373   0.00000  Uiso   1.00
H957   H     0.76969   0.33174   0.59237   0.00000  Uiso   1.00
H958   H     0.72495   0.37524   0.57453   0.00000  Uiso   1.00
H959   H     0.78355   0.37260   0.54740   0.00000  Uiso   1.00
H960   H     0.78806   0.43033   0.60801   0.00000  Uiso   1.00
H961   H     0.83363   0.38844   0.62463   0.00000  Uiso   1.00
H962   H     0.76354   0.35304   0.67620   0.00000  Uiso   1.00
H963   H     0.73326   0.40379   0.66691   0.00000  Uiso   1.00
H964   H     0.97649   0.10522   0.66066   0.00000  Uiso   1.00
H965   H     0.95177   0.12763   0.71190   0.00000  Uiso   1.00
H966   H     0.98929   0.16180   0.67484   0.00000  Uiso   1.00
H967   H     0.90240   0.03141   0.79544   0.00000  Uiso   1.00
H968   H     0.69364   0.08073   0.73700   0.00000  Uiso   1.00
H969   H     0.70581   0.13679   0.75319   0.00000  Uiso   1.00
H970   H     0.75379   0.15151   0.68485   0.00000  Uiso   1.00
H971   H     0.73723   0.10049   0.65928   0.00000  Uiso   1.00
H972   H     0.94376   0.35036   0.91036   0.00000  Uiso   1.00
H973   H     0.94654   0.40883   0.91687   0.00000  Uiso   1.00
H974   H     0.90407   0.37572   0.94983   0.00000  Uiso   1.00
H975   H     0.85961   0.41725   0.87860   0.00000  Uiso   1.00
H976   H     0.84943   0.35941   0.87580   0.00000  Uiso   1.00
H977   H     0.91018   0.35199   0.81640   0.00000  Uiso   1.00
H978   H     0.78864   0.47169   0.67837   0.00000  Uiso   1.00
H979   H     0.93580   0.40466   0.82621   0.00000  Uiso   1.00
H980   H     0.99254   0.32368   0.68368   0.00000  Uiso   1.00
H981   H     0.99393   0.35891   0.63057   0.00000  Uiso   1.00
H982   H     0.70034   0.31088   0.63885   0.00000  Uiso   1.00
H983   H     0.96104   0.26179   0.62670   0.00000  Uiso   1.00
H984   H     0.95826   0.30185   0.57825   0.00000  Uiso   1.00
H985   H     0.89519   0.34412   0.61493   0.00000  Uiso   1.00
H986   H     0.90213   0.31074   0.66794   0.00000  Uiso   1.00
H987   H     0.71146   0.10943   0.85882   0.00000  Uiso   1.00
H988   H     0.76755   0.11083   0.82717   0.00000  Uiso   1.00
H989   H     0.76092   0.03191   0.70268   0.00000  Uiso   1.00
H990   H     0.76547   0.07657   0.88076   0.00000  Uiso   1.00
H991   H     0.81708   0.14163   0.90189   0.00000  Uiso   1.00
H992   H     0.75924   0.14261   0.92941   0.00000  Uiso   1.00
H993   H     0.72393   0.19953   0.87559   0.00000  Uiso   1.00
H994   H     0.76447   0.18956   0.83170   0.00000  Uiso   1.00
H995   H     0.87845   0.46823   0.81621   0.00000  Uiso   1.00
H996   H     0.87692   0.30891   0.53648   0.00000  Uiso   1.00
H997   H     0.76295   0.21423   0.95912   0.00000  Uiso   1.00
H998   H     0.78194   0.19624   0.62138   0.00000  Uiso   1.00
N999   N     0.83333   0.25001   0.62934   0.00000  Uiso   1.00
N1000  N     0.83333   0.24999   0.87065   0.00000  Uiso   1.00
O1001  O     0.83334   0.18573   0.79071   0.00000  Uiso   1.00
O1002  O     0.83333   0.31428   0.70928   0.00000  Uiso   1.00
O1003  O     0.83334   0.18573   0.70928   0.00000  Uiso   1.00
O1004  O     0.83333   0.31427   0.79072   0.00000  Uiso   1.00
O1005  O     0.75828   0.25000   0.78132   0.00000  Uiso   1.00
O1006  O     0.90839   0.25001   0.71868   0.00000  Uiso   1.00
O1007  O     0.75828   0.25000   0.69988   0.00000  Uiso   1.00
O1008  O     0.90839   0.25000   0.80011   0.00000  Uiso   1.00
C1009  C     0.16456   0.66520   0.75062   0.00000  Uiso   1.00
C1010  C     0.20437   0.77264   0.94890   0.00000  Uiso   1.00
C1011  C     0.16370   0.75125   0.52682   0.00000  Uiso   1.00
C1012  C     0.16514   0.75191   0.97253   0.00000  Uiso   1.00
C1013  C     0.06821   0.74882   0.73815   0.00000  Uiso   1.00
C1014  C     0.26520   0.75108   0.76197   0.00000  Uiso   1.00
C1015  C     0.01350   0.74547   0.73225   0.00000  Uiso   1.00
C1016  C     0.32012   0.75319   0.76856   0.00000  Uiso   1.00
C1017  C     0.20370   0.54811   0.77598   0.00000  Uiso   1.00
C1018  C     0.14140   0.95383   0.70891   0.00000  Uiso   1.00
C1019  C     0.19980   0.59283   0.78215   0.00000  Uiso   1.00
C1020  C     0.16675   0.83505   0.74918   0.00000  Uiso   1.00
C1021  C     0.13927   0.90806   0.70934   0.00000  Uiso   1.00
C1022  C     0.16289   0.61711   0.75196   0.00000  Uiso   1.00
C1023  C     0.16747   0.88354   0.74756   0.00000  Uiso   1.00
C1024  C     0.12472   0.59447   0.72251   0.00000  Uiso   1.00
C1025  C     0.19590   0.90661   0.78508   0.00000  Uiso   1.00
C1026  C     0.12583   0.54873   0.72230   0.00000  Uiso   1.00
C1027  C     0.19289   0.95212   0.78534   0.00000  Uiso   1.00
C1028  C     0.16601   0.52509   0.74759   0.00000  Uiso   1.00
C1029  C     0.16693   0.97639   0.74711   0.00000  Uiso   1.00
C1030  C     0.22944   0.61127   0.82640   0.00000  Uiso   1.00
C1031  C     0.19069   0.78266   0.55420   0.00000  Uiso   1.00
C1032  C     0.27252   0.64247   0.81536   0.00000  Uiso   1.00
C1033  C     0.28811   0.67040   0.85880   0.00000  Uiso   1.00
C1034  C     0.10442   0.88804   0.66897   0.00000  Uiso   1.00
C1035  C     0.12584   0.89548   0.62032   0.00000  Uiso   1.00
C1036  C     0.09918   0.86690   0.58139   0.00000  Uiso   1.00
C1037  C     0.07939   0.61682   0.69420   0.00000  Uiso   1.00
C1038  C     0.03279   0.61458   0.72244   0.00000  Uiso   1.00
C1039  C     0.31802   0.62825   0.69043   0.00000  Uiso   1.00
C1040  C     0.23280   0.88557   0.82451   0.00000  Uiso   1.00
C1041  C     0.21186   0.88579   0.87376   0.00000  Uiso   1.00
C1042  C     0.12763   0.73015   0.94338   0.00000  Uiso   1.00
C1043  C     0.25423   0.87966   0.91517   0.00000  Uiso   1.00
C1044  C     0.23534   0.81013   0.62897   0.00000  Uiso   1.00
C1045  C     0.28825   0.79701   0.61742   0.00000  Uiso   1.00
C1046  C     0.32963   0.82444   0.64449   0.00000  Uiso   1.00
C1047  C     0.09656   0.69117   0.87039   0.00000  Uiso   1.00
C1048  C     0.10866   0.64566   0.89430   0.00000  Uiso   1.00
C1049  C     0.08685   0.60846   0.86313   0.00000  Uiso   1.00
C1050  C     0.19515   0.78017   0.60487   0.00000  Uiso   1.00
C1051  C     0.13102   0.72597   0.89386   0.00000  Uiso   1.00
C1052  C     0.13745   0.72024   0.60312   0.00000  Uiso   1.00
C1053  C     0.20365   0.77211   0.89821   0.00000  Uiso   1.00
C1054  C     0.13670   0.71937   0.55246   0.00000  Uiso   1.00
Cu1055 Cu    0.16667   0.75000   0.79821   0.00000  Uiso   1.00
Cu1056 Cu    0.16667   0.75001   0.70178   0.00000  Uiso   1.00
H1057  H     0.32826   0.73656   0.69754   0.00000  Uiso   1.00
H1058  H     0.23369   0.78848   0.88103   0.00000  Uiso   1.00
H1059  H     0.11529   0.69336   0.53417   0.00000  Uiso   1.00
H1060  H     0.23610   0.78881   0.96897   0.00000  Uiso   1.00
H1061  H     0.25443   0.68517   0.87213   0.00000  Uiso   1.00
H1062  H     0.30880   0.65046   0.88851   0.00000  Uiso   1.00
H1063  H     0.31250   0.69763   0.84783   0.00000  Uiso   1.00
H1064  H     0.30539   0.62336   0.80674   0.00000  Uiso   1.00
H1065  H     0.26102   0.66411   0.78361   0.00000  Uiso   1.00
H1066  H     0.20213   0.62754   0.84685   0.00000  Uiso   1.00
H1067  H     0.24605   0.58466   0.85127   0.00000  Uiso   1.00
H1068  H     0.00547   0.76150   0.80373   0.00000  Uiso   1.00
H1069  H     0.10302   0.83174   0.59237   0.00000  Uiso   1.00
H1070  H     0.05828   0.87524   0.57453   0.00000  Uiso   1.00
H1071  H     0.11688   0.87260   0.54740   0.00000  Uiso   1.00
H1072  H     0.12139   0.93033   0.60801   0.00000  Uiso   1.00
H1073  H     0.16697   0.88844   0.62463   0.00000  Uiso   1.00
H1074  H     0.09687   0.85304   0.67620   0.00000  Uiso   1.00
H1075  H     0.06660   0.90379   0.66691   0.00000  Uiso   1.00
H1076  H     0.30982   0.60522   0.66066   0.00000  Uiso   1.00
H1077  H     0.28510   0.62763   0.71190   0.00000  Uiso   1.00
H1078  H     0.32263   0.66180   0.67484   0.00000  Uiso   1.00
H1079  H     0.23573   0.53141   0.79544   0.00000  Uiso   1.00
H1080  H     0.02697   0.58073   0.73700   0.00000  Uiso   1.00
H1081  H     0.03915   0.63679   0.75319   0.00000  Uiso   1.00
H1082  H     0.08712   0.65151   0.68485   0.00000  Uiso   1.00
H1083  H     0.07056   0.60049   0.65928   0.00000  Uiso   1.00
H1084  H     0.27709   0.85036   0.91036   0.00000  Uiso   1.00
H1085  H     0.27987   0.90883   0.91687   0.00000  Uiso   1.00
H1086  H     0.23741   0.87572   0.94983   0.00000  Uiso   1.00
H1087  H     0.19295   0.91725   0.87860   0.00000  Uiso   1.00
H1088  H     0.18277   0.85941   0.87580   0.00000  Uiso   1.00
H1089  H     0.24351   0.85199   0.81640   0.00000  Uiso   1.00
H1090  H     0.12197   0.97169   0.67837   0.00000  Uiso   1.00
H1091  H     0.26913   0.90466   0.82621   0.00000  Uiso   1.00
H1092  H     0.32587   0.82368   0.68368   0.00000  Uiso   1.00
H1093  H     0.32726   0.85891   0.63057   0.00000  Uiso   1.00
H1094  H     0.03368   0.81088   0.63885   0.00000  Uiso   1.00
H1095  H     0.29437   0.76179   0.62670   0.00000  Uiso   1.00
H1096  H     0.29159   0.80185   0.57825   0.00000  Uiso   1.00
H1097  H     0.22852   0.84412   0.61493   0.00000  Uiso   1.00
H1098  H     0.23547   0.81074   0.66794   0.00000  Uiso   1.00
H1099  H     0.04479   0.60943   0.85882   0.00000  Uiso   1.00
H1100  H     0.10089   0.61083   0.82717   0.00000  Uiso   1.00
H1101  H     0.09426   0.53191   0.70268   0.00000  Uiso   1.00
H1102  H     0.09880   0.57657   0.88076   0.00000  Uiso   1.00
H1103  H     0.15041   0.64163   0.90189   0.00000  Uiso   1.00
H1104  H     0.09257   0.64261   0.92941   0.00000  Uiso   1.00
H1105  H     0.05726   0.69953   0.87559   0.00000  Uiso   1.00
H1106  H     0.09780   0.68956   0.83170   0.00000  Uiso   1.00
H1107  H     0.21178   0.96823   0.81621   0.00000  Uiso   1.00
H1108  H     0.21026   0.80891   0.53648   0.00000  Uiso   1.00
H1109  H     0.09628   0.71423   0.95912   0.00000  Uiso   1.00
H1110  H     0.11528   0.69624   0.62138   0.00000  Uiso   1.00
N1111  N     0.16667   0.75001   0.62934   0.00000  Uiso   1.00
N1112  N     0.16667   0.74999   0.87065   0.00000  Uiso   1.00
O1113  O     0.16667   0.68573   0.79071   0.00000  Uiso   1.00
O1114  O     0.16666   0.81428   0.70928   0.00000  Uiso   1.00
O1115  O     0.16667   0.68573   0.70928   0.00000  Uiso   1.00
O1116  O     0.16666   0.81427   0.79072   0.00000  Uiso   1.00
O1117  O     0.09161   0.75000   0.78132   0.00000  Uiso   1.00
O1118  O     0.24172   0.75001   0.71868   0.00000  Uiso   1.00
O1119  O     0.09161   0.75000   0.69988   0.00000  Uiso   1.00
O1120  O     0.24172   0.75000   0.80011   0.00000  Uiso   1.00
C1121  C     0.49789   0.66520   0.75062   0.00000  Uiso   1.00
C1122  C     0.53771   0.77264   0.94890   0.00000  Uiso   1.00
C1123  C     0.49704   0.75125   0.52682   0.00000  Uiso   1.00
C1124  C     0.49847   0.75191   0.97253   0.00000  Uiso   1.00
C1125  C     0.40154   0.74882   0.73815   0.00000  Uiso   1.00
C1126  C     0.59854   0.75108   0.76197   0.00000  Uiso   1.00
C1127  C     0.34683   0.74547   0.73225   0.00000  Uiso   1.00
C1128  C     0.65345   0.75319   0.76856   0.00000  Uiso   1.00
C1129  C     0.53703   0.54811   0.77598   0.00000  Uiso   1.00
C1130  C     0.47474   0.95383   0.70891   0.00000  Uiso   1.00
C1131  C     0.53314   0.59283   0.78215   0.00000  Uiso   1.00
C1132  C     0.50008   0.83505   0.74918   0.00000  Uiso   1.00
C1133  C     0.47261   0.90806   0.70934   0.00000  Uiso   1.00
C1134  C     0.49622   0.61711   0.75196   0.00000  Uiso   1.00
C1135  C     0.50080   0.88354   0.74756   0.00000  Uiso   1.00
C1136  C     0.45805   0.59447   0.72251   0.00000  Uiso   1.00
C1137  C     0.52923   0.90661   0.78508   0.00000  Uiso   1.00
C1138  C     0.45917   0.54873   0.72230   0.00000  Uiso   1.00
C1139  C     0.52622   0.95212   0.78534   0.00000  Uiso   1.00
C1140  C     0.49934   0.52509   0.74759   0.00000  Uiso   1.00
C1141  C     0.50026   0.97639   0.74711   0.00000  Uiso   1.00
C1142  C     0.56277   0.61127   0.82640   0.00000  Uiso   1.00
C1143  C     0.52402   0.78266   0.55420   0.00000  Uiso   1.00
C1144  C     0.60586   0.64247   0.81536   0.00000  Uiso   1.00
C1145  C     0.62144   0.67040   0.85880   0.00000  Uiso   1.00
C1146  C     0.43775   0.88804   0.66897   0.00000  Uiso   1.00
C1147  C     0.45918   0.89548   0.62032   0.00000  Uiso   1.00
C1148  C     0.43252   0.86690   0.58139   0.00000  Uiso   1.00
C1149  C     0.41272   0.61682   0.69420   0.00000  Uiso   1.00
C1150  C     0.36612   0.61458   0.72244   0.00000  Uiso   1.00
C1151  C     0.65135   0.62825   0.69043   0.00000  Uiso   1.00
C1152  C     0.56614   0.88557   0.82451   0.00000  Uiso   1.00
C1153  C     0.54520   0.88579   0.87376   0.00000  Uiso   1.00
C1154  C     0.46096   0.73015   0.94338   0.00000  Uiso   1.00
C1155  C     0.58756   0.87966   0.91517   0.00000  Uiso   1.00
C1156  C     0.56868   0.81013   0.62897   0.00000  Uiso   1.00
C1157  C     0.62159   0.79701   0.61742   0.00000  Uiso   1.00
C1158  C     0.66296   0.82444   0.64449   0.00000  Uiso   1.00
C1159  C     0.42989   0.69117   0.87039   0.00000  Uiso   1.00
C1160  C     0.44200   0.64566   0.89430   0.00000  Uiso   1.00
C1161  C     0.42018   0.60846   0.86313   0.00000  Uiso   1.00
C1162  C     0.52849   0.78017   0.60487   0.00000  Uiso   1.00
C1163  C     0.46435   0.72597   0.89386   0.00000  Uiso   1.00
C1164  C     0.47079   0.72024   0.60312   0.00000  Uiso   1.00
C1165  C     0.53699   0.77211   0.89821   0.00000  Uiso   1.00
C1166  C     0.47003   0.71937   0.55246   0.00000  Uiso   1.00
Cu1167 Cu    0.50000   0.75000   0.79821   0.00000  Uiso   1.00
Cu1168 Cu    0.50000   0.75001   0.70178   0.00000  Uiso   1.00
H1169  H     0.66159   0.73656   0.69754   0.00000  Uiso   1.00
H1170  H     0.56702   0.78848   0.88103   0.00000  Uiso   1.00
H1171  H     0.44863   0.69336   0.53417   0.00000  Uiso   1.00
H1172  H     0.56943   0.78881   0.96897   0.00000  Uiso   1.00
H1173  H     0.58777   0.68517   0.87213   0.00000  Uiso   1.00
H1174  H     0.64213   0.65046   0.88851   0.00000  Uiso   1.00
H1175  H     0.64584   0.69763   0.84783   0.00000  Uiso   1.00
H1176  H     0.63873   0.62336   0.80674   0.00000  Uiso   1.00
H1177  H     0.59435   0.66411   0.78361   0.00000  Uiso   1.00
H1178  H     0.53546   0.62754   0.84685   0.00000  Uiso   1.00
H1179  H     0.57938   0.58466   0.85127   0.00000  Uiso   1.00
H1180  H     0.33880   0.76150   0.80373   0.00000  Uiso   1.00
H1181  H     0.43636   0.83174   0.59237   0.00000  Uiso   1.00
H1182  H     0.39161   0.87524   0.57453   0.00000  Uiso   1.00
H1183  H     0.45021   0.87260   0.54740   0.00000  Uiso   1.00
H1184  H     0.45473   0.93033   0.60801   0.00000  Uiso   1.00
H1185  H     0.50030   0.88844   0.62463   0.00000  Uiso   1.00
H1186  H     0.43021   0.85304   0.67620   0.00000  Uiso   1.00
H1187  H     0.39993   0.90379   0.66691   0.00000  Uiso   1.00
H1188  H     0.64316   0.60522   0.66066   0.00000  Uiso   1.00
H1189  H     0.61844   0.62763   0.71190   0.00000  Uiso   1.00
H1190  H     0.65596   0.66180   0.67484   0.00000  Uiso   1.00
H1191  H     0.56906   0.53141   0.79544   0.00000  Uiso   1.00
H1192  H     0.36030   0.58073   0.73700   0.00000  Uiso   1.00
H1193  H     0.37248   0.63679   0.75319   0.00000  Uiso   1.00
H1194  H     0.42045   0.65151   0.68485   0.00000  Uiso   1.00
H1195  H     0.40390   0.60049   0.65928   0.00000  Uiso   1.00
H1196  H     0.61042   0.85036   0.91036   0.00000  Uiso   1.00
H1197  H     0.61321   0.90883   0.91687   0.00000  Uiso   1.00
H1198  H     0.57074   0.87572   0.94983   0.00000  Uiso   1.00
H1199  H     0.52628   0.91725   0.87860   0.00000  Uiso   1.00
H1200  H     0.51610   0.85941   0.87580   0.00000  Uiso   1.00
H1201  H     0.57685   0.85199   0.81640   0.00000  Uiso   1.00
H1202  H     0.45531   0.97169   0.67837   0.00000  Uiso   1.00
H1203  H     0.60246   0.90466   0.82621   0.00000  Uiso   1.00
H1204  H     0.65920   0.82368   0.68368   0.00000  Uiso   1.00
H1205  H     0.66060   0.85891   0.63057   0.00000  Uiso   1.00
H1206  H     0.36701   0.81088   0.63885   0.00000  Uiso   1.00
H1207  H     0.62770   0.76179   0.62670   0.00000  Uiso   1.00
H1208  H     0.62493   0.80185   0.57825   0.00000  Uiso   1.00
H1209  H     0.56186   0.84412   0.61493   0.00000  Uiso   1.00
H1210  H     0.56880   0.81074   0.66794   0.00000  Uiso   1.00
H1211  H     0.37812   0.60943   0.85882   0.00000  Uiso   1.00
H1212  H     0.43422   0.61083   0.82717   0.00000  Uiso   1.00
H1213  H     0.42759   0.53191   0.70268   0.00000  Uiso   1.00
H1214  H     0.43213   0.57657   0.88076   0.00000  Uiso   1.00
H1215  H     0.48374   0.64163   0.90189   0.00000  Uiso   1.00
H1216  H     0.42591   0.64261   0.92941   0.00000  Uiso   1.00
H1217  H     0.39059   0.69953   0.87559   0.00000  Uiso   1.00
H1218  H     0.43114   0.68956   0.83170   0.00000  Uiso   1.00
H1219  H     0.54511   0.96823   0.81621   0.00000  Uiso   1.00
H1220  H     0.54359   0.80891   0.53648   0.00000  Uiso   1.00
H1221  H     0.42961   0.71423   0.95912   0.00000  Uiso   1.00
H1222  H     0.44861   0.69624   0.62138   0.00000  Uiso   1.00
N1223  N     0.50000   0.75001   0.62934   0.00000  Uiso   1.00
N1224  N     0.50000   0.74999   0.87065   0.00000  Uiso   1.00
O1225  O     0.50000   0.68573   0.79071   0.00000  Uiso   1.00
O1226  O     0.50000   0.81428   0.70928   0.00000  Uiso   1.00
O1227  O     0.50000   0.68573   0.70928   0.00000  Uiso   1.00
O1228  O     0.50000   0.81427   0.79072   0.00000  Uiso   1.00
O1229  O     0.42495   0.75000   0.78132   0.00000  Uiso   1.00
O1230  O     0.57505   0.75001   0.71868   0.00000  Uiso   1.00
O1231  O     0.42495   0.75000   0.69988   0.00000  Uiso   1.00
O1232  O     0.57505   0.75000   0.80011   0.00000  Uiso   1.00
C1233  C     0.83123   0.66520   0.75062   0.00000  Uiso   1.00
C1234  C     0.87104   0.77264   0.94890   0.00000  Uiso   1.00
C1235  C     0.83037   0.75125   0.52682   0.00000  Uiso   1.00
C1236  C     0.83181   0.75191   0.97253   0.00000  Uiso   1.00
C1237  C     0.73487   0.74882   0.73815   0.00000  Uiso   1.00
C1238  C     0.93187   0.75108   0.76197   0.00000  Uiso   1.00
C1239  C     0.68016   0.74547   0.73225   0.00000  Uiso   1.00
C1240  C     0.98679   0.75319   0.76856   0.00000  Uiso   1.00
C1241  C     0.87037   0.54811   0.77598   0.00000  Uiso   1.00
C1242  C     0.80807   0.95383   0.70891   0.00000  Uiso   1.00
C1243  C     0.86647   0.59283   0.78215   0.00000  Uiso   1.00
C1244  C     0.83341   0.83505   0.74918   0.00000  Uiso   1.00
C1245  C     0.80594   0.90806   0.70934   0.00000  Uiso   1.00
C1246  C     0.82956   0.61711   0.75196   0.00000  Uiso   1.00
C1247  C     0.83413   0.88354   0.74756   0.00000  Uiso   1.00
C1248  C     0.79138   0.59447   0.72251   0.00000  Uiso   1.00
C1249  C     0.86256   0.90661   0.78508   0.00000  Uiso   1.00
C1250  C     0.79250   0.54873   0.72230   0.00000  Uiso   1.00
C1251  C     0.85955   0.95212   0.78534   0.00000  Uiso   1.00
C1252  C     0.83268   0.52509   0.74759   0.00000  Uiso   1.00
C1253  C     0.83360   0.97639   0.74711   0.00000  Uiso   1.00
C1254  C     0.89611   0.61127   0.82640   0.00000  Uiso   1.00
C1255  C     0.85736   0.78266   0.55420   0.00000  Uiso   1.00
C1256  C     0.93919   0.64247   0.81536   0.00000  Uiso   1.00
C1257  C     0.95478   0.67040   0.85880   0.00000  Uiso   1.00
C1258  C     0.77109   0.88804   0.66897   0.00000  Uiso   1.00
C1259  C     0.79251   0.89548   0.62032   0.00000  Uiso   1.00
C1260  C     0.76585   0.86690   0.58139   0.00000  Uiso   1.00
C1261  C     0.74606   0.61682   0.69420   0.00000  Uiso   1.00
C1262  C     0.69945   0.61458   0.72244   0.00000  Uiso   1.00
C1263  C     0.98468   0.62825   0.69043   0.00000  Uiso   1.00
C1264  C     0.89947   0.88557   0.82451   0.00000  Uiso   1.00
C1265  C     0.87853   0.88579   0.87376   0.00000  Uiso   1.00
C1266  C     0.79430   0.73015   0.94338   0.00000  Uiso   1.00
C1267  C     0.92090   0.87966   0.91517   0.00000  Uiso   1.00
C1268  C     0.90201   0.81013   0.62897   0.00000  Uiso   1.00
C1269  C     0.95492   0.79701   0.61742   0.00000  Uiso   1.00
C1270  C     0.99629   0.82444   0.64449   0.00000  Uiso   1.00
C1271  C     0.76323   0.69117   0.87039   0.00000  Uiso   1.00
C1272  C     0.77533   0.64566   0.89430   0.00000  Uiso   1.00
C1273  C     0.75352   0.60846   0.86313   0.00000  Uiso   1.00
C1274  C     0.86182   0.78017   0.60487   0.00000  Uiso   1.00
C1275  C     0.79769   0.72597   0.89386   0.00000  Uiso   1.00
C1276  C     0.80412   0.72024   0.60312   0.00000  Uiso   1.00
C1277  C     0.87032   0.77211   0.89821   0.00000  Uiso   1.00
C1278  C     0.80337   0.71937   0.55246   0.00000  Uiso   1.00
Cu1279 Cu    0.83333   0.75000   0.79821   0.00000  Uiso   1.00
Cu1280 Cu    0.83333   0.75001   0.70178   0.00000  Uiso   1.00
H1281  H     0.99493   0.73656   0.69754   0.00000  Uiso   1.00
H1282  H     0.90036   0.78848   0.88103   0.00000  Uiso   1.00
H1283  H     0.78196   0.69336   0.53417   0.00000  Uiso   1.00
H1284  H     0.90276   0.78881   0.96897   0.00000  Uiso   1.00
H1285  H     0.92110   0.68517   0.87213   0.00000  Uiso   1.00
H1286  H     0.97547   0.65046   0.88851   0.00000  Uiso   1.00
H1287  H     0.97917   0.69763   0.84783   0.00000  Uiso   1.00
H1288  H     0.97206   0.62336   0.80674   0.00000  Uiso   1.00
H1289  H     0.92768   0.66411   0.78361   0.00000  Uiso   1.00
H1290  H     0.86880   0.62754   0.84685   0.00000  Uiso   1.00
H1291  H     0.91271   0.58466   0.85127   0.00000  Uiso   1.00
H1292  H     0.67213   0.76150   0.80373   0.00000  Uiso   1.00
H1293  H     0.76969   0.83174   0.59237   0.00000  Uiso   1.00
H1294  H     0.72495   0.87524   0.57453   0.00000  Uiso   1.00
H1295  H     0.78355   0.87260   0.54740   0.00000  Uiso   1.00
H1296  H     0.78806   0.93033   0.60801   0.00000  Uiso   1.00
H1297  H     0.83363   0.88844   0.62463   0.00000  Uiso   1.00
H1298  H     0.76354   0.85304   0.67620   0.00000  Uiso   1.00
H1299  H     0.73326   0.90379   0.66691   0.00000  Uiso   1.00
H1300  H     0.97649   0.60522   0.66066   0.00000  Uiso   1.00
H1301  H     0.95177   0.62763   0.71190   0.00000  Uiso   1.00
H1302  H     0.98929   0.66180   0.67484   0.00000  Uiso   1.00
H1303  H     0.90240   0.53141   0.79544   0.00000  Uiso   1.00
H1304  H     0.69364   0.58073   0.73700   0.00000  Uiso   1.00
H1305  H     0.70581   0.63679   0.75319   0.00000  Uiso   1.00
H1306  H     0.75379   0.65151   0.68485   0.00000  Uiso   1.00
H1307  H     0.73723   0.60049   0.65928   0.00000  Uiso   1.00
H1308  H     0.94376   0.85036   0.91036   0.00000  Uiso   1.00
H1309  H     0.94654   0.90883   0.91687   0.00000  Uiso   1.00
H1310  H     0.90407   0.87572   0.94983   0.00000  Uiso   1.00
H1311  H     0.85961   0.91725   0.87860   0.00000  Uiso   1.00
H1312  H     0.84943   0.85941   0.87580   0.00000  Uiso   1.00
H1313  H     0.91018   0.85199   0.81640   0.00000  Uiso   1.00
H1314  H     0.78864   0.97169   0.67837   0.00000  Uiso   1.00
H1315  H     0.93580   0.90466   0.82621   0.00000  Uiso   1.00
H1316  H     0.99254   0.82368   0.68368   0.00000  Uiso   1.00
H1317  H     0.99393   0.85891   0.63057   0.00000  Uiso   1.00
H1318  H     0.70034   0.81088   0.63885   0.00000  Uiso   1.00
H1319  H     0.96104   0.76179   0.62670   0.00000  Uiso   1.00
H1320  H     0.95826   0.80185   0.57825   0.00000  Uiso   1.00
H1321  H     0.89519   0.84412   0.61493   0.00000  Uiso   1.00
H1322  H     0.90213   0.81074   0.66794   0.00000  Uiso   1.00
H1323  H     0.71146   0.60943   0.85882   0.00000  Uiso   1.00
H1324  H     0.76755   0.61083   0.82717   0.00000  Uiso   1.00
H1325  H     0.76092   0.53191   0.70268   0.00000  Uiso   1.00
H1326  H     0.76547   0.57657   0.88076   0.00000  Uiso   1.00
H1327  H     0.81708   0.64163   0.90189   0.00000  Uiso   1.00
H1328  H     0.75924   0.64261   0.92941   0.00000  Uiso   1.00
H1329  H     0.72393   0.69953   0.87559   0.00000  Uiso   1.00
H1330  H     0.76447   0.68956   0.83170   0.00000  Uiso   1.00
H1331  H     0.87845   0.96823   0.81621   0.00000  Uiso   1.00
H1332  H     0.87692   0.80891   0.53648   0.00000  Uiso   1.00
H1333  H     0.76295   0.71423   0.95912   0.00000  Uiso   1.00
H1334  H     0.78194   0.69624   0.62138   0.00000  Uiso   1.00
N1335  N     0.83333   0.75001   0.62934   0.00000  Uiso   1.00
N1336  N     0.83333   0.74999   0.87065   0.00000  Uiso   1.00
O1337  O     0.83334   0.68573   0.79071   0.00000  Uiso   1.00
O1338  O     0.83333   0.81428   0.70928   0.00000  Uiso   1.00
O1339  O     0.83334   0.68573   0.70928   0.00000  Uiso   1.00
O1340  O     0.83333   0.81427   0.79072   0.00000  Uiso   1.00
O1341  O     0.75828   0.75000   0.78132   0.00000  Uiso   1.00
O1342  O     0.90839   0.75001   0.71868   0.00000  Uiso   1.00
O1343  O     0.75828   0.75000   0.69988   0.00000  Uiso   1.00
O1344  O     0.90839   0.75000   0.80011   0.00000  Uiso   1.00
loop_
_geom_bond_atom_site_label_1
_geom_bond_atom_site_label_2
_geom_bond_distance
_geom_bond_site_symmetry_2
_ccdc_geom_bond_type
C1     O107    1.299   .     A
C1     C14     1.469   .     S
C1     O105    1.300   .     A
C2     C45     1.415   .     A
C2     C4      1.418   .     A
C2     H52     1.080   .     S
C3     C23     1.389   .     A
C3     C46     1.418   .     A
C3     C676    1.520   1_554 S
C4     C34     1.390   .     A
C4     C675    1.520   .     S
C5     O111    1.292   .     A
C5     C7      1.440   .     S
C5     O109    1.295   .     A
C6     O110    1.299   .     A
C6     C8      1.444   .     S
C6     O112    1.290   .     A
C7     C232    1.328   1_455 S
C7     H273    1.080   1_455 S
C8     C119    1.328   .     S
C8     H172    1.087   .     S
C9     H71     1.080   .     S
C9     C20     1.401   .     A
C9     C11     1.391   .     A
C10    C21     1.397   .     A
C10    C13     1.399   .     A
C10    H82     1.080   .     S
C11    C14     1.418   .     A
C11    C22     1.512   .     S
C12    O108    1.302   .     A
C12    C15     1.481   .     S
C12    O106    1.303   .     A
C13    C15     1.429   .     A
C13    C26     1.517   .     S
C14    C16     1.419   .     A
C15    C17     1.424   .     A
C16    C29     1.519   .     S
C16    C18     1.400   .     A
C17    C19     1.395   .     A
C17    C32     1.520   .     S
C18    C20     1.404   .     A
C18    H93     1.081   .     S
C19    C21     1.399   .     A
C19    H99     1.080   .     S
C20    C357    1.490   1_545 S
C21    C356    1.490   .     S
C22    H59     1.113   .     S
C22    H58     1.104   .     S
C22    C24     1.524   .     S
C23    C42     1.407   .     A
C23    H100    1.081   .     S
C24    H57     1.105   .     S
C24    C25     1.526   .     S
C24    H56     1.108   .     S
C25    H53     1.111   .     S
C25    H54     1.110   .     S
C25    H55     1.100   .     S
C26    C27     1.536   .     S
C26    H67     1.112   .     S
C26    H66     1.101   .     S
C27    H65     1.105   .     S
C27    H64     1.111   .     S
C27    C28     1.525   .     S
C28    H61     1.110   .     S
C28    H63     1.110   .     S
C28    H62     1.110   .     S
C29    C30     1.534   .     S
C29    H74     1.104   .     S
C29    H75     1.113   .     S
C30    H73     1.112   .     S
C30    H72     1.112   .     S
C30    C255    1.527   1_455 S
C31    H70     1.109   .     S
C31    H68     1.111   .     S
C31    H69     1.109   .     S
C31    C142    1.527   .     S
C32    H81     1.108   .     S
C32    H83     1.113   .     S
C32    C33     1.539   .     S
C33    C35     1.528   .     S
C33    H79     1.111   .     S
C33    H80     1.110   .     S
C34    H101    1.081   .     S
C34    C43     1.406   .     A
C35    H76     1.109   .     S
C35    H77     1.111   .     S
C35    H78     1.110   .     S
C36    H89     1.107   .     S
C36    C37     1.533   .     S
C36    C42     1.510   .     S
C36    H90     1.089   .     S
C37    H88     1.111   .     S
C37    C38     1.519   .     S
C37    H87     1.108   .     S
C38    H85     1.110   .     S
C38    H84     1.109   .     S
C38    H198    1.107   .     S
C39    H97     1.100   .     S
C39    C40     1.543   .     S
C39    H98     1.088   .     S
C39    C43     1.511   .     S
C40    H96     1.111   .     S
C40    C41     1.525   .     S
C40    H95     1.109   .     S
C41    H94     1.110   .     S
C41    H92     1.108   .     S
C41    H91     1.106   .     S
C42    N103    1.388   .     A
C43    N104    1.387   .     A
C44    N103    1.366   .     A
C44    C46     1.414   .     A
C44    H102    1.080   .     S
C45    N104    1.363   .     A
C45    H50     1.079   .     S
C46    H51     1.080   .     S
Cu47   O112    1.980   .     S
Cu47   Cu48    2.693   .     S
Cu47   O105    1.984   .     S
Cu47   O109    1.989   .     S
Cu47   N104    2.023   .     S
Cu47   O108    1.968   .     S
Cu48   O110    1.989   .     S
Cu48   O107    1.968   .     S
Cu48   O106    1.984   .     S
Cu48   N103    2.023   .     S
Cu48   O111    1.980   .     S
H49    C119    1.080   .     S
H60    C232    1.087   1_455 S
H86    C262    1.107   1_455 S
C113   O219    1.299   .     A
C113   C126    1.469   .     S
C113   O217    1.300   .     A
C114   C157    1.415   .     A
C114   C116    1.418   .     A
C114   H164    1.080   .     S
C115   C135    1.389   .     A
C115   C158    1.418   .     A
C115   C788    1.520   1_554 S
C116   C146    1.390   .     A
C116   C787    1.520   .     S
C117   O223    1.292   .     A
C117   C119    1.440   .     S
C117   O221    1.295   .     A
C118   O222    1.299   .     A
C118   C120    1.444   .     S
C118   O224    1.290   .     A
C120   C231    1.328   .     S
C120   H284    1.087   .     S
C121   H183    1.080   .     S
C121   C132    1.401   .     A
C121   C123    1.391   .     A
C122   C133    1.397   .     A
C122   C125    1.399   .     A
C122   H194    1.080   .     S
C123   C126    1.418   .     A
C123   C134    1.512   .     S
C124   O220    1.302   .     A
C124   C127    1.481   .     S
C124   O218    1.303   .     A
C125   C127    1.429   .     A
C125   C138    1.517   .     S
C126   C128    1.419   .     A
C127   C129    1.424   .     A
C128   C141    1.519   .     S
C128   C130    1.400   .     A
C129   C131    1.395   .     A
C129   C144    1.520   .     S
C130   C132    1.404   .     A
C130   H205    1.081   .     S
C131   C133    1.399   .     A
C131   H211    1.080   .     S
C132   C469    1.490   1_545 S
C133   C468    1.490   .     S
C134   H171    1.113   .     S
C134   H170    1.104   .     S
C134   C136    1.524   .     S
C135   C154    1.407   .     A
C135   H212    1.081   .     S
C136   H169    1.105   .     S
C136   C137    1.526   .     S
C136   H168    1.108   .     S
C137   H165    1.111   .     S
C137   H166    1.110   .     S
C137   H167    1.100   .     S
C138   C139    1.536   .     S
C138   H179    1.112   .     S
C138   H178    1.101   .     S
C139   H177    1.105   .     S
C139   H176    1.111   .     S
C139   C140    1.525   .     S
C140   H173    1.110   .     S
C140   H175    1.110   .     S
C140   H174    1.110   .     S
C141   C142    1.534   .     S
C141   H186    1.104   .     S
C141   H187    1.113   .     S
C142   H185    1.112   .     S
C142   H184    1.112   .     S
C143   H182    1.109   .     S
C143   H180    1.111   .     S
C143   H181    1.109   .     S
C143   C254    1.527   .     S
C144   H193    1.108   .     S
C144   H195    1.113   .     S
C144   C145    1.539   .     S
C145   C147    1.528   .     S
C145   H191    1.111   .     S
C145   H192    1.110   .     S
C146   H213    1.081   .     S
C146   C155    1.406   .     A
C147   H188    1.109   .     S
C147   H189    1.111   .     S
C147   H190    1.110   .     S
C148   H201    1.107   .     S
C148   C149    1.533   .     S
C148   C154    1.510   .     S
C148   H202    1.089   .     S
C149   H200    1.111   .     S
C149   C150    1.519   .     S
C149   H199    1.108   .     S
C150   H197    1.110   .     S
C150   H196    1.109   .     S
C150   H310    1.107   .     S
C151   H209    1.100   .     S
C151   C152    1.543   .     S
C151   H210    1.088   .     S
C151   C155    1.511   .     S
C152   H208    1.111   .     S
C152   C153    1.525   .     S
C152   H207    1.109   .     S
C153   H206    1.110   .     S
C153   H204    1.108   .     S
C153   H203    1.106   .     S
C154   N215    1.388   .     A
C155   N216    1.387   .     A
C156   N215    1.366   .     A
C156   C158    1.414   .     A
C156   H214    1.080   .     S
C157   N216    1.363   .     A
C157   H162    1.079   .     S
C158   H163    1.080   .     S
Cu159  O224    1.980   .     S
Cu159  Cu160   2.693   .     S
Cu159  O217    1.984   .     S
Cu159  O221    1.989   .     S
Cu159  N216    2.023   .     S
Cu159  O220    1.968   .     S
Cu160  O222    1.989   .     S
Cu160  O219    1.968   .     S
Cu160  O218    1.984   .     S
Cu160  N215    2.023   .     S
Cu160  O223    1.980   .     S
H161   C231    1.080   .     S
C225   O331    1.299   .     A
C225   C238    1.469   .     S
C225   O329    1.300   .     A
C226   C269    1.415   .     A
C226   C228    1.418   .     A
C226   H276    1.080   .     S
C227   C247    1.389   .     A
C227   C270    1.418   .     A
C227   C900    1.520   1_554 S
C228   C258    1.390   .     A
C228   C899    1.520   .     S
C229   O335    1.292   .     A
C229   C231    1.440   .     S
C229   O333    1.295   .     A
C230   O334    1.299   .     A
C230   C232    1.444   .     S
C230   O336    1.290   .     A
C232   C7      1.328   1_655 S
C232   H60     1.087   1_655 S
C233   H295    1.080   .     S
C233   C244    1.401   .     A
C233   C235    1.391   .     A
C234   C245    1.397   .     A
C234   C237    1.399   .     A
C234   H306    1.080   .     S
C235   C238    1.418   .     A
C235   C246    1.512   .     S
C236   O332    1.302   .     A
C236   C239    1.481   .     S
C236   O330    1.303   .     A
C237   C239    1.429   .     A
C237   C250    1.517   .     S
C238   C240    1.419   .     A
C239   C241    1.424   .     A
C240   C253    1.519   .     S
C240   C242    1.400   .     A
C241   C243    1.395   .     A
C241   C256    1.520   .     S
C242   C244    1.404   .     A
C242   H317    1.081   .     S
C243   C245    1.399   .     A
C243   H323    1.080   .     S
C244   C581    1.490   1_545 S
C245   C580    1.490   .     S
C246   H283    1.113   .     S
C246   H282    1.104   .     S
C246   C248    1.524   .     S
C247   C266    1.407   .     A
C247   H324    1.081   .     S
C248   H281    1.105   .     S
C248   C249    1.526   .     S
C248   H280    1.108   .     S
C249   H277    1.111   .     S
C249   H278    1.110   .     S
C249   H279    1.100   .     S
C250   C251    1.536   .     S
C250   H291    1.112   .     S
C250   H290    1.101   .     S
C251   H289    1.105   .     S
C251   H288    1.111   .     S
C251   C252    1.525   .     S
C252   H285    1.110   .     S
C252   H287    1.110   .     S
C252   H286    1.110   .     S
C253   C254    1.534   .     S
C253   H298    1.104   .     S
C253   H299    1.113   .     S
C254   H297    1.112   .     S
C254   H296    1.112   .     S
C255   H294    1.109   .     S
C255   H292    1.111   .     S
C255   H293    1.109   .     S
C255   C30     1.527   1_655 S
C256   H305    1.108   .     S
C256   H307    1.113   .     S
C256   C257    1.539   .     S
C257   C259    1.528   .     S
C257   H303    1.111   .     S
C257   H304    1.110   .     S
C258   H325    1.081   .     S
C258   C267    1.406   .     A
C259   H300    1.109   .     S
C259   H301    1.111   .     S
C259   H302    1.110   .     S
C260   H313    1.107   .     S
C260   C261    1.533   .     S
C260   C266    1.510   .     S
C260   H314    1.089   .     S
C261   H312    1.111   .     S
C261   C262    1.519   .     S
C261   H311    1.108   .     S
C262   H309    1.110   .     S
C262   H308    1.109   .     S
C262   H86     1.107   1_655 S
C263   H321    1.100   .     S
C263   C264    1.543   .     S
C263   H322    1.088   .     S
C263   C267    1.511   .     S
C264   H320    1.111   .     S
C264   C265    1.525   .     S
C264   H319    1.109   .     S
C265   H318    1.110   .     S
C265   H316    1.108   .     S
C265   H315    1.106   .     S
C266   N327    1.388   .     A
C267   N328    1.387   .     A
C268   N327    1.366   .     A
C268   C270    1.414   .     A
C268   H326    1.080   .     S
C269   N328    1.363   .     A
C269   H274    1.079   .     S
C270   H275    1.080   .     S
Cu271  O336    1.980   .     S
Cu271  Cu272   2.693   .     S
Cu271  O329    1.984   .     S
Cu271  O333    1.989   .     S
Cu271  N328    2.023   .     S
Cu271  O332    1.968   .     S
Cu272  O334    1.989   .     S
Cu272  O331    1.968   .     S
Cu272  O330    1.984   .     S
Cu272  N327    2.023   .     S
Cu272  O335    1.980   .     S
H273   C7      1.080   1_655 S
C337   O443    1.299   .     A
C337   C350    1.469   .     S
C337   O441    1.300   .     A
C338   C381    1.415   .     A
C338   C340    1.418   .     A
C338   H388    1.080   .     S
C339   C359    1.389   .     A
C339   C382    1.418   .     A
C339   C1012   1.520   1_554 S
C340   C370    1.390   .     A
C340   C1011   1.520   .     S
C341   O447    1.292   .     A
C341   C343    1.440   .     S
C341   O445    1.295   .     A
C342   O446    1.299   .     A
C342   C344    1.444   .     S
C342   O448    1.290   .     A
C343   C568    1.328   1_455 S
C343   H609    1.080   1_455 S
C344   C455    1.328   .     S
C344   H508    1.087   .     S
C345   H407    1.080   .     S
C345   C356    1.401   .     A
C345   C347    1.391   .     A
C346   C357    1.397   .     A
C346   C349    1.399   .     A
C346   H418    1.080   .     S
C347   C350    1.418   .     A
C347   C358    1.512   .     S
C348   O444    1.302   .     A
C348   C351    1.481   .     S
C348   O442    1.303   .     A
C349   C351    1.429   .     A
C349   C362    1.517   .     S
C350   C352    1.419   .     A
C351   C353    1.424   .     A
C352   C365    1.519   .     S
C352   C354    1.400   .     A
C353   C355    1.395   .     A
C353   C368    1.520   .     S
C354   C356    1.404   .     A
C354   H429    1.081   .     S
C355   C357    1.399   .     A
C355   H435    1.080   .     S
C357   C20     1.490   1_565 S
C358   H395    1.113   .     S
C358   H394    1.104   .     S
C358   C360    1.524   .     S
C359   C378    1.407   .     A
C359   H436    1.081   .     S
C360   H393    1.105   .     S
C360   C361    1.526   .     S
C360   H392    1.108   .     S
C361   H389    1.111   .     S
C361   H390    1.110   .     S
C361   H391    1.100   .     S
C362   C363    1.536   .     S
C362   H403    1.112   .     S
C362   H402    1.101   .     S
C363   H401    1.105   .     S
C363   H400    1.111   .     S
C363   C364    1.525   .     S
C364   H397    1.110   .     S
C364   H399    1.110   .     S
C364   H398    1.110   .     S
C365   C366    1.534   .     S
C365   H410    1.104   .     S
C365   H411    1.113   .     S
C366   H409    1.112   .     S
C366   H408    1.112   .     S
C366   C591    1.527   1_455 S
C367   H406    1.109   .     S
C367   H404    1.111   .     S
C367   H405    1.109   .     S
C367   C478    1.527   .     S
C368   H417    1.108   .     S
C368   H419    1.113   .     S
C368   C369    1.539   .     S
C369   C371    1.528   .     S
C369   H415    1.111   .     S
C369   H416    1.110   .     S
C370   H437    1.081   .     S
C370   C379    1.406   .     A
C371   H412    1.109   .     S
C371   H413    1.111   .     S
C371   H414    1.110   .     S
C372   H425    1.107   .     S
C372   C373    1.533   .     S
C372   C378    1.510   .     S
C372   H426    1.089   .     S
C373   H424    1.111   .     S
C373   C374    1.519   .     S
C373   H423    1.108   .     S
C374   H421    1.110   .     S
C374   H420    1.109   .     S
C374   H534    1.107   .     S
C375   H433    1.100   .     S
C375   C376    1.543   .     S
C375   H434    1.088   .     S
C375   C379    1.511   .     S
C376   H432    1.111   .     S
C376   C377    1.525   .     S
C376   H431    1.109   .     S
C377   H430    1.110   .     S
C377   H428    1.108   .     S
C377   H427    1.106   .     S
C378   N439    1.388   .     A
C379   N440    1.387   .     A
C380   N439    1.366   .     A
C380   C382    1.414   .     A
C380   H438    1.080   .     S
C381   N440    1.363   .     A
C381   H386    1.079   .     S
C382   H387    1.080   .     S
Cu383  O448    1.980   .     S
Cu383  Cu384   2.693   .     S
Cu383  O441    1.984   .     S
Cu383  O445    1.989   .     S
Cu383  N440    2.023   .     S
Cu383  O444    1.968   .     S
Cu384  O446    1.989   .     S
Cu384  O443    1.968   .     S
Cu384  O442    1.984   .     S
Cu384  N439    2.023   .     S
Cu384  O447    1.980   .     S
H385   C455    1.080   .     S
H396   C568    1.087   1_455 S
H422   C598    1.107   1_455 S
C449   O555    1.299   .     A
C449   C462    1.469   .     S
C449   O553    1.300   .     A
C450   C493    1.415   .     A
C450   C452    1.418   .     A
C450   H500    1.080   .     S
C451   C471    1.389   .     A
C451   C494    1.418   .     A
C451   C1124   1.520   1_554 S
C452   C482    1.390   .     A
C452   C1123   1.520   .     S
C453   O559    1.292   .     A
C453   C455    1.440   .     S
C453   O557    1.295   .     A
C454   O558    1.299   .     A
C454   C456    1.444   .     S
C454   O560    1.290   .     A
C456   C567    1.328   .     S
C456   H620    1.087   .     S
C457   H519    1.080   .     S
C457   C468    1.401   .     A
C457   C459    1.391   .     A
C458   C469    1.397   .     A
C458   C461    1.399   .     A
C458   H530    1.080   .     S
C459   C462    1.418   .     A
C459   C470    1.512   .     S
C460   O556    1.302   .     A
C460   C463    1.481   .     S
C460   O554    1.303   .     A
C461   C463    1.429   .     A
C461   C474    1.517   .     S
C462   C464    1.419   .     A
C463   C465    1.424   .     A
C464   C477    1.519   .     S
C464   C466    1.400   .     A
C465   C467    1.395   .     A
C465   C480    1.520   .     S
C466   C468    1.404   .     A
C466   H541    1.081   .     S
C467   C469    1.399   .     A
C467   H547    1.080   .     S
C469   C132    1.490   1_565 S
C470   H507    1.113   .     S
C470   H506    1.104   .     S
C470   C472    1.524   .     S
C471   C490    1.407   .     A
C471   H548    1.081   .     S
C472   H505    1.105   .     S
C472   C473    1.526   .     S
C472   H504    1.108   .     S
C473   H501    1.111   .     S
C473   H502    1.110   .     S
C473   H503    1.100   .     S
C474   C475    1.536   .     S
C474   H515    1.112   .     S
C474   H514    1.101   .     S
C475   H513    1.105   .     S
C475   H512    1.111   .     S
C475   C476    1.525   .     S
C476   H509    1.110   .     S
C476   H511    1.110   .     S
C476   H510    1.110   .     S
C477   C478    1.534   .     S
C477   H522    1.104   .     S
C477   H523    1.113   .     S
C478   H521    1.112   .     S
C478   H520    1.112   .     S
C479   H518    1.109   .     S
C479   H516    1.111   .     S
C479   H517    1.109   .     S
C479   C590    1.527   .     S
C480   H529    1.108   .     S
C480   H531    1.113   .     S
C480   C481    1.539   .     S
C481   C483    1.528   .     S
C481   H527    1.111   .     S
C481   H528    1.110   .     S
C482   H549    1.081   .     S
C482   C491    1.406   .     A
C483   H524    1.109   .     S
C483   H525    1.111   .     S
C483   H526    1.110   .     S
C484   H537    1.107   .     S
C484   C485    1.533   .     S
C484   C490    1.510   .     S
C484   H538    1.089   .     S
C485   H536    1.111   .     S
C485   C486    1.519   .     S
C485   H535    1.108   .     S
C486   H533    1.110   .     S
C486   H532    1.109   .     S
C486   H646    1.107   .     S
C487   H545    1.100   .     S
C487   C488    1.543   .     S
C487   H546    1.088   .     S
C487   C491    1.511   .     S
C488   H544    1.111   .     S
C488   C489    1.525   .     S
C488   H543    1.109   .     S
C489   H542    1.110   .     S
C489   H540    1.108   .     S
C489   H539    1.106   .     S
C490   N551    1.388   .     A
C491   N552    1.387   .     A
C492   N551    1.366   .     A
C492   C494    1.414   .     A
C492   H550    1.080   .     S
C493   N552    1.363   .     A
C493   H498    1.079   .     S
C494   H499    1.080   .     S
Cu495  O560    1.980   .     S
Cu495  Cu496   2.693   .     S
Cu495  O553    1.984   .     S
Cu495  O557    1.989   .     S
Cu495  N552    2.023   .     S
Cu495  O556    1.968   .     S
Cu496  O558    1.989   .     S
Cu496  O555    1.968   .     S
Cu496  O554    1.984   .     S
Cu496  N551    2.023   .     S
Cu496  O559    1.980   .     S
H497   C567    1.080   .     S
C561   O667    1.299   .     A
C561   C574    1.469   .     S
C561   O665    1.300   .     A
C562   C605    1.415   .     A
C562   C564    1.418   .     A
C562   H612    1.080   .     S
C563   C583    1.389   .     A
C563   C606    1.418   .     A
C563   C1236   1.520   1_554 S
C564   C594    1.390   .     A
C564   C1235   1.520   .     S
C565   O671    1.292   .     A
C565   C567    1.440   .     S
C565   O669    1.295   .     A
C566   O670    1.299   .     A
C566   C568    1.444   .     S
C566   O672    1.290   .     A
C568   C343    1.328   1_655 S
C568   H396    1.087   1_655 S
C569   H631    1.080   .     S
C569   C580    1.401   .     A
C569   C571    1.391   .     A
C570   C581    1.397   .     A
C570   C573    1.399   .     A
C570   H642    1.080   .     S
C571   C574    1.418   .     A
C571   C582    1.512   .     S
C572   O668    1.302   .     A
C572   C575    1.481   .     S
C572   O666    1.303   .     A
C573   C575    1.429   .     A
C573   C586    1.517   .     S
C574   C576    1.419   .     A
C575   C577    1.424   .     A
C576   C589    1.519   .     S
C576   C578    1.400   .     A
C577   C579    1.395   .     A
C577   C592    1.520   .     S
C578   C580    1.404   .     A
C578   H653    1.081   .     S
C579   C581    1.399   .     A
C579   H659    1.080   .     S
C581   C244    1.490   1_565 S
C582   H619    1.113   .     S
C582   H618    1.104   .     S
C582   C584    1.524   .     S
C583   C602    1.407   .     A
C583   H660    1.081   .     S
C584   H617    1.105   .     S
C584   C585    1.526   .     S
C584   H616    1.108   .     S
C585   H613    1.111   .     S
C585   H614    1.110   .     S
C585   H615    1.100   .     S
C586   C587    1.536   .     S
C586   H627    1.112   .     S
C586   H626    1.101   .     S
C587   H625    1.105   .     S
C587   H624    1.111   .     S
C587   C588    1.525   .     S
C588   H621    1.110   .     S
C588   H623    1.110   .     S
C588   H622    1.110   .     S
C589   C590    1.534   .     S
C589   H634    1.104   .     S
C589   H635    1.113   .     S
C590   H633    1.112   .     S
C590   H632    1.112   .     S
C591   H630    1.109   .     S
C591   H628    1.111   .     S
C591   H629    1.109   .     S
C591   C366    1.527   1_655 S
C592   H641    1.108   .     S
C592   H643    1.113   .     S
C592   C593    1.539   .     S
C593   C595    1.528   .     S
C593   H639    1.111   .     S
C593   H640    1.110   .     S
C594   H661    1.081   .     S
C594   C603    1.406   .     A
C595   H636    1.109   .     S
C595   H637    1.111   .     S
C595   H638    1.110   .     S
C596   H649    1.107   .     S
C596   C597    1.533   .     S
C596   C602    1.510   .     S
C596   H650    1.089   .     S
C597   H648    1.111   .     S
C597   C598    1.519   .     S
C597   H647    1.108   .     S
C598   H645    1.110   .     S
C598   H644    1.109   .     S
C598   H422    1.107   1_655 S
C599   H657    1.100   .     S
C599   C600    1.543   .     S
C599   H658    1.088   .     S
C599   C603    1.511   .     S
C600   H656    1.111   .     S
C600   C601    1.525   .     S
C600   H655    1.109   .     S
C601   H654    1.110   .     S
C601   H652    1.108   .     S
C601   H651    1.106   .     S
C602   N663    1.388   .     A
C603   N664    1.387   .     A
C604   N663    1.366   .     A
C604   C606    1.414   .     A
C604   H662    1.080   .     S
C605   N664    1.363   .     A
C605   H610    1.079   .     S
C606   H611    1.080   .     S
Cu607  O672    1.980   .     S
Cu607  Cu608   2.693   .     S
Cu607  O665    1.984   .     S
Cu607  O669    1.989   .     S
Cu607  N664    2.023   .     S
Cu607  O668    1.968   .     S
Cu608  O670    1.989   .     S
Cu608  O667    1.968   .     S
Cu608  O666    1.984   .     S
Cu608  N663    2.023   .     S
Cu608  O671    1.980   .     S
H609   C343    1.080   1_655 S
C673   O779    1.299   .     A
C673   C686    1.469   .     S
C673   O777    1.300   .     A
C674   C717    1.415   .     A
C674   C676    1.418   .     A
C674   H724    1.080   .     S
C675   C695    1.389   .     A
C675   C718    1.418   .     A
C676   C706    1.390   .     A
C676   C3      1.520   1_556 S
C677   O783    1.292   .     A
C677   C679    1.440   .     S
C677   O781    1.295   .     A
C678   O782    1.299   .     A
C678   C680    1.444   .     S
C678   O784    1.290   .     A
C679   C904    1.328   1_455 S
C679   H945    1.080   1_455 S
C680   C791    1.328   .     S
C680   H844    1.087   .     S
C681   H743    1.080   .     S
C681   C692    1.401   .     A
C681   C683    1.391   .     A
C682   C693    1.397   .     A
C682   C685    1.399   .     A
C682   H754    1.080   .     S
C683   C686    1.418   .     A
C683   C694    1.512   .     S
C684   O780    1.302   .     A
C684   C687    1.481   .     S
C684   O778    1.303   .     A
C685   C687    1.429   .     A
C685   C698    1.517   .     S
C686   C688    1.419   .     A
C687   C689    1.424   .     A
C688   C701    1.519   .     S
C688   C690    1.400   .     A
C689   C691    1.395   .     A
C689   C704    1.520   .     S
C690   C692    1.404   .     A
C690   H765    1.081   .     S
C691   C693    1.399   .     A
C691   H771    1.080   .     S
C692   C1029   1.490   1_545 S
C693   C1028   1.490   .     S
C694   H731    1.113   .     S
C694   H730    1.104   .     S
C694   C696    1.524   .     S
C695   C714    1.407   .     A
C695   H772    1.081   .     S
C696   H729    1.105   .     S
C696   C697    1.526   .     S
C696   H728    1.108   .     S
C697   H725    1.111   .     S
C697   H726    1.110   .     S
C697   H727    1.100   .     S
C698   C699    1.536   .     S
C698   H739    1.112   .     S
C698   H738    1.101   .     S
C699   H737    1.105   .     S
C699   H736    1.111   .     S
C699   C700    1.525   .     S
C700   H733    1.110   .     S
C700   H735    1.110   .     S
C700   H734    1.110   .     S
C701   C702    1.534   .     S
C701   H746    1.104   .     S
C701   H747    1.113   .     S
C702   H745    1.112   .     S
C702   H744    1.112   .     S
C702   C927    1.527   1_455 S
C703   H742    1.109   .     S
C703   H740    1.111   .     S
C703   H741    1.109   .     S
C703   C814    1.527   .     S
C704   H753    1.108   .     S
C704   H755    1.113   .     S
C704   C705    1.539   .     S
C705   C707    1.528   .     S
C705   H751    1.111   .     S
C705   H752    1.110   .     S
C706   H773    1.081   .     S
C706   C715    1.406   .     A
C707   H748    1.109   .     S
C707   H749    1.111   .     S
C707   H750    1.110   .     S
C708   H761    1.107   .     S
C708   C709    1.533   .     S
C708   C714    1.510   .     S
C708   H762    1.089   .     S
C709   H760    1.111   .     S
C709   C710    1.519   .     S
C709   H759    1.108   .     S
C710   H757    1.110   .     S
C710   H756    1.109   .     S
C710   H870    1.107   .     S
C711   H769    1.100   .     S
C711   C712    1.543   .     S
C711   H770    1.088   .     S
C711   C715    1.511   .     S
C712   H768    1.111   .     S
C712   C713    1.525   .     S
C712   H767    1.109   .     S
C713   H766    1.110   .     S
C713   H764    1.108   .     S
C713   H763    1.106   .     S
C714   N775    1.388   .     A
C715   N776    1.387   .     A
C716   N775    1.366   .     A
C716   C718    1.414   .     A
C716   H774    1.080   .     S
C717   N776    1.363   .     A
C717   H722    1.079   .     S
C718   H723    1.080   .     S
Cu719  O784    1.980   .     S
Cu719  Cu720   2.693   .     S
Cu719  O777    1.984   .     S
Cu719  O781    1.989   .     S
Cu719  N776    2.023   .     S
Cu719  O780    1.968   .     S
Cu720  O782    1.989   .     S
Cu720  O779    1.968   .     S
Cu720  O778    1.984   .     S
Cu720  N775    2.023   .     S
Cu720  O783    1.980   .     S
H721   C791    1.080   .     S
H732   C904    1.087   1_455 S
H758   C934    1.107   1_455 S
C785   O891    1.299   .     A
C785   C798    1.469   .     S
C785   O889    1.300   .     A
C786   C829    1.415   .     A
C786   C788    1.418   .     A
C786   H836    1.080   .     S
C787   C807    1.389   .     A
C787   C830    1.418   .     A
C788   C818    1.390   .     A
C788   C115    1.520   1_556 S
C789   O895    1.292   .     A
C789   C791    1.440   .     S
C789   O893    1.295   .     A
C790   O894    1.299   .     A
C790   C792    1.444   .     S
C790   O896    1.290   .     A
C792   C903    1.328   .     S
C792   H956    1.087   .     S
C793   H855    1.080   .     S
C793   C804    1.401   .     A
C793   C795    1.391   .     A
C794   C805    1.397   .     A
C794   C797    1.399   .     A
C794   H866    1.080   .     S
C795   C798    1.418   .     A
C795   C806    1.512   .     S
C796   O892    1.302   .     A
C796   C799    1.481   .     S
C796   O890    1.303   .     A
C797   C799    1.429   .     A
C797   C810    1.517   .     S
C798   C800    1.419   .     A
C799   C801    1.424   .     A
C800   C813    1.519   .     S
C800   C802    1.400   .     A
C801   C803    1.395   .     A
C801   C816    1.520   .     S
C802   C804    1.404   .     A
C802   H877    1.081   .     S
C803   C805    1.399   .     A
C803   H883    1.080   .     S
C804   C1141   1.490   1_545 S
C805   C1140   1.490   .     S
C806   H843    1.113   .     S
C806   H842    1.104   .     S
C806   C808    1.524   .     S
C807   C826    1.407   .     A
C807   H884    1.081   .     S
C808   H841    1.105   .     S
C808   C809    1.526   .     S
C808   H840    1.108   .     S
C809   H837    1.111   .     S
C809   H838    1.110   .     S
C809   H839    1.100   .     S
C810   C811    1.536   .     S
C810   H851    1.112   .     S
C810   H850    1.101   .     S
C811   H849    1.105   .     S
C811   H848    1.111   .     S
C811   C812    1.525   .     S
C812   H845    1.110   .     S
C812   H847    1.110   .     S
C812   H846    1.110   .     S
C813   C814    1.534   .     S
C813   H858    1.104   .     S
C813   H859    1.113   .     S
C814   H857    1.112   .     S
C814   H856    1.112   .     S
C815   H854    1.109   .     S
C815   H852    1.111   .     S
C815   H853    1.109   .     S
C815   C926    1.527   .     S
C816   H865    1.108   .     S
C816   H867    1.113   .     S
C816   C817    1.539   .     S
C817   C819    1.528   .     S
C817   H863    1.111   .     S
C817   H864    1.110   .     S
C818   H885    1.081   .     S
C818   C827    1.406   .     A
C819   H860    1.109   .     S
C819   H861    1.111   .     S
C819   H862    1.110   .     S
C820   H873    1.107   .     S
C820   C821    1.533   .     S
C820   C826    1.510   .     S
C820   H874    1.089   .     S
C821   H872    1.111   .     S
C821   C822    1.519   .     S
C821   H871    1.108   .     S
C822   H869    1.110   .     S
C822   H868    1.109   .     S
C822   H982    1.107   .     S
C823   H881    1.100   .     S
C823   C824    1.543   .     S
C823   H882    1.088   .     S
C823   C827    1.511   .     S
C824   H880    1.111   .     S
C824   C825    1.525   .     S
C824   H879    1.109   .     S
C825   H878    1.110   .     S
C825   H876    1.108   .     S
C825   H875    1.106   .     S
C826   N887    1.388   .     A
C827   N888    1.387   .     A
C828   N887    1.366   .     A
C828   C830    1.414   .     A
C828   H886    1.080   .     S
C829   N888    1.363   .     A
C829   H834    1.079   .     S
C830   H835    1.080   .     S
Cu831  O896    1.980   .     S
Cu831  Cu832   2.693   .     S
Cu831  O889    1.984   .     S
Cu831  O893    1.989   .     S
Cu831  N888    2.023   .     S
Cu831  O892    1.968   .     S
Cu832  O894    1.989   .     S
Cu832  O891    1.968   .     S
Cu832  O890    1.984   .     S
Cu832  N887    2.023   .     S
Cu832  O895    1.980   .     S
H833   C903    1.080   .     S
C897   O1003   1.299   .     A
C897   C910    1.469   .     S
C897   O1001   1.300   .     A
C898   C941    1.415   .     A
C898   C900    1.418   .     A
C898   H948    1.080   .     S
C899   C919    1.389   .     A
C899   C942    1.418   .     A
C900   C930    1.390   .     A
C900   C227    1.520   1_556 S
C901   O1007   1.292   .     A
C901   C903    1.440   .     S
C901   O1005   1.295   .     A
C902   O1006   1.299   .     A
C902   C904    1.444   .     S
C902   O1008   1.290   .     A
C904   C679    1.328   1_655 S
C904   H732    1.087   1_655 S
C905   H967    1.080   .     S
C905   C916    1.401   .     A
C905   C907    1.391   .     A
C906   C917    1.397   .     A
C906   C909    1.399   .     A
C906   H978    1.080   .     S
C907   C910    1.418   .     A
C907   C918    1.512   .     S
C908   O1004   1.302   .     A
C908   C911    1.481   .     S
C908   O1002   1.303   .     A
C909   C911    1.429   .     A
C909   C922    1.517   .     S
C910   C912    1.419   .     A
C911   C913    1.424   .     A
C912   C925    1.519   .     S
C912   C914    1.400   .     A
C913   C915    1.395   .     A
C913   C928    1.520   .     S
C914   C916    1.404   .     A
C914   H989    1.081   .     S
C915   C917    1.399   .     A
C915   H995    1.080   .     S
C916   C1253   1.490   1_545 S
C917   C1252   1.490   .     S
C918   H955    1.113   .     S
C918   H954    1.104   .     S
C918   C920    1.524   .     S
C919   C938    1.407   .     A
C919   H996    1.081   .     S
C920   H953    1.105   .     S
C920   C921    1.526   .     S
C920   H952    1.108   .     S
C921   H949    1.111   .     S
C921   H950    1.110   .     S
C921   H951    1.100   .     S
C922   C923    1.536   .     S
C922   H963    1.112   .     S
C922   H962    1.101   .     S
C923   H961    1.105   .     S
C923   H960    1.111   .     S
C923   C924    1.525   .     S
C924   H957    1.110   .     S
C924   H959    1.110   .     S
C924   H958    1.110   .     S
C925   C926    1.534   .     S
C925   H970    1.104   .     S
C925   H971    1.113   .     S
C926   H969    1.112   .     S
C926   H968    1.112   .     S
C927   H966    1.109   .     S
C927   H964    1.111   .     S
C927   H965    1.109   .     S
C927   C702    1.527   1_655 S
C928   H977    1.108   .     S
C928   H979    1.113   .     S
C928   C929    1.539   .     S
C929   C931    1.528   .     S
C929   H975    1.111   .     S
C929   H976    1.110   .     S
C930   H997    1.081   .     S
C930   C939    1.406   .     A
C931   H972    1.109   .     S
C931   H973    1.111   .     S
C931   H974    1.110   .     S
C932   H985    1.107   .     S
C932   C933    1.533   .     S
C932   C938    1.510   .     S
C932   H986    1.089   .     S
C933   H984    1.111   .     S
C933   C934    1.519   .     S
C933   H983    1.108   .     S
C934   H981    1.110   .     S
C934   H980    1.109   .     S
C934   H758    1.107   1_655 S
C935   H993    1.100   .     S
C935   C936    1.543   .     S
C935   H994    1.088   .     S
C935   C939    1.511   .     S
C936   H992    1.111   .     S
C936   C937    1.525   .     S
C936   H991    1.109   .     S
C937   H990    1.110   .     S
C937   H988    1.108   .     S
C937   H987    1.106   .     S
C938   N999    1.388   .     A
C939   N1000   1.387   .     A
C940   N999    1.366   .     A
C940   C942    1.414   .     A
C940   H998    1.080   .     S
C941   N1000   1.363   .     A
C941   H946    1.079   .     S
C942   H947    1.080   .     S
Cu943  O1008   1.980   .     S
Cu943  Cu944   2.693   .     S
Cu943  O1001   1.984   .     S
Cu943  O1005   1.989   .     S
Cu943  N1000   2.023   .     S
Cu943  O1004   1.968   .     S
Cu944  O1006   1.989   .     S
Cu944  O1003   1.968   .     S
Cu944  O1002   1.984   .     S
Cu944  N999    2.023   .     S
Cu944  O1007   1.980   .     S
H945   C679    1.080   1_655 S
C1009  O1115   1.299   .     A
C1009  C1022   1.469   .     S
C1009  O1113   1.300   .     A
C1010  C1053   1.415   .     A
C1010  C1012   1.418   .     A
C1010  H1060   1.080   .     S
C1011  C1031   1.389   .     A
C1011  C1054   1.418   .     A
C1012  C1042   1.390   .     A
C1012  C339    1.520   1_556 S
C1013  O1119   1.292   .     A
C1013  C1015   1.440   .     S
C1013  O1117   1.295   .     A
C1014  O1118   1.299   .     A
C1014  C1016   1.444   .     S
C1014  O1120   1.290   .     A
C1015  C1240   1.328   1_455 S
C1015  H1281   1.080   1_455 S
C1016  C1127   1.328   .     S
C1016  H1180   1.087   .     S
C1017  H1079   1.080   .     S
C1017  C1028   1.401   .     A
C1017  C1019   1.391   .     A
C1018  C1029   1.397   .     A
C1018  C1021   1.399   .     A
C1018  H1090   1.080   .     S
C1019  C1022   1.418   .     A
C1019  C1030   1.512   .     S
C1020  O1116   1.302   .     A
C1020  C1023   1.481   .     S
C1020  O1114   1.303   .     A
C1021  C1023   1.429   .     A
C1021  C1034   1.517   .     S
C1022  C1024   1.419   .     A
C1023  C1025   1.424   .     A
C1024  C1037   1.519   .     S
C1024  C1026   1.400   .     A
C1025  C1027   1.395   .     A
C1025  C1040   1.520   .     S
C1026  C1028   1.404   .     A
C1026  H1101   1.081   .     S
C1027  C1029   1.399   .     A
C1027  H1107   1.080   .     S
C1029  C692    1.490   1_565 S
C1030  H1067   1.113   .     S
C1030  H1066   1.104   .     S
C1030  C1032   1.524   .     S
C1031  C1050   1.407   .     A
C1031  H1108   1.081   .     S
C1032  H1065   1.105   .     S
C1032  C1033   1.526   .     S
C1032  H1064   1.108   .     S
C1033  H1061   1.111   .     S
C1033  H1062   1.110   .     S
C1033  H1063   1.100   .     S
C1034  C1035   1.536   .     S
C1034  H1075   1.112   .     S
C1034  H1074   1.101   .     S
C1035  H1073   1.105   .     S
C1035  H1072   1.111   .     S
C1035  C1036   1.525   .     S
C1036  H1069   1.110   .     S
C1036  H1071   1.110   .     S
C1036  H1070   1.110   .     S
C1037  C1038   1.534   .     S
C1037  H1082   1.104   .     S
C1037  H1083   1.113   .     S
C1038  H1081   1.112   .     S
C1038  H1080   1.112   .     S
C1038  C1263   1.527   1_455 S
C1039  H1078   1.109   .     S
C1039  H1076   1.111   .     S
C1039  H1077   1.109   .     S
C1039  C1150   1.527   .     S
C1040  H1089   1.108   .     S
C1040  H1091   1.113   .     S
C1040  C1041   1.539   .     S
C1041  C1043   1.528   .     S
C1041  H1087   1.111   .     S
C1041  H1088   1.110   .     S
C1042  H1109   1.081   .     S
C1042  C1051   1.406   .     A
C1043  H1084   1.109   .     S
C1043  H1085   1.111   .     S
C1043  H1086   1.110   .     S
C1044  H1097   1.107   .     S
C1044  C1045   1.533   .     S
C1044  C1050   1.510   .     S
C1044  H1098   1.089   .     S
C1045  H1096   1.111   .     S
C1045  C1046   1.519   .     S
C1045  H1095   1.108   .     S
C1046  H1093   1.110   .     S
C1046  H1092   1.109   .     S
C1046  H1206   1.107   .     S
C1047  H1105   1.100   .     S
C1047  C1048   1.543   .     S
C1047  H1106   1.088   .     S
C1047  C1051   1.511   .     S
C1048  H1104   1.111   .     S
C1048  C1049   1.525   .     S
C1048  H1103   1.109   .     S
C1049  H1102   1.110   .     S
C1049  H1100   1.108   .     S
C1049  H1099   1.106   .     S
C1050  N1111   1.388   .     A
C1051  N1112   1.387   .     A
C1052  N1111   1.366   .     A
C1052  C1054   1.414   .     A
C1052  H1110   1.080   .     S
C1053  N1112   1.363   .     A
C1053  H1058   1.079   .     S
C1054  H1059   1.080   .     S
Cu1055 O1120   1.980   .     S
Cu1055 Cu1056  2.693   .     S
Cu1055 O1113   1.984   .     S
Cu1055 O1117   1.989   .     S
Cu1055 N1112   2.023   .     S
Cu1055 O1116   1.968   .     S
Cu1056 O1118   1.989   .     S
Cu1056 O1115   1.968   .     S
Cu1056 O1114   1.984   .     S
Cu1056 N1111   2.023   .     S
Cu1056 O1119   1.980   .     S
H1057  C1127   1.080   .     S
H1068  C1240   1.087   1_455 S
H1094  C1270   1.107   1_455 S
C1121  O1227   1.299   .     A
C1121  C1134   1.469   .     S
C1121  O1225   1.300   .     A
C1122  C1165   1.415   .     A
C1122  C1124   1.418   .     A
C1122  H1172   1.080   .     S
C1123  C1143   1.389   .     A
C1123  C1166   1.418   .     A
C1124  C1154   1.390   .     A
C1124  C451    1.520   1_556 S
C1125  O1231   1.292   .     A
C1125  C1127   1.440   .     S
C1125  O1229   1.295   .     A
C1126  O1230   1.299   .     A
C1126  C1128   1.444   .     S
C1126  O1232   1.290   .     A
C1128  C1239   1.328   .     S
C1128  H1292   1.087   .     S
C1129  H1191   1.080   .     S
C1129  C1140   1.401   .     A
C1129  C1131   1.391   .     A
C1130  C1141   1.397   .     A
C1130  C1133   1.399   .     A
C1130  H1202   1.080   .     S
C1131  C1134   1.418   .     A
C1131  C1142   1.512   .     S
C1132  O1228   1.302   .     A
C1132  C1135   1.481   .     S
C1132  O1226   1.303   .     A
C1133  C1135   1.429   .     A
C1133  C1146   1.517   .     S
C1134  C1136   1.419   .     A
C1135  C1137   1.424   .     A
C1136  C1149   1.519   .     S
C1136  C1138   1.400   .     A
C1137  C1139   1.395   .     A
C1137  C1152   1.520   .     S
C1138  C1140   1.404   .     A
C1138  H1213   1.081   .     S
C1139  C1141   1.399   .     A
C1139  H1219   1.080   .     S
C1141  C804    1.490   1_565 S
C1142  H1179   1.113   .     S
C1142  H1178   1.104   .     S
C1142  C1144   1.524   .     S
C1143  C1162   1.407   .     A
C1143  H1220   1.081   .     S
C1144  H1177   1.105   .     S
C1144  C1145   1.526   .     S
C1144  H1176   1.108   .     S
C1145  H1173   1.111   .     S
C1145  H1174   1.110   .     S
C1145  H1175   1.100   .     S
C1146  C1147   1.536   .     S
C1146  H1187   1.112   .     S
C1146  H1186   1.101   .     S
C1147  H1185   1.105   .     S
C1147  H1184   1.111   .     S
C1147  C1148   1.525   .     S
C1148  H1181   1.110   .     S
C1148  H1183   1.110   .     S
C1148  H1182   1.110   .     S
C1149  C1150   1.534   .     S
C1149  H1194   1.104   .     S
C1149  H1195   1.113   .     S
C1150  H1193   1.112   .     S
C1150  H1192   1.112   .     S
C1151  H1190   1.109   .     S
C1151  H1188   1.111   .     S
C1151  H1189   1.109   .     S
C1151  C1262   1.527   .     S
C1152  H1201   1.108   .     S
C1152  H1203   1.113   .     S
C1152  C1153   1.539   .     S
C1153  C1155   1.528   .     S
C1153  H1199   1.111   .     S
C1153  H1200   1.110   .     S
C1154  H1221   1.081   .     S
C1154  C1163   1.406   .     A
C1155  H1196   1.109   .     S
C1155  H1197   1.111   .     S
C1155  H1198   1.110   .     S
C1156  H1209   1.107   .     S
C1156  C1157   1.533   .     S
C1156  C1162   1.510   .     S
C1156  H1210   1.089   .     S
C1157  H1208   1.111   .     S
C1157  C1158   1.519   .     S
C1157  H1207   1.108   .     S
C1158  H1205   1.110   .     S
C1158  H1204   1.109   .     S
C1158  H1318   1.107   .     S
C1159  H1217   1.100   .     S
C1159  C1160   1.543   .     S
C1159  H1218   1.088   .     S
C1159  C1163   1.511   .     S
C1160  H1216   1.111   .     S
C1160  C1161   1.525   .     S
C1160  H1215   1.109   .     S
C1161  H1214   1.110   .     S
C1161  H1212   1.108   .     S
C1161  H1211   1.106   .     S
C1162  N1223   1.388   .     A
C1163  N1224   1.387   .     A
C1164  N1223   1.366   .     A
C1164  C1166   1.414   .     A
C1164  H1222   1.080   .     S
C1165  N1224   1.363   .     A
C1165  H1170   1.079   .     S
C1166  H1171   1.080   .     S
Cu1167 O1232   1.980   .     S
Cu1167 Cu1168  2.693   .     S
Cu1167 O1225   1.984   .     S
Cu1167 O1229   1.989   .     S
Cu1167 N1224   2.023   .     S
Cu1167 O1228   1.968   .     S
Cu1168 O1230   1.989   .     S
Cu1168 O1227   1.968   .     S
Cu1168 O1226   1.984   .     S
Cu1168 N1223   2.023   .     S
Cu1168 O1231   1.980   .     S
H1169  C1239   1.080   .     S
C1233  O1339   1.299   .     A
C1233  C1246   1.469   .     S
C1233  O1337   1.300   .     A
C1234  C1277   1.415   .     A
C1234  C1236   1.418   .     A
C1234  H1284   1.080   .     S
C1235  C1255   1.389   .     A
C1235  C1278   1.418   .     A
C1236  C1266   1.390   .     A
C1236  C563    1.520   1_556 S
C1237  O1343   1.292   .     A
C1237  C1239   1.440   .     S
C1237  O1341   1.295   .     A
C1238  O1342   1.299   .     A
C1238  C1240   1.444   .     S
C1238  O1344   1.290   .     A
C1240  C1015   1.328   1_655 S
C1240  H1068   1.087   1_655 S
C1241  H1303   1.080   .     S
C1241  C1252   1.401   .     A
C1241  C1243   1.391   .     A
C1242  C1253   1.397   .     A
C1242  C1245   1.399   .     A
C1242  H1314   1.080   .     S
C1243  C1246   1.418   .     A
C1243  C1254   1.512   .     S
C1244  O1340   1.302   .     A
C1244  C1247   1.481   .     S
C1244  O1338   1.303   .     A
C1245  C1247   1.429   .     A
C1245  C1258   1.517   .     S
C1246  C1248   1.419   .     A
C1247  C1249   1.424   .     A
C1248  C1261   1.519   .     S
C1248  C1250   1.400   .     A
C1249  C1251   1.395   .     A
C1249  C1264   1.520   .     S
C1250  C1252   1.404   .     A
C1250  H1325   1.081   .     S
C1251  C1253   1.399   .     A
C1251  H1331   1.080   .     S
C1253  C916    1.490   1_565 S
C1254  H1291   1.113   .     S
C1254  H1290   1.104   .     S
C1254  C1256   1.524   .     S
C1255  C1274   1.407   .     A
C1255  H1332   1.081   .     S
C1256  H1289   1.105   .     S
C1256  C1257   1.526   .     S
C1256  H1288   1.108   .     S
C1257  H1285   1.111   .     S
C1257  H1286   1.110   .     S
C1257  H1287   1.100   .     S
C1258  C1259   1.536   .     S
C1258  H1299   1.112   .     S
C1258  H1298   1.101   .     S
C1259  H1297   1.105   .     S
C1259  H1296   1.111   .     S
C1259  C1260   1.525   .     S
C1260  H1293   1.110   .     S
C1260  H1295   1.110   .     S
C1260  H1294   1.110   .     S
C1261  C1262   1.534   .     S
C1261  H1306   1.104   .     S
C1261  H1307   1.113   .     S
C1262  H1305   1.112   .     S
C1262  H1304   1.112   .     S
C1263  H1302   1.109   .     S
C1263  H1300   1.111   .     S
C1263  H1301   1.109   .     S
C1263  C1038   1.527   1_655 S
C1264  H1313   1.108   .     S
C1264  H1315   1.113   .     S
C1264  C1265   1.539   .     S
C1265  C1267   1.528   .     S
C1265  H1311   1.111   .     S
C1265  H1312   1.110   .     S
C1266  H1333   1.081   .     S
C1266  C1275   1.406   .     A
C1267  H1308   1.109   .     S
C1267  H1309   1.111   .     S
C1267  H1310   1.110   .     S
C1268  H1321   1.107   .     S
C1268  C1269   1.533   .     S
C1268  C1274   1.510   .     S
C1268  H1322   1.089   .     S
C1269  H1320   1.111   .     S
C1269  C1270   1.519   .     S
C1269  H1319   1.108   .     S
C1270  H1317   1.110   .     S
C1270  H1316   1.109   .     S
C1270  H1094   1.107   1_655 S
C1271  H1329   1.100   .     S
C1271  C1272   1.543   .     S
C1271  H1330   1.088   .     S
C1271  C1275   1.511   .     S
C1272  H1328   1.111   .     S
C1272  C1273   1.525   .     S
C1272  H1327   1.109   .     S
C1273  H1326   1.110   .     S
C1273  H1324   1.108   .     S
C1273  H1323   1.106   .     S
C1274  N1335   1.388   .     A
C1275  N1336   1.387   .     A
C1276  N1335   1.366   .     A
C1276  C1278   1.414   .     A
C1276  H1334   1.080   .     S
C1277  N1336   1.363   .     A
C1277  H1282   1.079   .     S
C1278  H1283   1.080   .     S
Cu1279 O1344   1.980   .     S
Cu1279 Cu1280  2.693   .     S
Cu1279 O1337   1.984   .     S
Cu1279 O1341   1.989   .     S
Cu1279 N1336   2.023   .     S
Cu1279 O1340   1.968   .     S
Cu1280 O1342   1.989   .     S
Cu1280 O1339   1.968   .     S
Cu1280 O1338   1.984   .     S
Cu1280 N1335   2.023   .     S
Cu1280 O1343   1.980   .     S
H1281  C1015   1.080   1_655 S
