data_str_m3_o10_o17_pcu_sym.117
_audit_creation_date              2020-01-03
_audit_creation_method            'Materials Studio'
_symmetry_space_group_name_H-M    'P1'
_symmetry_Int_Tables_number       1
_symmetry_cell_setting            triclinic
loop_
_symmetry_equiv_pos_as_xyz
  x,y,z
_cell_length_a                    23.2515
_cell_length_b                    25.6303
_cell_length_c                    30.0040
_cell_angle_alpha                 90.7175
_cell_angle_beta                  85.8977
_cell_angle_gamma                 93.9297
loop_
_atom_site_label
_atom_site_type_symbol
_atom_site_fract_x
_atom_site_fract_y
_atom_site_fract_z
_atom_site_U_iso_or_equiv
_atom_site_adp_type
_atom_site_occupancy
C1     C     0.18201   0.26495   0.24916   0.00000  Uiso   1.00
C2     C     0.20189   0.20455   0.40507   0.00000  Uiso   1.00
C3     C     0.16433   0.16862   0.11599   0.00000  Uiso   1.00
C4     C     0.16900   0.16471   0.38401   0.00000  Uiso   1.00
C5     C     0.19674   0.20852   0.09167   0.00000  Uiso   1.00
C6     C     0.13659   0.12481   0.40833   0.00000  Uiso   1.00
C7     C     0.19139   0.21164   0.04544   0.00000  Uiso   1.00
C8     C     0.14194   0.12169   0.45456   0.00000  Uiso   1.00
C9     C     0.16506   0.16785   0.02344   0.00000  Uiso   1.00
C10    C     0.16827   0.16549   0.47656   0.00000  Uiso   1.00
C11    C     0.13558   0.12630   0.04823   0.00000  Uiso   1.00
C12    C     0.15132   0.06838   0.25084   0.00000  Uiso   1.00
C13    C     0.19775   0.20704   0.45177   0.00000  Uiso   1.00
C14    C     0.21292   0.25615   0.02015   0.00000  Uiso   1.00
C15    C     0.12041   0.07718   0.47985   0.00000  Uiso   1.00
C16    C     0.09574   0.08809   0.12161   0.00000  Uiso   1.00
C17    C     0.23760   0.24524   0.37839   0.00000  Uiso   1.00
C18    C     0.24057   0.24292   0.11379   0.00000  Uiso   1.00
C19    C     0.09276   0.09041   0.38621   0.00000  Uiso   1.00
C20    C     0.22274   0.30941   0.03958   0.00000  Uiso   1.00
C21    C     0.11058   0.02392   0.46042   0.00000  Uiso   1.00
C22    C     0.21879   0.25206   0.47397   0.00000  Uiso   1.00
C23    C     0.11454   0.08128   0.02603   0.00000  Uiso   1.00
C24    C     0.19008   0.31953   0.24877   0.00000  Uiso   1.00
C25    C     0.14325   0.01381   0.25123   0.00000  Uiso   1.00
C26    C     0.16728   0.16573   0.33634   0.00000  Uiso   1.00
C27    C     0.16606   0.16760   0.16366   0.00000  Uiso   1.00
C28    C     0.13144   0.12879   0.09493   0.00000  Uiso   1.00
H29    H     0.23621   0.28613   0.45529   0.00000  Uiso   1.00
H30    H     0.09907   0.32990   0.25364   0.00000  Uiso   1.00
H31    H     0.00472   0.12779   0.21618   0.00000  Uiso   1.00
H32    H     0.32861   0.20555   0.28382   0.00000  Uiso   1.00
H33    H     0.09712   0.04720   0.04471   0.00000  Uiso   1.00
H34    H     0.01737   0.05038   0.13443   0.00000  Uiso   1.00
H35    H     0.31597   0.28295   0.36557   0.00000  Uiso   1.00
H36    H     0.25745   0.29618   0.16182   0.00000  Uiso   1.00
H37    H     0.07588   0.03715   0.33818   0.00000  Uiso   1.00
H38    H     0.26958   0.04538   0.03715   0.00000  Uiso   1.00
H39    H     0.06374   0.28796   0.46285   0.00000  Uiso   1.00
H40    H     0.23426   0.00343   0.24636   0.00000  Uiso   1.00
N41    N     0.31678   0.15265   0.23783   0.00000  Uiso   1.00
N42    N     0.01656   0.18068   0.26217   0.00000  Uiso   1.00
O43    O     0.12975   0.24619   0.25299   0.00000  Uiso   1.00
O44    O     0.03705   0.07906   0.11465   0.00000  Uiso   1.00
O45    O     0.21555   0.27106   0.35103   0.00000  Uiso   1.00
O46    O     0.29628   0.25427   0.38535   0.00000  Uiso   1.00
O47    O     0.29115   0.24473   0.09919   0.00000  Uiso   1.00
O48    O     0.22383   0.27375   0.15051   0.00000  Uiso   1.00
O49    O     0.04218   0.08860   0.40080   0.00000  Uiso   1.00
O50    O     0.10950   0.05958   0.34949   0.00000  Uiso   1.00
O51    O     0.18972   0.32448   0.06985   0.00000  Uiso   1.00
O52    O     0.26805   0.00994   0.02170   0.00000  Uiso   1.00
O53    O     0.14360   0.00885   0.43015   0.00000  Uiso   1.00
O54    O     0.20358   0.08714   0.24702   0.00000  Uiso   1.00
O55    O     0.06527   0.32340   0.47830   0.00000  Uiso   1.00
O56    O     0.22613   0.23721   0.24519   0.00000  Uiso   1.00
O57    O     0.10720   0.09613   0.25481   0.00000  Uiso   1.00
O58    O     0.11847   0.17117   0.31997   0.00000  Uiso   1.00
O59    O     0.21486   0.16216   0.18003   0.00000  Uiso   1.00
O60    O     0.21485   0.16219   0.31218   0.00000  Uiso   1.00
O61    O     0.11848   0.17115   0.18783   0.00000  Uiso   1.00
O62    O     0.11779   0.06227   0.14896   0.00000  Uiso   1.00
Zn63   Zn    0.10231   0.17266   0.25521   0.00000  Uiso   1.00
Zn64   Zn    0.23102   0.16067   0.24479   0.00000  Uiso   1.00
C65    C     0.51535   0.26495   0.24916   0.00000  Uiso   1.00
C66    C     0.53522   0.20455   0.40507   0.00000  Uiso   1.00
C67    C     0.49766   0.16862   0.11599   0.00000  Uiso   1.00
C68    C     0.50234   0.16471   0.38401   0.00000  Uiso   1.00
C69    C     0.53007   0.20852   0.09167   0.00000  Uiso   1.00
C70    C     0.46993   0.12481   0.40833   0.00000  Uiso   1.00
C71    C     0.52472   0.21164   0.04544   0.00000  Uiso   1.00
C72    C     0.47528   0.12169   0.45456   0.00000  Uiso   1.00
C73    C     0.49839   0.16785   0.02344   0.00000  Uiso   1.00
C74    C     0.50161   0.16549   0.47656   0.00000  Uiso   1.00
C75    C     0.46891   0.12630   0.04823   0.00000  Uiso   1.00
C76    C     0.48465   0.06838   0.25084   0.00000  Uiso   1.00
C77    C     0.53108   0.20704   0.45177   0.00000  Uiso   1.00
C78    C     0.54626   0.25615   0.02015   0.00000  Uiso   1.00
C79    C     0.45374   0.07718   0.47985   0.00000  Uiso   1.00
C80    C     0.42907   0.08809   0.12161   0.00000  Uiso   1.00
C81    C     0.57093   0.24524   0.37839   0.00000  Uiso   1.00
C82    C     0.57390   0.24292   0.11379   0.00000  Uiso   1.00
C83    C     0.42610   0.09041   0.38621   0.00000  Uiso   1.00
C84    C     0.55608   0.30941   0.03958   0.00000  Uiso   1.00
C85    C     0.44392   0.02392   0.46042   0.00000  Uiso   1.00
C86    C     0.55212   0.25206   0.47397   0.00000  Uiso   1.00
C87    C     0.44787   0.08128   0.02603   0.00000  Uiso   1.00
C88    C     0.52342   0.31953   0.24877   0.00000  Uiso   1.00
C89    C     0.47658   0.01381   0.25123   0.00000  Uiso   1.00
C90    C     0.50061   0.16573   0.33634   0.00000  Uiso   1.00
C91    C     0.49939   0.16760   0.16366   0.00000  Uiso   1.00
C92    C     0.46478   0.12879   0.09493   0.00000  Uiso   1.00
H93    H     0.56955   0.28613   0.45529   0.00000  Uiso   1.00
H94    H     0.43241   0.32990   0.25364   0.00000  Uiso   1.00
H95    H     0.33805   0.12779   0.21618   0.00000  Uiso   1.00
H96    H     0.66195   0.20555   0.28382   0.00000  Uiso   1.00
H97    H     0.43045   0.04720   0.04471   0.00000  Uiso   1.00
H98    H     0.35070   0.05038   0.13443   0.00000  Uiso   1.00
H99    H     0.64930   0.28295   0.36557   0.00000  Uiso   1.00
H100   H     0.59078   0.29618   0.16182   0.00000  Uiso   1.00
H101   H     0.40922   0.03715   0.33818   0.00000  Uiso   1.00
H102   H     0.60291   0.04538   0.03715   0.00000  Uiso   1.00
H103   H     0.39707   0.28796   0.46285   0.00000  Uiso   1.00
H104   H     0.56759   0.00343   0.24636   0.00000  Uiso   1.00
N105   N     0.65011   0.15265   0.23783   0.00000  Uiso   1.00
N106   N     0.34989   0.18068   0.26217   0.00000  Uiso   1.00
O107   O     0.46308   0.24619   0.25299   0.00000  Uiso   1.00
O108   O     0.37038   0.07906   0.11465   0.00000  Uiso   1.00
O109   O     0.54888   0.27106   0.35103   0.00000  Uiso   1.00
O110   O     0.62962   0.25427   0.38535   0.00000  Uiso   1.00
O111   O     0.62448   0.24473   0.09919   0.00000  Uiso   1.00
O112   O     0.55717   0.27375   0.15051   0.00000  Uiso   1.00
O113   O     0.37552   0.08860   0.40080   0.00000  Uiso   1.00
O114   O     0.44283   0.05958   0.34949   0.00000  Uiso   1.00
O115   O     0.52306   0.32448   0.06985   0.00000  Uiso   1.00
O116   O     0.60138   0.00994   0.02170   0.00000  Uiso   1.00
O117   O     0.47694   0.00885   0.43015   0.00000  Uiso   1.00
O118   O     0.53692   0.08714   0.24702   0.00000  Uiso   1.00
O119   O     0.39861   0.32340   0.47830   0.00000  Uiso   1.00
O120   O     0.55946   0.23721   0.24519   0.00000  Uiso   1.00
O121   O     0.44054   0.09613   0.25481   0.00000  Uiso   1.00
O122   O     0.45181   0.17117   0.31997   0.00000  Uiso   1.00
O123   O     0.54819   0.16216   0.18003   0.00000  Uiso   1.00
O124   O     0.54819   0.16219   0.31218   0.00000  Uiso   1.00
O125   O     0.45181   0.17115   0.18783   0.00000  Uiso   1.00
O126   O     0.45113   0.06227   0.14896   0.00000  Uiso   1.00
Zn127  Zn    0.43565   0.17266   0.25521   0.00000  Uiso   1.00
Zn128  Zn    0.56435   0.16067   0.24479   0.00000  Uiso   1.00
C129   C     0.84868   0.26495   0.24916   0.00000  Uiso   1.00
C130   C     0.86856   0.20455   0.40507   0.00000  Uiso   1.00
C131   C     0.83100   0.16862   0.11599   0.00000  Uiso   1.00
C132   C     0.83567   0.16471   0.38401   0.00000  Uiso   1.00
C133   C     0.86341   0.20852   0.09167   0.00000  Uiso   1.00
C134   C     0.80326   0.12481   0.40833   0.00000  Uiso   1.00
C135   C     0.85805   0.21164   0.04544   0.00000  Uiso   1.00
C136   C     0.80861   0.12169   0.45456   0.00000  Uiso   1.00
C137   C     0.83172   0.16785   0.02344   0.00000  Uiso   1.00
C138   C     0.83494   0.16549   0.47656   0.00000  Uiso   1.00
C139   C     0.80225   0.12630   0.04823   0.00000  Uiso   1.00
C140   C     0.81799   0.06838   0.25084   0.00000  Uiso   1.00
C141   C     0.86442   0.20704   0.45177   0.00000  Uiso   1.00
C142   C     0.87959   0.25615   0.02015   0.00000  Uiso   1.00
C143   C     0.78707   0.07718   0.47985   0.00000  Uiso   1.00
C144   C     0.76240   0.08809   0.12161   0.00000  Uiso   1.00
C145   C     0.90426   0.24524   0.37839   0.00000  Uiso   1.00
C146   C     0.90724   0.24292   0.11379   0.00000  Uiso   1.00
C147   C     0.75943   0.09041   0.38621   0.00000  Uiso   1.00
C148   C     0.88941   0.30941   0.03958   0.00000  Uiso   1.00
C149   C     0.77725   0.02392   0.46042   0.00000  Uiso   1.00
C150   C     0.88546   0.25206   0.47397   0.00000  Uiso   1.00
C151   C     0.78121   0.08128   0.02603   0.00000  Uiso   1.00
C152   C     0.85675   0.31953   0.24877   0.00000  Uiso   1.00
C153   C     0.80992   0.01381   0.25123   0.00000  Uiso   1.00
C154   C     0.83394   0.16573   0.33634   0.00000  Uiso   1.00
C155   C     0.83272   0.16760   0.16366   0.00000  Uiso   1.00
C156   C     0.79811   0.12879   0.09493   0.00000  Uiso   1.00
H157   H     0.90288   0.28613   0.45529   0.00000  Uiso   1.00
H158   H     0.76574   0.32990   0.25364   0.00000  Uiso   1.00
H159   H     0.67139   0.12779   0.21618   0.00000  Uiso   1.00
H160   H     0.99528   0.20555   0.28382   0.00000  Uiso   1.00
H161   H     0.76378   0.04720   0.04471   0.00000  Uiso   1.00
H162   H     0.68403   0.05038   0.13443   0.00000  Uiso   1.00
H163   H     0.98264   0.28295   0.36557   0.00000  Uiso   1.00
H164   H     0.92411   0.29618   0.16182   0.00000  Uiso   1.00
H165   H     0.74255   0.03715   0.33818   0.00000  Uiso   1.00
H166   H     0.93624   0.04538   0.03715   0.00000  Uiso   1.00
H167   H     0.73041   0.28796   0.46285   0.00000  Uiso   1.00
H168   H     0.90093   0.00343   0.24636   0.00000  Uiso   1.00
N169   N     0.98344   0.15265   0.23783   0.00000  Uiso   1.00
N170   N     0.68322   0.18068   0.26217   0.00000  Uiso   1.00
O171   O     0.79642   0.24619   0.25299   0.00000  Uiso   1.00
O172   O     0.70372   0.07906   0.11465   0.00000  Uiso   1.00
O173   O     0.88221   0.27106   0.35103   0.00000  Uiso   1.00
O174   O     0.96295   0.25427   0.38535   0.00000  Uiso   1.00
O175   O     0.95781   0.24473   0.09919   0.00000  Uiso   1.00
O176   O     0.89050   0.27375   0.15051   0.00000  Uiso   1.00
O177   O     0.70885   0.08860   0.40080   0.00000  Uiso   1.00
O178   O     0.77616   0.05958   0.34949   0.00000  Uiso   1.00
O179   O     0.85639   0.32448   0.06985   0.00000  Uiso   1.00
O180   O     0.93471   0.00994   0.02170   0.00000  Uiso   1.00
O181   O     0.81027   0.00885   0.43015   0.00000  Uiso   1.00
O182   O     0.87025   0.08714   0.24702   0.00000  Uiso   1.00
O183   O     0.73194   0.32340   0.47830   0.00000  Uiso   1.00
O184   O     0.89280   0.23721   0.24519   0.00000  Uiso   1.00
O185   O     0.77387   0.09613   0.25481   0.00000  Uiso   1.00
O186   O     0.78514   0.17117   0.31997   0.00000  Uiso   1.00
O187   O     0.88153   0.16216   0.18003   0.00000  Uiso   1.00
O188   O     0.88152   0.16219   0.31218   0.00000  Uiso   1.00
O189   O     0.78515   0.17115   0.18783   0.00000  Uiso   1.00
O190   O     0.78446   0.06227   0.14896   0.00000  Uiso   1.00
Zn191  Zn    0.76898   0.17266   0.25521   0.00000  Uiso   1.00
Zn192  Zn    0.89769   0.16067   0.24479   0.00000  Uiso   1.00
C193   C     0.18201   0.59828   0.24916   0.00000  Uiso   1.00
C194   C     0.20189   0.53788   0.40507   0.00000  Uiso   1.00
C195   C     0.16433   0.50195   0.11599   0.00000  Uiso   1.00
C196   C     0.16900   0.49805   0.38401   0.00000  Uiso   1.00
C197   C     0.19674   0.54186   0.09167   0.00000  Uiso   1.00
C198   C     0.13659   0.45815   0.40833   0.00000  Uiso   1.00
C199   C     0.19139   0.54498   0.04544   0.00000  Uiso   1.00
C200   C     0.14194   0.45503   0.45456   0.00000  Uiso   1.00
C201   C     0.16506   0.50118   0.02344   0.00000  Uiso   1.00
C202   C     0.16827   0.49882   0.47656   0.00000  Uiso   1.00
C203   C     0.13558   0.45963   0.04823   0.00000  Uiso   1.00
C204   C     0.15132   0.40172   0.25084   0.00000  Uiso   1.00
C205   C     0.19775   0.54037   0.45177   0.00000  Uiso   1.00
C206   C     0.21292   0.58949   0.02015   0.00000  Uiso   1.00
C207   C     0.12041   0.41051   0.47985   0.00000  Uiso   1.00
C208   C     0.09574   0.42142   0.12161   0.00000  Uiso   1.00
C209   C     0.23760   0.57858   0.37839   0.00000  Uiso   1.00
C210   C     0.24057   0.57625   0.11379   0.00000  Uiso   1.00
C211   C     0.09276   0.42375   0.38621   0.00000  Uiso   1.00
C212   C     0.22274   0.64275   0.03958   0.00000  Uiso   1.00
C213   C     0.11058   0.35725   0.46042   0.00000  Uiso   1.00
C214   C     0.21879   0.58539   0.47397   0.00000  Uiso   1.00
C215   C     0.11454   0.41461   0.02603   0.00000  Uiso   1.00
C216   C     0.19008   0.65286   0.24877   0.00000  Uiso   1.00
C217   C     0.14325   0.34714   0.25123   0.00000  Uiso   1.00
C218   C     0.16728   0.49906   0.33634   0.00000  Uiso   1.00
C219   C     0.16606   0.50094   0.16366   0.00000  Uiso   1.00
C220   C     0.13144   0.46212   0.09493   0.00000  Uiso   1.00
H221   H     0.23621   0.61947   0.45529   0.00000  Uiso   1.00
H222   H     0.09907   0.66324   0.25364   0.00000  Uiso   1.00
H223   H     0.00472   0.46112   0.21618   0.00000  Uiso   1.00
H224   H     0.32861   0.53888   0.28382   0.00000  Uiso   1.00
H225   H     0.09712   0.38053   0.04471   0.00000  Uiso   1.00
H226   H     0.01737   0.38371   0.13443   0.00000  Uiso   1.00
H227   H     0.31597   0.61629   0.36557   0.00000  Uiso   1.00
H228   H     0.25745   0.62952   0.16182   0.00000  Uiso   1.00
H229   H     0.07588   0.37049   0.33818   0.00000  Uiso   1.00
H230   H     0.26958   0.37871   0.03715   0.00000  Uiso   1.00
H231   H     0.06374   0.62130   0.46285   0.00000  Uiso   1.00
H232   H     0.23426   0.33676   0.24636   0.00000  Uiso   1.00
N233   N     0.31678   0.48598   0.23783   0.00000  Uiso   1.00
N234   N     0.01656   0.51402   0.26217   0.00000  Uiso   1.00
O235   O     0.12975   0.57952   0.25299   0.00000  Uiso   1.00
O236   O     0.03705   0.41239   0.11465   0.00000  Uiso   1.00
O237   O     0.21555   0.60440   0.35103   0.00000  Uiso   1.00
O238   O     0.29628   0.58760   0.38535   0.00000  Uiso   1.00
O239   O     0.29115   0.57807   0.09919   0.00000  Uiso   1.00
O240   O     0.22383   0.60708   0.15051   0.00000  Uiso   1.00
O241   O     0.04218   0.42193   0.40080   0.00000  Uiso   1.00
O242   O     0.10950   0.39292   0.34949   0.00000  Uiso   1.00
O243   O     0.18972   0.65781   0.06985   0.00000  Uiso   1.00
O244   O     0.26805   0.34328   0.02170   0.00000  Uiso   1.00
O245   O     0.14360   0.34218   0.43015   0.00000  Uiso   1.00
O246   O     0.20358   0.42048   0.24702   0.00000  Uiso   1.00
O247   O     0.06527   0.65673   0.47830   0.00000  Uiso   1.00
O248   O     0.22613   0.57054   0.24519   0.00000  Uiso   1.00
O249   O     0.10720   0.42946   0.25481   0.00000  Uiso   1.00
O250   O     0.11847   0.50450   0.31997   0.00000  Uiso   1.00
O251   O     0.21486   0.49550   0.18003   0.00000  Uiso   1.00
O252   O     0.21485   0.49552   0.31218   0.00000  Uiso   1.00
O253   O     0.11848   0.50448   0.18783   0.00000  Uiso   1.00
O254   O     0.11779   0.39560   0.14896   0.00000  Uiso   1.00
Zn255  Zn    0.10231   0.50600   0.25521   0.00000  Uiso   1.00
Zn256  Zn    0.23102   0.49400   0.24479   0.00000  Uiso   1.00
C257   C     0.51535   0.59828   0.24916   0.00000  Uiso   1.00
C258   C     0.53522   0.53788   0.40507   0.00000  Uiso   1.00
C259   C     0.49766   0.50195   0.11599   0.00000  Uiso   1.00
C260   C     0.50234   0.49805   0.38401   0.00000  Uiso   1.00
C261   C     0.53007   0.54186   0.09167   0.00000  Uiso   1.00
C262   C     0.46993   0.45815   0.40833   0.00000  Uiso   1.00
C263   C     0.52472   0.54498   0.04544   0.00000  Uiso   1.00
C264   C     0.47528   0.45503   0.45456   0.00000  Uiso   1.00
C265   C     0.49839   0.50118   0.02344   0.00000  Uiso   1.00
C266   C     0.50161   0.49882   0.47656   0.00000  Uiso   1.00
C267   C     0.46891   0.45963   0.04823   0.00000  Uiso   1.00
C268   C     0.48465   0.40172   0.25084   0.00000  Uiso   1.00
C269   C     0.53108   0.54037   0.45177   0.00000  Uiso   1.00
C270   C     0.54626   0.58949   0.02015   0.00000  Uiso   1.00
C271   C     0.45374   0.41051   0.47985   0.00000  Uiso   1.00
C272   C     0.42907   0.42142   0.12161   0.00000  Uiso   1.00
C273   C     0.57093   0.57858   0.37839   0.00000  Uiso   1.00
C274   C     0.57390   0.57625   0.11379   0.00000  Uiso   1.00
C275   C     0.42610   0.42375   0.38621   0.00000  Uiso   1.00
C276   C     0.55608   0.64275   0.03958   0.00000  Uiso   1.00
C277   C     0.44392   0.35725   0.46042   0.00000  Uiso   1.00
C278   C     0.55212   0.58539   0.47397   0.00000  Uiso   1.00
C279   C     0.44787   0.41461   0.02603   0.00000  Uiso   1.00
C280   C     0.52342   0.65286   0.24877   0.00000  Uiso   1.00
C281   C     0.47658   0.34714   0.25123   0.00000  Uiso   1.00
C282   C     0.50061   0.49906   0.33634   0.00000  Uiso   1.00
C283   C     0.49939   0.50094   0.16366   0.00000  Uiso   1.00
C284   C     0.46478   0.46212   0.09493   0.00000  Uiso   1.00
H285   H     0.56955   0.61947   0.45529   0.00000  Uiso   1.00
H286   H     0.43241   0.66324   0.25364   0.00000  Uiso   1.00
H287   H     0.33805   0.46112   0.21618   0.00000  Uiso   1.00
H288   H     0.66195   0.53888   0.28382   0.00000  Uiso   1.00
H289   H     0.43045   0.38053   0.04471   0.00000  Uiso   1.00
H290   H     0.35070   0.38371   0.13443   0.00000  Uiso   1.00
H291   H     0.64930   0.61629   0.36557   0.00000  Uiso   1.00
H292   H     0.59078   0.62952   0.16182   0.00000  Uiso   1.00
H293   H     0.40922   0.37049   0.33818   0.00000  Uiso   1.00
H294   H     0.60291   0.37871   0.03715   0.00000  Uiso   1.00
H295   H     0.39707   0.62130   0.46285   0.00000  Uiso   1.00
H296   H     0.56759   0.33676   0.24636   0.00000  Uiso   1.00
N297   N     0.65011   0.48598   0.23783   0.00000  Uiso   1.00
N298   N     0.34989   0.51402   0.26217   0.00000  Uiso   1.00
O299   O     0.46308   0.57952   0.25299   0.00000  Uiso   1.00
O300   O     0.37038   0.41239   0.11465   0.00000  Uiso   1.00
O301   O     0.54888   0.60440   0.35103   0.00000  Uiso   1.00
O302   O     0.62962   0.58760   0.38535   0.00000  Uiso   1.00
O303   O     0.62448   0.57807   0.09919   0.00000  Uiso   1.00
O304   O     0.55717   0.60708   0.15051   0.00000  Uiso   1.00
O305   O     0.37552   0.42193   0.40080   0.00000  Uiso   1.00
O306   O     0.44283   0.39292   0.34949   0.00000  Uiso   1.00
O307   O     0.52306   0.65781   0.06985   0.00000  Uiso   1.00
O308   O     0.60138   0.34328   0.02170   0.00000  Uiso   1.00
O309   O     0.47694   0.34218   0.43015   0.00000  Uiso   1.00
O310   O     0.53692   0.42048   0.24702   0.00000  Uiso   1.00
O311   O     0.39861   0.65673   0.47830   0.00000  Uiso   1.00
O312   O     0.55946   0.57054   0.24519   0.00000  Uiso   1.00
O313   O     0.44054   0.42946   0.25481   0.00000  Uiso   1.00
O314   O     0.45181   0.50450   0.31997   0.00000  Uiso   1.00
O315   O     0.54819   0.49550   0.18003   0.00000  Uiso   1.00
O316   O     0.54819   0.49552   0.31218   0.00000  Uiso   1.00
O317   O     0.45181   0.50448   0.18783   0.00000  Uiso   1.00
O318   O     0.45113   0.39560   0.14896   0.00000  Uiso   1.00
Zn319  Zn    0.43565   0.50600   0.25521   0.00000  Uiso   1.00
Zn320  Zn    0.56435   0.49400   0.24479   0.00000  Uiso   1.00
C321   C     0.84868   0.59828   0.24916   0.00000  Uiso   1.00
C322   C     0.86856   0.53788   0.40507   0.00000  Uiso   1.00
C323   C     0.83100   0.50195   0.11599   0.00000  Uiso   1.00
C324   C     0.83567   0.49805   0.38401   0.00000  Uiso   1.00
C325   C     0.86341   0.54186   0.09167   0.00000  Uiso   1.00
C326   C     0.80326   0.45815   0.40833   0.00000  Uiso   1.00
C327   C     0.85805   0.54498   0.04544   0.00000  Uiso   1.00
C328   C     0.80861   0.45503   0.45456   0.00000  Uiso   1.00
C329   C     0.83172   0.50118   0.02344   0.00000  Uiso   1.00
C330   C     0.83494   0.49882   0.47656   0.00000  Uiso   1.00
C331   C     0.80225   0.45963   0.04823   0.00000  Uiso   1.00
C332   C     0.81799   0.40172   0.25084   0.00000  Uiso   1.00
C333   C     0.86442   0.54037   0.45177   0.00000  Uiso   1.00
C334   C     0.87959   0.58949   0.02015   0.00000  Uiso   1.00
C335   C     0.78707   0.41051   0.47985   0.00000  Uiso   1.00
C336   C     0.76240   0.42142   0.12161   0.00000  Uiso   1.00
C337   C     0.90426   0.57858   0.37839   0.00000  Uiso   1.00
C338   C     0.90724   0.57625   0.11379   0.00000  Uiso   1.00
C339   C     0.75943   0.42375   0.38621   0.00000  Uiso   1.00
C340   C     0.88941   0.64275   0.03958   0.00000  Uiso   1.00
C341   C     0.77725   0.35725   0.46042   0.00000  Uiso   1.00
C342   C     0.88546   0.58539   0.47397   0.00000  Uiso   1.00
C343   C     0.78121   0.41461   0.02603   0.00000  Uiso   1.00
C344   C     0.85675   0.65286   0.24877   0.00000  Uiso   1.00
C345   C     0.80992   0.34714   0.25123   0.00000  Uiso   1.00
C346   C     0.83394   0.49906   0.33634   0.00000  Uiso   1.00
C347   C     0.83272   0.50094   0.16366   0.00000  Uiso   1.00
C348   C     0.79811   0.46212   0.09493   0.00000  Uiso   1.00
H349   H     0.90288   0.61947   0.45529   0.00000  Uiso   1.00
H350   H     0.76574   0.66324   0.25364   0.00000  Uiso   1.00
H351   H     0.67139   0.46112   0.21618   0.00000  Uiso   1.00
H352   H     0.99528   0.53888   0.28382   0.00000  Uiso   1.00
H353   H     0.76378   0.38053   0.04471   0.00000  Uiso   1.00
H354   H     0.68403   0.38371   0.13443   0.00000  Uiso   1.00
H355   H     0.98264   0.61629   0.36557   0.00000  Uiso   1.00
H356   H     0.92411   0.62952   0.16182   0.00000  Uiso   1.00
H357   H     0.74255   0.37049   0.33818   0.00000  Uiso   1.00
H358   H     0.93624   0.37871   0.03715   0.00000  Uiso   1.00
H359   H     0.73041   0.62130   0.46285   0.00000  Uiso   1.00
H360   H     0.90093   0.33676   0.24636   0.00000  Uiso   1.00
N361   N     0.98344   0.48598   0.23783   0.00000  Uiso   1.00
N362   N     0.68322   0.51402   0.26217   0.00000  Uiso   1.00
O363   O     0.79642   0.57952   0.25299   0.00000  Uiso   1.00
O364   O     0.70372   0.41239   0.11465   0.00000  Uiso   1.00
O365   O     0.88221   0.60440   0.35103   0.00000  Uiso   1.00
O366   O     0.96295   0.58760   0.38535   0.00000  Uiso   1.00
O367   O     0.95781   0.57807   0.09919   0.00000  Uiso   1.00
O368   O     0.89050   0.60708   0.15051   0.00000  Uiso   1.00
O369   O     0.70885   0.42193   0.40080   0.00000  Uiso   1.00
O370   O     0.77616   0.39292   0.34949   0.00000  Uiso   1.00
O371   O     0.85639   0.65781   0.06985   0.00000  Uiso   1.00
O372   O     0.93471   0.34328   0.02170   0.00000  Uiso   1.00
O373   O     0.81027   0.34218   0.43015   0.00000  Uiso   1.00
O374   O     0.87025   0.42048   0.24702   0.00000  Uiso   1.00
O375   O     0.73194   0.65673   0.47830   0.00000  Uiso   1.00
O376   O     0.89280   0.57054   0.24519   0.00000  Uiso   1.00
O377   O     0.77387   0.42946   0.25481   0.00000  Uiso   1.00
O378   O     0.78514   0.50450   0.31997   0.00000  Uiso   1.00
O379   O     0.88153   0.49550   0.18003   0.00000  Uiso   1.00
O380   O     0.88152   0.49552   0.31218   0.00000  Uiso   1.00
O381   O     0.78515   0.50448   0.18783   0.00000  Uiso   1.00
O382   O     0.78446   0.39560   0.14896   0.00000  Uiso   1.00
Zn383  Zn    0.76898   0.50600   0.25521   0.00000  Uiso   1.00
Zn384  Zn    0.89769   0.49400   0.24479   0.00000  Uiso   1.00
C385   C     0.18201   0.93162   0.24916   0.00000  Uiso   1.00
C386   C     0.20189   0.87121   0.40507   0.00000  Uiso   1.00
C387   C     0.16433   0.83529   0.11599   0.00000  Uiso   1.00
C388   C     0.16900   0.83138   0.38401   0.00000  Uiso   1.00
C389   C     0.19674   0.87519   0.09167   0.00000  Uiso   1.00
C390   C     0.13659   0.79148   0.40833   0.00000  Uiso   1.00
C391   C     0.19139   0.87831   0.04544   0.00000  Uiso   1.00
C392   C     0.14194   0.78836   0.45456   0.00000  Uiso   1.00
C393   C     0.16506   0.83451   0.02344   0.00000  Uiso   1.00
C394   C     0.16827   0.83215   0.47656   0.00000  Uiso   1.00
C395   C     0.13558   0.79296   0.04823   0.00000  Uiso   1.00
C396   C     0.15132   0.73505   0.25084   0.00000  Uiso   1.00
C397   C     0.19775   0.87370   0.45177   0.00000  Uiso   1.00
C398   C     0.21292   0.92282   0.02015   0.00000  Uiso   1.00
C399   C     0.12041   0.74385   0.47985   0.00000  Uiso   1.00
C400   C     0.09574   0.75476   0.12161   0.00000  Uiso   1.00
C401   C     0.23760   0.91191   0.37839   0.00000  Uiso   1.00
C402   C     0.24057   0.90959   0.11379   0.00000  Uiso   1.00
C403   C     0.09276   0.75708   0.38621   0.00000  Uiso   1.00
C404   C     0.22274   0.97608   0.03958   0.00000  Uiso   1.00
C405   C     0.11058   0.69059   0.46042   0.00000  Uiso   1.00
C406   C     0.21879   0.91872   0.47397   0.00000  Uiso   1.00
C407   C     0.11454   0.74794   0.02603   0.00000  Uiso   1.00
C408   C     0.19008   0.98619   0.24877   0.00000  Uiso   1.00
C409   C     0.14325   0.68047   0.25123   0.00000  Uiso   1.00
C410   C     0.16728   0.83240   0.33634   0.00000  Uiso   1.00
C411   C     0.16606   0.83427   0.16366   0.00000  Uiso   1.00
C412   C     0.13144   0.79545   0.09493   0.00000  Uiso   1.00
H413   H     0.23621   0.95280   0.45529   0.00000  Uiso   1.00
H414   H     0.09907   0.99657   0.25364   0.00000  Uiso   1.00
H415   H     0.00472   0.79445   0.21618   0.00000  Uiso   1.00
H416   H     0.32861   0.87221   0.28382   0.00000  Uiso   1.00
H417   H     0.09712   0.71387   0.04471   0.00000  Uiso   1.00
H418   H     0.01737   0.71705   0.13443   0.00000  Uiso   1.00
H419   H     0.31597   0.94962   0.36557   0.00000  Uiso   1.00
H420   H     0.25745   0.96285   0.16182   0.00000  Uiso   1.00
H421   H     0.07588   0.70382   0.33818   0.00000  Uiso   1.00
H422   H     0.26958   0.71204   0.03715   0.00000  Uiso   1.00
H423   H     0.06374   0.95463   0.46285   0.00000  Uiso   1.00
H424   H     0.23426   0.67010   0.24636   0.00000  Uiso   1.00
N425   N     0.31678   0.81932   0.23783   0.00000  Uiso   1.00
N426   N     0.01656   0.84735   0.26217   0.00000  Uiso   1.00
O427   O     0.12975   0.91286   0.25299   0.00000  Uiso   1.00
O428   O     0.03705   0.74573   0.11465   0.00000  Uiso   1.00
O429   O     0.21555   0.93773   0.35103   0.00000  Uiso   1.00
O430   O     0.29628   0.92094   0.38535   0.00000  Uiso   1.00
O431   O     0.29115   0.91140   0.09919   0.00000  Uiso   1.00
O432   O     0.22383   0.94042   0.15051   0.00000  Uiso   1.00
O433   O     0.04218   0.75527   0.40080   0.00000  Uiso   1.00
O434   O     0.10950   0.72625   0.34949   0.00000  Uiso   1.00
O435   O     0.18972   0.99115   0.06985   0.00000  Uiso   1.00
O436   O     0.26805   0.67661   0.02170   0.00000  Uiso   1.00
O437   O     0.14360   0.67552   0.43015   0.00000  Uiso   1.00
O438   O     0.20358   0.75381   0.24702   0.00000  Uiso   1.00
O439   O     0.06527   0.99006   0.47830   0.00000  Uiso   1.00
O440   O     0.22613   0.90387   0.24519   0.00000  Uiso   1.00
O441   O     0.10720   0.76279   0.25481   0.00000  Uiso   1.00
O442   O     0.11847   0.83784   0.31997   0.00000  Uiso   1.00
O443   O     0.21486   0.82883   0.18003   0.00000  Uiso   1.00
O444   O     0.21485   0.82885   0.31218   0.00000  Uiso   1.00
O445   O     0.11848   0.83781   0.18783   0.00000  Uiso   1.00
O446   O     0.11779   0.72893   0.14896   0.00000  Uiso   1.00
Zn447  Zn    0.10231   0.83933   0.25521   0.00000  Uiso   1.00
Zn448  Zn    0.23102   0.82734   0.24479   0.00000  Uiso   1.00
C449   C     0.51535   0.93162   0.24916   0.00000  Uiso   1.00
C450   C     0.53522   0.87121   0.40507   0.00000  Uiso   1.00
C451   C     0.49766   0.83529   0.11599   0.00000  Uiso   1.00
C452   C     0.50234   0.83138   0.38401   0.00000  Uiso   1.00
C453   C     0.53007   0.87519   0.09167   0.00000  Uiso   1.00
C454   C     0.46993   0.79148   0.40833   0.00000  Uiso   1.00
C455   C     0.52472   0.87831   0.04544   0.00000  Uiso   1.00
C456   C     0.47528   0.78836   0.45456   0.00000  Uiso   1.00
C457   C     0.49839   0.83451   0.02344   0.00000  Uiso   1.00
C458   C     0.50161   0.83215   0.47656   0.00000  Uiso   1.00
C459   C     0.46891   0.79296   0.04823   0.00000  Uiso   1.00
C460   C     0.48465   0.73505   0.25084   0.00000  Uiso   1.00
C461   C     0.53108   0.87370   0.45177   0.00000  Uiso   1.00
C462   C     0.54626   0.92282   0.02015   0.00000  Uiso   1.00
C463   C     0.45374   0.74385   0.47985   0.00000  Uiso   1.00
C464   C     0.42907   0.75476   0.12161   0.00000  Uiso   1.00
C465   C     0.57093   0.91191   0.37839   0.00000  Uiso   1.00
C466   C     0.57390   0.90959   0.11379   0.00000  Uiso   1.00
C467   C     0.42610   0.75708   0.38621   0.00000  Uiso   1.00
C468   C     0.55608   0.97608   0.03958   0.00000  Uiso   1.00
C469   C     0.44392   0.69059   0.46042   0.00000  Uiso   1.00
C470   C     0.55212   0.91872   0.47397   0.00000  Uiso   1.00
C471   C     0.44787   0.74794   0.02603   0.00000  Uiso   1.00
C472   C     0.52342   0.98619   0.24877   0.00000  Uiso   1.00
C473   C     0.47658   0.68047   0.25123   0.00000  Uiso   1.00
C474   C     0.50061   0.83240   0.33634   0.00000  Uiso   1.00
C475   C     0.49939   0.83427   0.16366   0.00000  Uiso   1.00
C476   C     0.46478   0.79545   0.09493   0.00000  Uiso   1.00
H477   H     0.56955   0.95280   0.45529   0.00000  Uiso   1.00
H478   H     0.43241   0.99657   0.25364   0.00000  Uiso   1.00
H479   H     0.33805   0.79445   0.21618   0.00000  Uiso   1.00
H480   H     0.66195   0.87221   0.28382   0.00000  Uiso   1.00
H481   H     0.43045   0.71387   0.04471   0.00000  Uiso   1.00
H482   H     0.35070   0.71705   0.13443   0.00000  Uiso   1.00
H483   H     0.64930   0.94962   0.36557   0.00000  Uiso   1.00
H484   H     0.59078   0.96285   0.16182   0.00000  Uiso   1.00
H485   H     0.40922   0.70382   0.33818   0.00000  Uiso   1.00
H486   H     0.60291   0.71204   0.03715   0.00000  Uiso   1.00
H487   H     0.39707   0.95463   0.46285   0.00000  Uiso   1.00
H488   H     0.56759   0.67010   0.24636   0.00000  Uiso   1.00
N489   N     0.65011   0.81932   0.23783   0.00000  Uiso   1.00
N490   N     0.34989   0.84735   0.26217   0.00000  Uiso   1.00
O491   O     0.46308   0.91286   0.25299   0.00000  Uiso   1.00
O492   O     0.37038   0.74573   0.11465   0.00000  Uiso   1.00
O493   O     0.54888   0.93773   0.35103   0.00000  Uiso   1.00
O494   O     0.62962   0.92094   0.38535   0.00000  Uiso   1.00
O495   O     0.62448   0.91140   0.09919   0.00000  Uiso   1.00
O496   O     0.55717   0.94042   0.15051   0.00000  Uiso   1.00
O497   O     0.37552   0.75527   0.40080   0.00000  Uiso   1.00
O498   O     0.44283   0.72625   0.34949   0.00000  Uiso   1.00
O499   O     0.52306   0.99115   0.06985   0.00000  Uiso   1.00
O500   O     0.60138   0.67661   0.02170   0.00000  Uiso   1.00
O501   O     0.47694   0.67552   0.43015   0.00000  Uiso   1.00
O502   O     0.53692   0.75381   0.24702   0.00000  Uiso   1.00
O503   O     0.39861   0.99006   0.47830   0.00000  Uiso   1.00
O504   O     0.55946   0.90387   0.24519   0.00000  Uiso   1.00
O505   O     0.44054   0.76279   0.25481   0.00000  Uiso   1.00
O506   O     0.45181   0.83784   0.31997   0.00000  Uiso   1.00
O507   O     0.54819   0.82883   0.18003   0.00000  Uiso   1.00
O508   O     0.54819   0.82885   0.31218   0.00000  Uiso   1.00
O509   O     0.45181   0.83781   0.18783   0.00000  Uiso   1.00
O510   O     0.45113   0.72893   0.14896   0.00000  Uiso   1.00
Zn511  Zn    0.43565   0.83933   0.25521   0.00000  Uiso   1.00
Zn512  Zn    0.56435   0.82734   0.24479   0.00000  Uiso   1.00
C513   C     0.84868   0.93162   0.24916   0.00000  Uiso   1.00
C514   C     0.86856   0.87121   0.40507   0.00000  Uiso   1.00
C515   C     0.83100   0.83529   0.11599   0.00000  Uiso   1.00
C516   C     0.83567   0.83138   0.38401   0.00000  Uiso   1.00
C517   C     0.86341   0.87519   0.09167   0.00000  Uiso   1.00
C518   C     0.80326   0.79148   0.40833   0.00000  Uiso   1.00
C519   C     0.85805   0.87831   0.04544   0.00000  Uiso   1.00
C520   C     0.80861   0.78836   0.45456   0.00000  Uiso   1.00
C521   C     0.83172   0.83451   0.02344   0.00000  Uiso   1.00
C522   C     0.83494   0.83215   0.47656   0.00000  Uiso   1.00
C523   C     0.80225   0.79296   0.04823   0.00000  Uiso   1.00
C524   C     0.81799   0.73505   0.25084   0.00000  Uiso   1.00
C525   C     0.86442   0.87370   0.45177   0.00000  Uiso   1.00
C526   C     0.87959   0.92282   0.02015   0.00000  Uiso   1.00
C527   C     0.78707   0.74385   0.47985   0.00000  Uiso   1.00
C528   C     0.76240   0.75476   0.12161   0.00000  Uiso   1.00
C529   C     0.90426   0.91191   0.37839   0.00000  Uiso   1.00
C530   C     0.90724   0.90959   0.11379   0.00000  Uiso   1.00
C531   C     0.75943   0.75708   0.38621   0.00000  Uiso   1.00
C532   C     0.88941   0.97608   0.03958   0.00000  Uiso   1.00
C533   C     0.77725   0.69059   0.46042   0.00000  Uiso   1.00
C534   C     0.88546   0.91872   0.47397   0.00000  Uiso   1.00
C535   C     0.78121   0.74794   0.02603   0.00000  Uiso   1.00
C536   C     0.85675   0.98619   0.24877   0.00000  Uiso   1.00
C537   C     0.80992   0.68047   0.25123   0.00000  Uiso   1.00
C538   C     0.83394   0.83240   0.33634   0.00000  Uiso   1.00
C539   C     0.83272   0.83427   0.16366   0.00000  Uiso   1.00
C540   C     0.79811   0.79545   0.09493   0.00000  Uiso   1.00
H541   H     0.90288   0.95280   0.45529   0.00000  Uiso   1.00
H542   H     0.76574   0.99657   0.25364   0.00000  Uiso   1.00
H543   H     0.67139   0.79445   0.21618   0.00000  Uiso   1.00
H544   H     0.99528   0.87221   0.28382   0.00000  Uiso   1.00
H545   H     0.76378   0.71387   0.04471   0.00000  Uiso   1.00
H546   H     0.68403   0.71705   0.13443   0.00000  Uiso   1.00
H547   H     0.98264   0.94962   0.36557   0.00000  Uiso   1.00
H548   H     0.92411   0.96285   0.16182   0.00000  Uiso   1.00
H549   H     0.74255   0.70382   0.33818   0.00000  Uiso   1.00
H550   H     0.93624   0.71204   0.03715   0.00000  Uiso   1.00
H551   H     0.73041   0.95463   0.46285   0.00000  Uiso   1.00
H552   H     0.90093   0.67010   0.24636   0.00000  Uiso   1.00
N553   N     0.98344   0.81932   0.23783   0.00000  Uiso   1.00
N554   N     0.68322   0.84735   0.26217   0.00000  Uiso   1.00
O555   O     0.79642   0.91286   0.25299   0.00000  Uiso   1.00
O556   O     0.70372   0.74573   0.11465   0.00000  Uiso   1.00
O557   O     0.88221   0.93773   0.35103   0.00000  Uiso   1.00
O558   O     0.96295   0.92094   0.38535   0.00000  Uiso   1.00
O559   O     0.95781   0.91140   0.09919   0.00000  Uiso   1.00
O560   O     0.89050   0.94042   0.15051   0.00000  Uiso   1.00
O561   O     0.70885   0.75527   0.40080   0.00000  Uiso   1.00
O562   O     0.77616   0.72625   0.34949   0.00000  Uiso   1.00
O563   O     0.85639   0.99115   0.06985   0.00000  Uiso   1.00
O564   O     0.93471   0.67661   0.02170   0.00000  Uiso   1.00
O565   O     0.81027   0.67552   0.43015   0.00000  Uiso   1.00
O566   O     0.87025   0.75381   0.24702   0.00000  Uiso   1.00
O567   O     0.73194   0.99006   0.47830   0.00000  Uiso   1.00
O568   O     0.89280   0.90387   0.24519   0.00000  Uiso   1.00
O569   O     0.77387   0.76279   0.25481   0.00000  Uiso   1.00
O570   O     0.78514   0.83784   0.31997   0.00000  Uiso   1.00
O571   O     0.88153   0.82883   0.18003   0.00000  Uiso   1.00
O572   O     0.88152   0.82885   0.31218   0.00000  Uiso   1.00
O573   O     0.78515   0.83781   0.18783   0.00000  Uiso   1.00
O574   O     0.78446   0.72893   0.14896   0.00000  Uiso   1.00
Zn575  Zn    0.76898   0.83933   0.25521   0.00000  Uiso   1.00
Zn576  Zn    0.89769   0.82734   0.24479   0.00000  Uiso   1.00
C577   C     0.18201   0.26495   0.74916   0.00000  Uiso   1.00
C578   C     0.20189   0.20455   0.90507   0.00000  Uiso   1.00
C579   C     0.16433   0.16862   0.61599   0.00000  Uiso   1.00
C580   C     0.16900   0.16471   0.88401   0.00000  Uiso   1.00
C581   C     0.19674   0.20852   0.59167   0.00000  Uiso   1.00
C582   C     0.13659   0.12481   0.90833   0.00000  Uiso   1.00
C583   C     0.19139   0.21164   0.54544   0.00000  Uiso   1.00
C584   C     0.14194   0.12169   0.95456   0.00000  Uiso   1.00
C585   C     0.16506   0.16785   0.52344   0.00000  Uiso   1.00
C586   C     0.16827   0.16549   0.97656   0.00000  Uiso   1.00
C587   C     0.13558   0.12630   0.54823   0.00000  Uiso   1.00
C588   C     0.15132   0.06838   0.75084   0.00000  Uiso   1.00
C589   C     0.19775   0.20704   0.95177   0.00000  Uiso   1.00
C590   C     0.21292   0.25615   0.52015   0.00000  Uiso   1.00
C591   C     0.12041   0.07718   0.97985   0.00000  Uiso   1.00
C592   C     0.09574   0.08809   0.62161   0.00000  Uiso   1.00
C593   C     0.23760   0.24524   0.87839   0.00000  Uiso   1.00
C594   C     0.24057   0.24292   0.61379   0.00000  Uiso   1.00
C595   C     0.09276   0.09041   0.88621   0.00000  Uiso   1.00
C596   C     0.22274   0.30941   0.53958   0.00000  Uiso   1.00
C597   C     0.11058   0.02392   0.96042   0.00000  Uiso   1.00
C598   C     0.21879   0.25206   0.97397   0.00000  Uiso   1.00
C599   C     0.11454   0.08128   0.52603   0.00000  Uiso   1.00
C600   C     0.19008   0.31953   0.74877   0.00000  Uiso   1.00
C601   C     0.14325   0.01381   0.75123   0.00000  Uiso   1.00
C602   C     0.16728   0.16573   0.83634   0.00000  Uiso   1.00
C603   C     0.16606   0.16760   0.66366   0.00000  Uiso   1.00
C604   C     0.13144   0.12879   0.59493   0.00000  Uiso   1.00
H605   H     0.23621   0.28613   0.95529   0.00000  Uiso   1.00
H606   H     0.09907   0.32990   0.75364   0.00000  Uiso   1.00
H607   H     0.00472   0.12779   0.71618   0.00000  Uiso   1.00
H608   H     0.32861   0.20555   0.78382   0.00000  Uiso   1.00
H609   H     0.09712   0.04720   0.54471   0.00000  Uiso   1.00
H610   H     0.01737   0.05038   0.63443   0.00000  Uiso   1.00
H611   H     0.31597   0.28295   0.86557   0.00000  Uiso   1.00
H612   H     0.25745   0.29618   0.66182   0.00000  Uiso   1.00
H613   H     0.07588   0.03715   0.83818   0.00000  Uiso   1.00
H614   H     0.26958   0.04538   0.53715   0.00000  Uiso   1.00
H615   H     0.06374   0.28796   0.96285   0.00000  Uiso   1.00
H616   H     0.23426   0.00343   0.74636   0.00000  Uiso   1.00
N617   N     0.31678   0.15265   0.73783   0.00000  Uiso   1.00
N618   N     0.01656   0.18068   0.76217   0.00000  Uiso   1.00
O619   O     0.12975   0.24619   0.75299   0.00000  Uiso   1.00
O620   O     0.03705   0.07906   0.61465   0.00000  Uiso   1.00
O621   O     0.21555   0.27106   0.85103   0.00000  Uiso   1.00
O622   O     0.29628   0.25427   0.88535   0.00000  Uiso   1.00
O623   O     0.29115   0.24473   0.59919   0.00000  Uiso   1.00
O624   O     0.22383   0.27375   0.65051   0.00000  Uiso   1.00
O625   O     0.04218   0.08860   0.90080   0.00000  Uiso   1.00
O626   O     0.10950   0.05958   0.84949   0.00000  Uiso   1.00
O627   O     0.18972   0.32448   0.56985   0.00000  Uiso   1.00
O628   O     0.26805   0.00994   0.52170   0.00000  Uiso   1.00
O629   O     0.14360   0.00885   0.93015   0.00000  Uiso   1.00
O630   O     0.20358   0.08714   0.74702   0.00000  Uiso   1.00
O631   O     0.06527   0.32340   0.97830   0.00000  Uiso   1.00
O632   O     0.22613   0.23721   0.74519   0.00000  Uiso   1.00
O633   O     0.10720   0.09613   0.75481   0.00000  Uiso   1.00
O634   O     0.11847   0.17117   0.81997   0.00000  Uiso   1.00
O635   O     0.21486   0.16216   0.68003   0.00000  Uiso   1.00
O636   O     0.21485   0.16219   0.81218   0.00000  Uiso   1.00
O637   O     0.11848   0.17115   0.68783   0.00000  Uiso   1.00
O638   O     0.11779   0.06227   0.64896   0.00000  Uiso   1.00
Zn639  Zn    0.10231   0.17266   0.75521   0.00000  Uiso   1.00
Zn640  Zn    0.23102   0.16067   0.74479   0.00000  Uiso   1.00
C641   C     0.51535   0.26495   0.74916   0.00000  Uiso   1.00
C642   C     0.53522   0.20455   0.90507   0.00000  Uiso   1.00
C643   C     0.49766   0.16862   0.61599   0.00000  Uiso   1.00
C644   C     0.50234   0.16471   0.88401   0.00000  Uiso   1.00
C645   C     0.53007   0.20852   0.59167   0.00000  Uiso   1.00
C646   C     0.46993   0.12481   0.90833   0.00000  Uiso   1.00
C647   C     0.52472   0.21164   0.54544   0.00000  Uiso   1.00
C648   C     0.47528   0.12169   0.95456   0.00000  Uiso   1.00
C649   C     0.49839   0.16785   0.52344   0.00000  Uiso   1.00
C650   C     0.50161   0.16549   0.97656   0.00000  Uiso   1.00
C651   C     0.46891   0.12630   0.54823   0.00000  Uiso   1.00
C652   C     0.48465   0.06838   0.75084   0.00000  Uiso   1.00
C653   C     0.53108   0.20704   0.95177   0.00000  Uiso   1.00
C654   C     0.54626   0.25615   0.52015   0.00000  Uiso   1.00
C655   C     0.45374   0.07718   0.97985   0.00000  Uiso   1.00
C656   C     0.42907   0.08809   0.62161   0.00000  Uiso   1.00
C657   C     0.57093   0.24524   0.87839   0.00000  Uiso   1.00
C658   C     0.57390   0.24292   0.61379   0.00000  Uiso   1.00
C659   C     0.42610   0.09041   0.88621   0.00000  Uiso   1.00
C660   C     0.55608   0.30941   0.53958   0.00000  Uiso   1.00
C661   C     0.44392   0.02392   0.96042   0.00000  Uiso   1.00
C662   C     0.55212   0.25206   0.97397   0.00000  Uiso   1.00
C663   C     0.44787   0.08128   0.52603   0.00000  Uiso   1.00
C664   C     0.52342   0.31953   0.74877   0.00000  Uiso   1.00
C665   C     0.47658   0.01381   0.75123   0.00000  Uiso   1.00
C666   C     0.50061   0.16573   0.83634   0.00000  Uiso   1.00
C667   C     0.49939   0.16760   0.66366   0.00000  Uiso   1.00
C668   C     0.46478   0.12879   0.59493   0.00000  Uiso   1.00
H669   H     0.56955   0.28613   0.95529   0.00000  Uiso   1.00
H670   H     0.43241   0.32990   0.75364   0.00000  Uiso   1.00
H671   H     0.33805   0.12779   0.71618   0.00000  Uiso   1.00
H672   H     0.66195   0.20555   0.78382   0.00000  Uiso   1.00
H673   H     0.43045   0.04720   0.54471   0.00000  Uiso   1.00
H674   H     0.35070   0.05038   0.63443   0.00000  Uiso   1.00
H675   H     0.64930   0.28295   0.86557   0.00000  Uiso   1.00
H676   H     0.59078   0.29618   0.66182   0.00000  Uiso   1.00
H677   H     0.40922   0.03715   0.83818   0.00000  Uiso   1.00
H678   H     0.60291   0.04538   0.53715   0.00000  Uiso   1.00
H679   H     0.39707   0.28796   0.96285   0.00000  Uiso   1.00
H680   H     0.56759   0.00343   0.74636   0.00000  Uiso   1.00
N681   N     0.65011   0.15265   0.73783   0.00000  Uiso   1.00
N682   N     0.34989   0.18068   0.76217   0.00000  Uiso   1.00
O683   O     0.46308   0.24619   0.75299   0.00000  Uiso   1.00
O684   O     0.37038   0.07906   0.61465   0.00000  Uiso   1.00
O685   O     0.54888   0.27106   0.85103   0.00000  Uiso   1.00
O686   O     0.62962   0.25427   0.88535   0.00000  Uiso   1.00
O687   O     0.62448   0.24473   0.59919   0.00000  Uiso   1.00
O688   O     0.55717   0.27375   0.65051   0.00000  Uiso   1.00
O689   O     0.37552   0.08860   0.90080   0.00000  Uiso   1.00
O690   O     0.44283   0.05958   0.84949   0.00000  Uiso   1.00
O691   O     0.52306   0.32448   0.56985   0.00000  Uiso   1.00
O692   O     0.60138   0.00994   0.52170   0.00000  Uiso   1.00
O693   O     0.47694   0.00885   0.93015   0.00000  Uiso   1.00
O694   O     0.53692   0.08714   0.74702   0.00000  Uiso   1.00
O695   O     0.39861   0.32340   0.97830   0.00000  Uiso   1.00
O696   O     0.55946   0.23721   0.74519   0.00000  Uiso   1.00
O697   O     0.44054   0.09613   0.75481   0.00000  Uiso   1.00
O698   O     0.45181   0.17117   0.81997   0.00000  Uiso   1.00
O699   O     0.54819   0.16216   0.68003   0.00000  Uiso   1.00
O700   O     0.54819   0.16219   0.81218   0.00000  Uiso   1.00
O701   O     0.45181   0.17115   0.68783   0.00000  Uiso   1.00
O702   O     0.45113   0.06227   0.64896   0.00000  Uiso   1.00
Zn703  Zn    0.43565   0.17266   0.75521   0.00000  Uiso   1.00
Zn704  Zn    0.56435   0.16067   0.74479   0.00000  Uiso   1.00
C705   C     0.84868   0.26495   0.74916   0.00000  Uiso   1.00
C706   C     0.86856   0.20455   0.90507   0.00000  Uiso   1.00
C707   C     0.83100   0.16862   0.61599   0.00000  Uiso   1.00
C708   C     0.83567   0.16471   0.88401   0.00000  Uiso   1.00
C709   C     0.86341   0.20852   0.59167   0.00000  Uiso   1.00
C710   C     0.80326   0.12481   0.90833   0.00000  Uiso   1.00
C711   C     0.85805   0.21164   0.54544   0.00000  Uiso   1.00
C712   C     0.80861   0.12169   0.95456   0.00000  Uiso   1.00
C713   C     0.83172   0.16785   0.52344   0.00000  Uiso   1.00
C714   C     0.83494   0.16549   0.97656   0.00000  Uiso   1.00
C715   C     0.80225   0.12630   0.54823   0.00000  Uiso   1.00
C716   C     0.81799   0.06838   0.75084   0.00000  Uiso   1.00
C717   C     0.86442   0.20704   0.95177   0.00000  Uiso   1.00
C718   C     0.87959   0.25615   0.52015   0.00000  Uiso   1.00
C719   C     0.78707   0.07718   0.97985   0.00000  Uiso   1.00
C720   C     0.76240   0.08809   0.62161   0.00000  Uiso   1.00
C721   C     0.90426   0.24524   0.87839   0.00000  Uiso   1.00
C722   C     0.90724   0.24292   0.61379   0.00000  Uiso   1.00
C723   C     0.75943   0.09041   0.88621   0.00000  Uiso   1.00
C724   C     0.88941   0.30941   0.53958   0.00000  Uiso   1.00
C725   C     0.77725   0.02392   0.96042   0.00000  Uiso   1.00
C726   C     0.88546   0.25206   0.97397   0.00000  Uiso   1.00
C727   C     0.78121   0.08128   0.52603   0.00000  Uiso   1.00
C728   C     0.85675   0.31953   0.74877   0.00000  Uiso   1.00
C729   C     0.80992   0.01381   0.75123   0.00000  Uiso   1.00
C730   C     0.83394   0.16573   0.83634   0.00000  Uiso   1.00
C731   C     0.83272   0.16760   0.66366   0.00000  Uiso   1.00
C732   C     0.79811   0.12879   0.59493   0.00000  Uiso   1.00
H733   H     0.90288   0.28613   0.95529   0.00000  Uiso   1.00
H734   H     0.76574   0.32990   0.75364   0.00000  Uiso   1.00
H735   H     0.67139   0.12779   0.71618   0.00000  Uiso   1.00
H736   H     0.99528   0.20555   0.78382   0.00000  Uiso   1.00
H737   H     0.76378   0.04720   0.54471   0.00000  Uiso   1.00
H738   H     0.68403   0.05038   0.63443   0.00000  Uiso   1.00
H739   H     0.98264   0.28295   0.86557   0.00000  Uiso   1.00
H740   H     0.92411   0.29618   0.66182   0.00000  Uiso   1.00
H741   H     0.74255   0.03715   0.83818   0.00000  Uiso   1.00
H742   H     0.93624   0.04538   0.53715   0.00000  Uiso   1.00
H743   H     0.73041   0.28796   0.96285   0.00000  Uiso   1.00
H744   H     0.90093   0.00343   0.74636   0.00000  Uiso   1.00
N745   N     0.98344   0.15265   0.73783   0.00000  Uiso   1.00
N746   N     0.68322   0.18068   0.76217   0.00000  Uiso   1.00
O747   O     0.79642   0.24619   0.75299   0.00000  Uiso   1.00
O748   O     0.70372   0.07906   0.61465   0.00000  Uiso   1.00
O749   O     0.88221   0.27106   0.85103   0.00000  Uiso   1.00
O750   O     0.96295   0.25427   0.88535   0.00000  Uiso   1.00
O751   O     0.95781   0.24473   0.59919   0.00000  Uiso   1.00
O752   O     0.89050   0.27375   0.65051   0.00000  Uiso   1.00
O753   O     0.70885   0.08860   0.90080   0.00000  Uiso   1.00
O754   O     0.77616   0.05958   0.84949   0.00000  Uiso   1.00
O755   O     0.85639   0.32448   0.56985   0.00000  Uiso   1.00
O756   O     0.93471   0.00994   0.52170   0.00000  Uiso   1.00
O757   O     0.81027   0.00885   0.93015   0.00000  Uiso   1.00
O758   O     0.87025   0.08714   0.74702   0.00000  Uiso   1.00
O759   O     0.73194   0.32340   0.97830   0.00000  Uiso   1.00
O760   O     0.89280   0.23721   0.74519   0.00000  Uiso   1.00
O761   O     0.77387   0.09613   0.75481   0.00000  Uiso   1.00
O762   O     0.78514   0.17117   0.81997   0.00000  Uiso   1.00
O763   O     0.88153   0.16216   0.68003   0.00000  Uiso   1.00
O764   O     0.88152   0.16219   0.81218   0.00000  Uiso   1.00
O765   O     0.78515   0.17115   0.68783   0.00000  Uiso   1.00
O766   O     0.78446   0.06227   0.64896   0.00000  Uiso   1.00
Zn767  Zn    0.76898   0.17266   0.75521   0.00000  Uiso   1.00
Zn768  Zn    0.89769   0.16067   0.74479   0.00000  Uiso   1.00
C769   C     0.18201   0.59828   0.74916   0.00000  Uiso   1.00
C770   C     0.20189   0.53788   0.90507   0.00000  Uiso   1.00
C771   C     0.16433   0.50195   0.61599   0.00000  Uiso   1.00
C772   C     0.16900   0.49805   0.88401   0.00000  Uiso   1.00
C773   C     0.19674   0.54186   0.59167   0.00000  Uiso   1.00
C774   C     0.13659   0.45815   0.90833   0.00000  Uiso   1.00
C775   C     0.19139   0.54498   0.54544   0.00000  Uiso   1.00
C776   C     0.14194   0.45503   0.95456   0.00000  Uiso   1.00
C777   C     0.16506   0.50118   0.52344   0.00000  Uiso   1.00
C778   C     0.16827   0.49882   0.97656   0.00000  Uiso   1.00
C779   C     0.13558   0.45963   0.54823   0.00000  Uiso   1.00
C780   C     0.15132   0.40172   0.75084   0.00000  Uiso   1.00
C781   C     0.19775   0.54037   0.95177   0.00000  Uiso   1.00
C782   C     0.21292   0.58949   0.52015   0.00000  Uiso   1.00
C783   C     0.12041   0.41051   0.97985   0.00000  Uiso   1.00
C784   C     0.09574   0.42142   0.62161   0.00000  Uiso   1.00
C785   C     0.23760   0.57858   0.87839   0.00000  Uiso   1.00
C786   C     0.24057   0.57625   0.61379   0.00000  Uiso   1.00
C787   C     0.09276   0.42375   0.88621   0.00000  Uiso   1.00
C788   C     0.22274   0.64275   0.53958   0.00000  Uiso   1.00
C789   C     0.11058   0.35725   0.96042   0.00000  Uiso   1.00
C790   C     0.21879   0.58539   0.97397   0.00000  Uiso   1.00
C791   C     0.11454   0.41461   0.52603   0.00000  Uiso   1.00
C792   C     0.19008   0.65286   0.74877   0.00000  Uiso   1.00
C793   C     0.14325   0.34714   0.75123   0.00000  Uiso   1.00
C794   C     0.16728   0.49906   0.83634   0.00000  Uiso   1.00
C795   C     0.16606   0.50094   0.66366   0.00000  Uiso   1.00
C796   C     0.13144   0.46212   0.59493   0.00000  Uiso   1.00
H797   H     0.23621   0.61947   0.95529   0.00000  Uiso   1.00
H798   H     0.09907   0.66324   0.75364   0.00000  Uiso   1.00
H799   H     0.00472   0.46112   0.71618   0.00000  Uiso   1.00
H800   H     0.32861   0.53888   0.78382   0.00000  Uiso   1.00
H801   H     0.09712   0.38053   0.54471   0.00000  Uiso   1.00
H802   H     0.01737   0.38371   0.63443   0.00000  Uiso   1.00
H803   H     0.31597   0.61629   0.86557   0.00000  Uiso   1.00
H804   H     0.25745   0.62952   0.66182   0.00000  Uiso   1.00
H805   H     0.07588   0.37049   0.83818   0.00000  Uiso   1.00
H806   H     0.26958   0.37871   0.53715   0.00000  Uiso   1.00
H807   H     0.06374   0.62130   0.96285   0.00000  Uiso   1.00
H808   H     0.23426   0.33676   0.74636   0.00000  Uiso   1.00
N809   N     0.31678   0.48598   0.73783   0.00000  Uiso   1.00
N810   N     0.01656   0.51402   0.76217   0.00000  Uiso   1.00
O811   O     0.12975   0.57952   0.75299   0.00000  Uiso   1.00
O812   O     0.03705   0.41239   0.61465   0.00000  Uiso   1.00
O813   O     0.21555   0.60440   0.85103   0.00000  Uiso   1.00
O814   O     0.29628   0.58760   0.88535   0.00000  Uiso   1.00
O815   O     0.29115   0.57807   0.59919   0.00000  Uiso   1.00
O816   O     0.22383   0.60708   0.65051   0.00000  Uiso   1.00
O817   O     0.04218   0.42193   0.90080   0.00000  Uiso   1.00
O818   O     0.10950   0.39292   0.84949   0.00000  Uiso   1.00
O819   O     0.18972   0.65781   0.56985   0.00000  Uiso   1.00
O820   O     0.26805   0.34328   0.52170   0.00000  Uiso   1.00
O821   O     0.14360   0.34218   0.93015   0.00000  Uiso   1.00
O822   O     0.20358   0.42048   0.74702   0.00000  Uiso   1.00
O823   O     0.06527   0.65673   0.97830   0.00000  Uiso   1.00
O824   O     0.22613   0.57054   0.74519   0.00000  Uiso   1.00
O825   O     0.10720   0.42946   0.75481   0.00000  Uiso   1.00
O826   O     0.11847   0.50450   0.81997   0.00000  Uiso   1.00
O827   O     0.21486   0.49550   0.68003   0.00000  Uiso   1.00
O828   O     0.21485   0.49552   0.81218   0.00000  Uiso   1.00
O829   O     0.11848   0.50448   0.68783   0.00000  Uiso   1.00
O830   O     0.11779   0.39560   0.64896   0.00000  Uiso   1.00
Zn831  Zn    0.10231   0.50600   0.75521   0.00000  Uiso   1.00
Zn832  Zn    0.23102   0.49400   0.74479   0.00000  Uiso   1.00
C833   C     0.51535   0.59828   0.74916   0.00000  Uiso   1.00
C834   C     0.53522   0.53788   0.90507   0.00000  Uiso   1.00
C835   C     0.49766   0.50195   0.61599   0.00000  Uiso   1.00
C836   C     0.50234   0.49805   0.88401   0.00000  Uiso   1.00
C837   C     0.53007   0.54186   0.59167   0.00000  Uiso   1.00
C838   C     0.46993   0.45815   0.90833   0.00000  Uiso   1.00
C839   C     0.52472   0.54498   0.54544   0.00000  Uiso   1.00
C840   C     0.47528   0.45503   0.95456   0.00000  Uiso   1.00
C841   C     0.49839   0.50118   0.52344   0.00000  Uiso   1.00
C842   C     0.50161   0.49882   0.97656   0.00000  Uiso   1.00
C843   C     0.46891   0.45963   0.54823   0.00000  Uiso   1.00
C844   C     0.48465   0.40172   0.75084   0.00000  Uiso   1.00
C845   C     0.53108   0.54037   0.95177   0.00000  Uiso   1.00
C846   C     0.54626   0.58949   0.52015   0.00000  Uiso   1.00
C847   C     0.45374   0.41051   0.97985   0.00000  Uiso   1.00
C848   C     0.42907   0.42142   0.62161   0.00000  Uiso   1.00
C849   C     0.57093   0.57858   0.87839   0.00000  Uiso   1.00
C850   C     0.57390   0.57625   0.61379   0.00000  Uiso   1.00
C851   C     0.42610   0.42375   0.88621   0.00000  Uiso   1.00
C852   C     0.55608   0.64275   0.53958   0.00000  Uiso   1.00
C853   C     0.44392   0.35725   0.96042   0.00000  Uiso   1.00
C854   C     0.55212   0.58539   0.97397   0.00000  Uiso   1.00
C855   C     0.44787   0.41461   0.52603   0.00000  Uiso   1.00
C856   C     0.52342   0.65286   0.74877   0.00000  Uiso   1.00
C857   C     0.47658   0.34714   0.75123   0.00000  Uiso   1.00
C858   C     0.50061   0.49906   0.83634   0.00000  Uiso   1.00
C859   C     0.49939   0.50094   0.66366   0.00000  Uiso   1.00
C860   C     0.46478   0.46212   0.59493   0.00000  Uiso   1.00
H861   H     0.56955   0.61947   0.95529   0.00000  Uiso   1.00
H862   H     0.43241   0.66324   0.75364   0.00000  Uiso   1.00
H863   H     0.33805   0.46112   0.71618   0.00000  Uiso   1.00
H864   H     0.66195   0.53888   0.78382   0.00000  Uiso   1.00
H865   H     0.43045   0.38053   0.54471   0.00000  Uiso   1.00
H866   H     0.35070   0.38371   0.63443   0.00000  Uiso   1.00
H867   H     0.64930   0.61629   0.86557   0.00000  Uiso   1.00
H868   H     0.59078   0.62952   0.66182   0.00000  Uiso   1.00
H869   H     0.40922   0.37049   0.83818   0.00000  Uiso   1.00
H870   H     0.60291   0.37871   0.53715   0.00000  Uiso   1.00
H871   H     0.39707   0.62130   0.96285   0.00000  Uiso   1.00
H872   H     0.56759   0.33676   0.74636   0.00000  Uiso   1.00
N873   N     0.65011   0.48598   0.73783   0.00000  Uiso   1.00
N874   N     0.34989   0.51402   0.76217   0.00000  Uiso   1.00
O875   O     0.46308   0.57952   0.75299   0.00000  Uiso   1.00
O876   O     0.37038   0.41239   0.61465   0.00000  Uiso   1.00
O877   O     0.54888   0.60440   0.85103   0.00000  Uiso   1.00
O878   O     0.62962   0.58760   0.88535   0.00000  Uiso   1.00
O879   O     0.62448   0.57807   0.59919   0.00000  Uiso   1.00
O880   O     0.55717   0.60708   0.65051   0.00000  Uiso   1.00
O881   O     0.37552   0.42193   0.90080   0.00000  Uiso   1.00
O882   O     0.44283   0.39292   0.84949   0.00000  Uiso   1.00
O883   O     0.52306   0.65781   0.56985   0.00000  Uiso   1.00
O884   O     0.60138   0.34328   0.52170   0.00000  Uiso   1.00
O885   O     0.47694   0.34218   0.93015   0.00000  Uiso   1.00
O886   O     0.53692   0.42048   0.74702   0.00000  Uiso   1.00
O887   O     0.39861   0.65673   0.97830   0.00000  Uiso   1.00
O888   O     0.55946   0.57054   0.74519   0.00000  Uiso   1.00
O889   O     0.44054   0.42946   0.75481   0.00000  Uiso   1.00
O890   O     0.45181   0.50450   0.81997   0.00000  Uiso   1.00
O891   O     0.54819   0.49550   0.68003   0.00000  Uiso   1.00
O892   O     0.54819   0.49552   0.81218   0.00000  Uiso   1.00
O893   O     0.45181   0.50448   0.68783   0.00000  Uiso   1.00
O894   O     0.45113   0.39560   0.64896   0.00000  Uiso   1.00
Zn895  Zn    0.43565   0.50600   0.75521   0.00000  Uiso   1.00
Zn896  Zn    0.56435   0.49400   0.74479   0.00000  Uiso   1.00
C897   C     0.84868   0.59828   0.74916   0.00000  Uiso   1.00
C898   C     0.86856   0.53788   0.90507   0.00000  Uiso   1.00
C899   C     0.83100   0.50195   0.61599   0.00000  Uiso   1.00
C900   C     0.83567   0.49805   0.88401   0.00000  Uiso   1.00
C901   C     0.86341   0.54186   0.59167   0.00000  Uiso   1.00
C902   C     0.80326   0.45815   0.90833   0.00000  Uiso   1.00
C903   C     0.85805   0.54498   0.54544   0.00000  Uiso   1.00
C904   C     0.80861   0.45503   0.95456   0.00000  Uiso   1.00
C905   C     0.83172   0.50118   0.52344   0.00000  Uiso   1.00
C906   C     0.83494   0.49882   0.97656   0.00000  Uiso   1.00
C907   C     0.80225   0.45963   0.54823   0.00000  Uiso   1.00
C908   C     0.81799   0.40172   0.75084   0.00000  Uiso   1.00
C909   C     0.86442   0.54037   0.95177   0.00000  Uiso   1.00
C910   C     0.87959   0.58949   0.52015   0.00000  Uiso   1.00
C911   C     0.78707   0.41051   0.97985   0.00000  Uiso   1.00
C912   C     0.76240   0.42142   0.62161   0.00000  Uiso   1.00
C913   C     0.90426   0.57858   0.87839   0.00000  Uiso   1.00
C914   C     0.90724   0.57625   0.61379   0.00000  Uiso   1.00
C915   C     0.75943   0.42375   0.88621   0.00000  Uiso   1.00
C916   C     0.88941   0.64275   0.53958   0.00000  Uiso   1.00
C917   C     0.77725   0.35725   0.96042   0.00000  Uiso   1.00
C918   C     0.88546   0.58539   0.97397   0.00000  Uiso   1.00
C919   C     0.78121   0.41461   0.52603   0.00000  Uiso   1.00
C920   C     0.85675   0.65286   0.74877   0.00000  Uiso   1.00
C921   C     0.80992   0.34714   0.75123   0.00000  Uiso   1.00
C922   C     0.83394   0.49906   0.83634   0.00000  Uiso   1.00
C923   C     0.83272   0.50094   0.66366   0.00000  Uiso   1.00
C924   C     0.79811   0.46212   0.59493   0.00000  Uiso   1.00
H925   H     0.90288   0.61947   0.95529   0.00000  Uiso   1.00
H926   H     0.76574   0.66324   0.75364   0.00000  Uiso   1.00
H927   H     0.67139   0.46112   0.71618   0.00000  Uiso   1.00
H928   H     0.99528   0.53888   0.78382   0.00000  Uiso   1.00
H929   H     0.76378   0.38053   0.54471   0.00000  Uiso   1.00
H930   H     0.68403   0.38371   0.63443   0.00000  Uiso   1.00
H931   H     0.98264   0.61629   0.86557   0.00000  Uiso   1.00
H932   H     0.92411   0.62952   0.66182   0.00000  Uiso   1.00
H933   H     0.74255   0.37049   0.83818   0.00000  Uiso   1.00
H934   H     0.93624   0.37871   0.53715   0.00000  Uiso   1.00
H935   H     0.73041   0.62130   0.96285   0.00000  Uiso   1.00
H936   H     0.90093   0.33676   0.74636   0.00000  Uiso   1.00
N937   N     0.98344   0.48598   0.73783   0.00000  Uiso   1.00
N938   N     0.68322   0.51402   0.76217   0.00000  Uiso   1.00
O939   O     0.79642   0.57952   0.75299   0.00000  Uiso   1.00
O940   O     0.70372   0.41239   0.61465   0.00000  Uiso   1.00
O941   O     0.88221   0.60440   0.85103   0.00000  Uiso   1.00
O942   O     0.96295   0.58760   0.88535   0.00000  Uiso   1.00
O943   O     0.95781   0.57807   0.59919   0.00000  Uiso   1.00
O944   O     0.89050   0.60708   0.65051   0.00000  Uiso   1.00
O945   O     0.70885   0.42193   0.90080   0.00000  Uiso   1.00
O946   O     0.77616   0.39292   0.84949   0.00000  Uiso   1.00
O947   O     0.85639   0.65781   0.56985   0.00000  Uiso   1.00
O948   O     0.93471   0.34328   0.52170   0.00000  Uiso   1.00
O949   O     0.81027   0.34218   0.93015   0.00000  Uiso   1.00
O950   O     0.87025   0.42048   0.74702   0.00000  Uiso   1.00
O951   O     0.73194   0.65673   0.97830   0.00000  Uiso   1.00
O952   O     0.89280   0.57054   0.74519   0.00000  Uiso   1.00
O953   O     0.77387   0.42946   0.75481   0.00000  Uiso   1.00
O954   O     0.78514   0.50450   0.81997   0.00000  Uiso   1.00
O955   O     0.88153   0.49550   0.68003   0.00000  Uiso   1.00
O956   O     0.88152   0.49552   0.81218   0.00000  Uiso   1.00
O957   O     0.78515   0.50448   0.68783   0.00000  Uiso   1.00
O958   O     0.78446   0.39560   0.64896   0.00000  Uiso   1.00
Zn959  Zn    0.76898   0.50600   0.75521   0.00000  Uiso   1.00
Zn960  Zn    0.89769   0.49400   0.74479   0.00000  Uiso   1.00
C961   C     0.18201   0.93162   0.74916   0.00000  Uiso   1.00
C962   C     0.20189   0.87121   0.90507   0.00000  Uiso   1.00
C963   C     0.16433   0.83529   0.61599   0.00000  Uiso   1.00
C964   C     0.16900   0.83138   0.88401   0.00000  Uiso   1.00
C965   C     0.19674   0.87519   0.59167   0.00000  Uiso   1.00
C966   C     0.13659   0.79148   0.90833   0.00000  Uiso   1.00
C967   C     0.19139   0.87831   0.54544   0.00000  Uiso   1.00
C968   C     0.14194   0.78836   0.95456   0.00000  Uiso   1.00
C969   C     0.16506   0.83451   0.52344   0.00000  Uiso   1.00
C970   C     0.16827   0.83215   0.97656   0.00000  Uiso   1.00
C971   C     0.13558   0.79296   0.54823   0.00000  Uiso   1.00
C972   C     0.15132   0.73505   0.75084   0.00000  Uiso   1.00
C973   C     0.19775   0.87370   0.95177   0.00000  Uiso   1.00
C974   C     0.21292   0.92282   0.52015   0.00000  Uiso   1.00
C975   C     0.12041   0.74385   0.97985   0.00000  Uiso   1.00
C976   C     0.09574   0.75476   0.62161   0.00000  Uiso   1.00
C977   C     0.23760   0.91191   0.87839   0.00000  Uiso   1.00
C978   C     0.24057   0.90959   0.61379   0.00000  Uiso   1.00
C979   C     0.09276   0.75708   0.88621   0.00000  Uiso   1.00
C980   C     0.22274   0.97608   0.53958   0.00000  Uiso   1.00
C981   C     0.11058   0.69059   0.96042   0.00000  Uiso   1.00
C982   C     0.21879   0.91872   0.97397   0.00000  Uiso   1.00
C983   C     0.11454   0.74794   0.52603   0.00000  Uiso   1.00
C984   C     0.19008   0.98619   0.74877   0.00000  Uiso   1.00
C985   C     0.14325   0.68047   0.75123   0.00000  Uiso   1.00
C986   C     0.16728   0.83240   0.83634   0.00000  Uiso   1.00
C987   C     0.16606   0.83427   0.66366   0.00000  Uiso   1.00
C988   C     0.13144   0.79545   0.59493   0.00000  Uiso   1.00
H989   H     0.23621   0.95280   0.95529   0.00000  Uiso   1.00
H990   H     0.09907   0.99657   0.75364   0.00000  Uiso   1.00
H991   H     0.00472   0.79445   0.71618   0.00000  Uiso   1.00
H992   H     0.32861   0.87221   0.78382   0.00000  Uiso   1.00
H993   H     0.09712   0.71387   0.54471   0.00000  Uiso   1.00
H994   H     0.01737   0.71705   0.63443   0.00000  Uiso   1.00
H995   H     0.31597   0.94962   0.86557   0.00000  Uiso   1.00
H996   H     0.25745   0.96285   0.66182   0.00000  Uiso   1.00
H997   H     0.07588   0.70382   0.83818   0.00000  Uiso   1.00
H998   H     0.26958   0.71204   0.53715   0.00000  Uiso   1.00
H999   H     0.06374   0.95463   0.96285   0.00000  Uiso   1.00
H1000  H     0.23426   0.67010   0.74636   0.00000  Uiso   1.00
N1001  N     0.31678   0.81932   0.73783   0.00000  Uiso   1.00
N1002  N     0.01656   0.84735   0.76217   0.00000  Uiso   1.00
O1003  O     0.12975   0.91286   0.75299   0.00000  Uiso   1.00
O1004  O     0.03705   0.74573   0.61465   0.00000  Uiso   1.00
O1005  O     0.21555   0.93773   0.85103   0.00000  Uiso   1.00
O1006  O     0.29628   0.92094   0.88535   0.00000  Uiso   1.00
O1007  O     0.29115   0.91140   0.59919   0.00000  Uiso   1.00
O1008  O     0.22383   0.94042   0.65051   0.00000  Uiso   1.00
O1009  O     0.04218   0.75527   0.90080   0.00000  Uiso   1.00
O1010  O     0.10950   0.72625   0.84949   0.00000  Uiso   1.00
O1011  O     0.18972   0.99115   0.56985   0.00000  Uiso   1.00
O1012  O     0.26805   0.67661   0.52170   0.00000  Uiso   1.00
O1013  O     0.14360   0.67552   0.93015   0.00000  Uiso   1.00
O1014  O     0.20358   0.75381   0.74702   0.00000  Uiso   1.00
O1015  O     0.06527   0.99006   0.97830   0.00000  Uiso   1.00
O1016  O     0.22613   0.90387   0.74519   0.00000  Uiso   1.00
O1017  O     0.10720   0.76279   0.75481   0.00000  Uiso   1.00
O1018  O     0.11847   0.83784   0.81997   0.00000  Uiso   1.00
O1019  O     0.21486   0.82883   0.68003   0.00000  Uiso   1.00
O1020  O     0.21485   0.82885   0.81218   0.00000  Uiso   1.00
O1021  O     0.11848   0.83781   0.68783   0.00000  Uiso   1.00
O1022  O     0.11779   0.72893   0.64896   0.00000  Uiso   1.00
Zn1023 Zn    0.10231   0.83933   0.75521   0.00000  Uiso   1.00
Zn1024 Zn    0.23102   0.82734   0.74479   0.00000  Uiso   1.00
C1025  C     0.51535   0.93162   0.74916   0.00000  Uiso   1.00
C1026  C     0.53522   0.87121   0.90507   0.00000  Uiso   1.00
C1027  C     0.49766   0.83529   0.61599   0.00000  Uiso   1.00
C1028  C     0.50234   0.83138   0.88401   0.00000  Uiso   1.00
C1029  C     0.53007   0.87519   0.59167   0.00000  Uiso   1.00
C1030  C     0.46993   0.79148   0.90833   0.00000  Uiso   1.00
C1031  C     0.52472   0.87831   0.54544   0.00000  Uiso   1.00
C1032  C     0.47528   0.78836   0.95456   0.00000  Uiso   1.00
C1033  C     0.49839   0.83451   0.52344   0.00000  Uiso   1.00
C1034  C     0.50161   0.83215   0.97656   0.00000  Uiso   1.00
C1035  C     0.46891   0.79296   0.54823   0.00000  Uiso   1.00
C1036  C     0.48465   0.73505   0.75084   0.00000  Uiso   1.00
C1037  C     0.53108   0.87370   0.95177   0.00000  Uiso   1.00
C1038  C     0.54626   0.92282   0.52015   0.00000  Uiso   1.00
C1039  C     0.45374   0.74385   0.97985   0.00000  Uiso   1.00
C1040  C     0.42907   0.75476   0.62161   0.00000  Uiso   1.00
C1041  C     0.57093   0.91191   0.87839   0.00000  Uiso   1.00
C1042  C     0.57390   0.90959   0.61379   0.00000  Uiso   1.00
C1043  C     0.42610   0.75708   0.88621   0.00000  Uiso   1.00
C1044  C     0.55608   0.97608   0.53958   0.00000  Uiso   1.00
C1045  C     0.44392   0.69059   0.96042   0.00000  Uiso   1.00
C1046  C     0.55212   0.91872   0.97397   0.00000  Uiso   1.00
C1047  C     0.44787   0.74794   0.52603   0.00000  Uiso   1.00
C1048  C     0.52342   0.98619   0.74877   0.00000  Uiso   1.00
C1049  C     0.47658   0.68047   0.75123   0.00000  Uiso   1.00
C1050  C     0.50061   0.83240   0.83634   0.00000  Uiso   1.00
C1051  C     0.49939   0.83427   0.66366   0.00000  Uiso   1.00
C1052  C     0.46478   0.79545   0.59493   0.00000  Uiso   1.00
H1053  H     0.56955   0.95280   0.95529   0.00000  Uiso   1.00
H1054  H     0.43241   0.99657   0.75364   0.00000  Uiso   1.00
H1055  H     0.33805   0.79445   0.71618   0.00000  Uiso   1.00
H1056  H     0.66195   0.87221   0.78382   0.00000  Uiso   1.00
H1057  H     0.43045   0.71387   0.54471   0.00000  Uiso   1.00
H1058  H     0.35070   0.71705   0.63443   0.00000  Uiso   1.00
H1059  H     0.64930   0.94962   0.86557   0.00000  Uiso   1.00
H1060  H     0.59078   0.96285   0.66182   0.00000  Uiso   1.00
H1061  H     0.40922   0.70382   0.83818   0.00000  Uiso   1.00
H1062  H     0.60291   0.71204   0.53715   0.00000  Uiso   1.00
H1063  H     0.39707   0.95463   0.96285   0.00000  Uiso   1.00
H1064  H     0.56759   0.67010   0.74636   0.00000  Uiso   1.00
N1065  N     0.65011   0.81932   0.73783   0.00000  Uiso   1.00
N1066  N     0.34989   0.84735   0.76217   0.00000  Uiso   1.00
O1067  O     0.46308   0.91286   0.75299   0.00000  Uiso   1.00
O1068  O     0.37038   0.74573   0.61465   0.00000  Uiso   1.00
O1069  O     0.54888   0.93773   0.85103   0.00000  Uiso   1.00
O1070  O     0.62962   0.92094   0.88535   0.00000  Uiso   1.00
O1071  O     0.62448   0.91140   0.59919   0.00000  Uiso   1.00
O1072  O     0.55717   0.94042   0.65051   0.00000  Uiso   1.00
O1073  O     0.37552   0.75527   0.90080   0.00000  Uiso   1.00
O1074  O     0.44283   0.72625   0.84949   0.00000  Uiso   1.00
O1075  O     0.52306   0.99115   0.56985   0.00000  Uiso   1.00
O1076  O     0.60138   0.67661   0.52170   0.00000  Uiso   1.00
O1077  O     0.47694   0.67552   0.93015   0.00000  Uiso   1.00
O1078  O     0.53692   0.75381   0.74702   0.00000  Uiso   1.00
O1079  O     0.39861   0.99006   0.97830   0.00000  Uiso   1.00
O1080  O     0.55946   0.90387   0.74519   0.00000  Uiso   1.00
O1081  O     0.44054   0.76279   0.75481   0.00000  Uiso   1.00
O1082  O     0.45181   0.83784   0.81997   0.00000  Uiso   1.00
O1083  O     0.54819   0.82883   0.68003   0.00000  Uiso   1.00
O1084  O     0.54819   0.82885   0.81218   0.00000  Uiso   1.00
O1085  O     0.45181   0.83781   0.68783   0.00000  Uiso   1.00
O1086  O     0.45113   0.72893   0.64896   0.00000  Uiso   1.00
Zn1087 Zn    0.43565   0.83933   0.75521   0.00000  Uiso   1.00
Zn1088 Zn    0.56435   0.82734   0.74479   0.00000  Uiso   1.00
C1089  C     0.84868   0.93162   0.74916   0.00000  Uiso   1.00
C1090  C     0.86856   0.87121   0.90507   0.00000  Uiso   1.00
C1091  C     0.83100   0.83529   0.61599   0.00000  Uiso   1.00
C1092  C     0.83567   0.83138   0.88401   0.00000  Uiso   1.00
C1093  C     0.86341   0.87519   0.59167   0.00000  Uiso   1.00
C1094  C     0.80326   0.79148   0.90833   0.00000  Uiso   1.00
C1095  C     0.85805   0.87831   0.54544   0.00000  Uiso   1.00
C1096  C     0.80861   0.78836   0.95456   0.00000  Uiso   1.00
C1097  C     0.83172   0.83451   0.52344   0.00000  Uiso   1.00
C1098  C     0.83494   0.83215   0.97656   0.00000  Uiso   1.00
C1099  C     0.80225   0.79296   0.54823   0.00000  Uiso   1.00
C1100  C     0.81799   0.73505   0.75084   0.00000  Uiso   1.00
C1101  C     0.86442   0.87370   0.95177   0.00000  Uiso   1.00
C1102  C     0.87959   0.92282   0.52015   0.00000  Uiso   1.00
C1103  C     0.78707   0.74385   0.97985   0.00000  Uiso   1.00
C1104  C     0.76240   0.75476   0.62161   0.00000  Uiso   1.00
C1105  C     0.90426   0.91191   0.87839   0.00000  Uiso   1.00
C1106  C     0.90724   0.90959   0.61379   0.00000  Uiso   1.00
C1107  C     0.75943   0.75708   0.88621   0.00000  Uiso   1.00
C1108  C     0.88941   0.97608   0.53958   0.00000  Uiso   1.00
C1109  C     0.77725   0.69059   0.96042   0.00000  Uiso   1.00
C1110  C     0.88546   0.91872   0.97397   0.00000  Uiso   1.00
C1111  C     0.78121   0.74794   0.52603   0.00000  Uiso   1.00
C1112  C     0.85675   0.98619   0.74877   0.00000  Uiso   1.00
C1113  C     0.80992   0.68047   0.75123   0.00000  Uiso   1.00
C1114  C     0.83394   0.83240   0.83634   0.00000  Uiso   1.00
C1115  C     0.83272   0.83427   0.66366   0.00000  Uiso   1.00
C1116  C     0.79811   0.79545   0.59493   0.00000  Uiso   1.00
H1117  H     0.90288   0.95280   0.95529   0.00000  Uiso   1.00
H1118  H     0.76574   0.99657   0.75364   0.00000  Uiso   1.00
H1119  H     0.67139   0.79445   0.71618   0.00000  Uiso   1.00
H1120  H     0.99528   0.87221   0.78382   0.00000  Uiso   1.00
H1121  H     0.76378   0.71387   0.54471   0.00000  Uiso   1.00
H1122  H     0.68403   0.71705   0.63443   0.00000  Uiso   1.00
H1123  H     0.98264   0.94962   0.86557   0.00000  Uiso   1.00
H1124  H     0.92411   0.96285   0.66182   0.00000  Uiso   1.00
H1125  H     0.74255   0.70382   0.83818   0.00000  Uiso   1.00
H1126  H     0.93624   0.71204   0.53715   0.00000  Uiso   1.00
H1127  H     0.73041   0.95463   0.96285   0.00000  Uiso   1.00
H1128  H     0.90093   0.67010   0.74636   0.00000  Uiso   1.00
N1129  N     0.98344   0.81932   0.73783   0.00000  Uiso   1.00
N1130  N     0.68322   0.84735   0.76217   0.00000  Uiso   1.00
O1131  O     0.79642   0.91286   0.75299   0.00000  Uiso   1.00
O1132  O     0.70372   0.74573   0.61465   0.00000  Uiso   1.00
O1133  O     0.88221   0.93773   0.85103   0.00000  Uiso   1.00
O1134  O     0.96295   0.92094   0.88535   0.00000  Uiso   1.00
O1135  O     0.95781   0.91140   0.59919   0.00000  Uiso   1.00
O1136  O     0.89050   0.94042   0.65051   0.00000  Uiso   1.00
O1137  O     0.70885   0.75527   0.90080   0.00000  Uiso   1.00
O1138  O     0.77616   0.72625   0.84949   0.00000  Uiso   1.00
O1139  O     0.85639   0.99115   0.56985   0.00000  Uiso   1.00
O1140  O     0.93471   0.67661   0.52170   0.00000  Uiso   1.00
O1141  O     0.81027   0.67552   0.93015   0.00000  Uiso   1.00
O1142  O     0.87025   0.75381   0.74702   0.00000  Uiso   1.00
O1143  O     0.73194   0.99006   0.97830   0.00000  Uiso   1.00
O1144  O     0.89280   0.90387   0.74519   0.00000  Uiso   1.00
O1145  O     0.77387   0.76279   0.75481   0.00000  Uiso   1.00
O1146  O     0.78514   0.83784   0.81997   0.00000  Uiso   1.00
O1147  O     0.88153   0.82883   0.68003   0.00000  Uiso   1.00
O1148  O     0.88152   0.82885   0.81218   0.00000  Uiso   1.00
O1149  O     0.78515   0.83781   0.68783   0.00000  Uiso   1.00
O1150  O     0.78446   0.72893   0.64896   0.00000  Uiso   1.00
Zn1151 Zn    0.76898   0.83933   0.75521   0.00000  Uiso   1.00
Zn1152 Zn    0.89769   0.82734   0.74479   0.00000  Uiso   1.00
loop_
_geom_bond_atom_site_label_1
_geom_bond_atom_site_label_2
_geom_bond_distance
_geom_bond_site_symmetry_2
_ccdc_geom_bond_type
C1     O56     1.285   .     A
C1     C24     1.399   .     S
C1     O43     1.274   .     A
C2     C4      1.404   .     A
C2     C17     1.492   .     S
C2     C13     1.399   .     A
C3     C28     1.404   .     A
C3     C27     1.434   .     S
C3     C5      1.407   .     A
C4     C26     1.434   .     S
C4     C6      1.407   .     A
C5     C7      1.405   .     A
C5     C18     1.488   .     S
C6     C19     1.488   .     S
C6     C8      1.405   .     A
C7     C9      1.420   .     A
C7     C14     1.420   .     A
C8     C15     1.420   .     A
C8     C10     1.420   .     A
C9     C11     1.416   .     A
C9     C586    1.404   1_554 S
C10    C13     1.415   .     A
C10    C585    1.404   .     S
C11    C28     1.399   .     A
C11    C23     1.401   .     A
C12    C25     1.399   .     S
C12    O57     1.285   .     A
C12    O54     1.274   .     A
C13    C22     1.401   .     A
C14    C20     1.487   .     S
C14    C598    1.386   1_554 S
C15    C21     1.487   .     S
C15    C599    1.386   .     S
C16    C28     1.492   .     S
C16    O44     1.398   .     S
C16    O62     1.223   .     D
C17    O45     1.223   .     D
C17    O46     1.398   .     S
C18    O47     1.223   .     D
C18    O48     1.396   .     S
C19    O50     1.396   .     S
C19    O49     1.223   .     D
C20    O51     1.223   .     D
C20    O244    1.399   .     S
C21    O53     1.223   .     D
C21    O439    1.399   1_545 S
C22    H29     1.083   .     S
C22    C590    1.386   .     S
C23    H33     1.083   .     S
C23    C591    1.386   1_554 S
C24    C217    1.336   .     S
C24    H232    1.088   .     S
C25    C408    1.336   1_545 S
C25    H414    1.088   1_545 S
C26    O58     1.285   .     A
C26    O60     1.287   .     A
C27    O59     1.285   .     A
C27    O61     1.287   .     A
H30    C217    1.088   .     S
H31    N169    1.029   1_455 S
H32    N106    1.029   .     S
H34    O44     1.014   .     S
H35    O46     1.014   .     S
H36    O48     1.014   .     S
H37    O50     1.014   .     S
H38    O52     1.014   .     S
H39    O55     1.014   .     S
H40    C408    1.088   1_545 S
N41    Zn64    2.014   .     S
N41    H95     1.029   .     S
N41    N106    1.278   .     S
N42    Zn63    2.014   .     S
N42    N169    1.278   1_455 S
N42    H160    1.029   1_455 S
O43    Zn63    1.948   .     S
O52    C404    1.399   1_545 S
O54    Zn64    1.948   .     S
O55    C213    1.399   .     S
O56    Zn64    1.973   .     S
O57    Zn63    1.973   .     S
O58    Zn63    2.007   .     S
O59    Zn64    2.007   .     S
O60    Zn64    2.030   .     S
O61    Zn63    2.030   .     S
C65    O120    1.285   .     A
C65    C88     1.399   .     S
C65    O107    1.274   .     A
C66    C68     1.404   .     A
C66    C81     1.492   .     S
C66    C77     1.399   .     A
C67    C92     1.404   .     A
C67    C91     1.434   .     S
C67    C69     1.407   .     A
C68    C90     1.434   .     S
C68    C70     1.407   .     A
C69    C71     1.405   .     A
C69    C82     1.488   .     S
C70    C83     1.488   .     S
C70    C72     1.405   .     A
C71    C73     1.420   .     A
C71    C78     1.420   .     A
C72    C79     1.420   .     A
C72    C74     1.420   .     A
C73    C75     1.416   .     A
C73    C650    1.404   1_554 S
C74    C77     1.415   .     A
C74    C649    1.404   .     S
C75    C92     1.399   .     A
C75    C87     1.401   .     A
C76    C89     1.399   .     S
C76    O121    1.285   .     A
C76    O118    1.274   .     A
C77    C86     1.401   .     A
C78    C84     1.487   .     S
C78    C662    1.386   1_554 S
C79    C85     1.487   .     S
C79    C663    1.386   .     S
C80    C92     1.492   .     S
C80    O108    1.398   .     S
C80    O126    1.223   .     D
C81    O109    1.223   .     D
C81    O110    1.398   .     S
C82    O111    1.223   .     D
C82    O112    1.396   .     S
C83    O114    1.396   .     S
C83    O113    1.223   .     D
C84    O115    1.223   .     D
C84    O308    1.399   .     S
C85    O117    1.223   .     D
C85    O503    1.399   1_545 S
C86    H93     1.083   .     S
C86    C654    1.386   .     S
C87    H97     1.083   .     S
C87    C655    1.386   1_554 S
C88    C281    1.336   .     S
C88    H296    1.088   .     S
C89    C472    1.336   1_545 S
C89    H478    1.088   1_545 S
C90    O122    1.285   .     A
C90    O124    1.287   .     A
C91    O123    1.285   .     A
C91    O125    1.287   .     A
H94    C281    1.088   .     S
H96    N170    1.029   .     S
H98    O108    1.014   .     S
H99    O110    1.014   .     S
H100   O112    1.014   .     S
H101   O114    1.014   .     S
H102   O116    1.014   .     S
H103   O119    1.014   .     S
H104   C472    1.088   1_545 S
N105   Zn128   2.014   .     S
N105   H159    1.029   .     S
N105   N170    1.278   .     S
N106   Zn127   2.014   .     S
O107   Zn127   1.948   .     S
O116   C468    1.399   1_545 S
O118   Zn128   1.948   .     S
O119   C277    1.399   .     S
O120   Zn128   1.973   .     S
O121   Zn127   1.973   .     S
O122   Zn127   2.007   .     S
O123   Zn128   2.007   .     S
O124   Zn128   2.030   .     S
O125   Zn127   2.030   .     S
C129   O184    1.285   .     A
C129   C152    1.399   .     S
C129   O171    1.274   .     A
C130   C132    1.404   .     A
C130   C145    1.492   .     S
C130   C141    1.399   .     A
C131   C156    1.404   .     A
C131   C155    1.434   .     S
C131   C133    1.407   .     A
C132   C154    1.434   .     S
C132   C134    1.407   .     A
C133   C135    1.405   .     A
C133   C146    1.488   .     S
C134   C147    1.488   .     S
C134   C136    1.405   .     A
C135   C137    1.420   .     A
C135   C142    1.420   .     A
C136   C143    1.420   .     A
C136   C138    1.420   .     A
C137   C139    1.416   .     A
C137   C714    1.404   1_554 S
C138   C141    1.415   .     A
C138   C713    1.404   .     S
C139   C156    1.399   .     A
C139   C151    1.401   .     A
C140   C153    1.399   .     S
C140   O185    1.285   .     A
C140   O182    1.274   .     A
C141   C150    1.401   .     A
C142   C148    1.487   .     S
C142   C726    1.386   1_554 S
C143   C149    1.487   .     S
C143   C727    1.386   .     S
C144   C156    1.492   .     S
C144   O172    1.398   .     S
C144   O190    1.223   .     D
C145   O173    1.223   .     D
C145   O174    1.398   .     S
C146   O175    1.223   .     D
C146   O176    1.396   .     S
C147   O178    1.396   .     S
C147   O177    1.223   .     D
C148   O179    1.223   .     D
C148   O372    1.399   .     S
C149   O181    1.223   .     D
C149   O567    1.399   1_545 S
C150   H157    1.083   .     S
C150   C718    1.386   .     S
C151   H161    1.083   .     S
C151   C719    1.386   1_554 S
C152   C345    1.336   .     S
C152   H360    1.088   .     S
C153   C536    1.336   1_545 S
C153   H542    1.088   1_545 S
C154   O186    1.285   .     A
C154   O188    1.287   .     A
C155   O187    1.285   .     A
C155   O189    1.287   .     A
H158   C345    1.088   .     S
H160   N42     1.029   1_655 S
H162   O172    1.014   .     S
H163   O174    1.014   .     S
H164   O176    1.014   .     S
H165   O178    1.014   .     S
H166   O180    1.014   .     S
H167   O183    1.014   .     S
H168   C536    1.088   1_545 S
N169   Zn192   2.014   .     S
N169   H31     1.029   1_655 S
N169   N42     1.278   1_655 S
N170   Zn191   2.014   .     S
O171   Zn191   1.948   .     S
O180   C532    1.399   1_545 S
O182   Zn192   1.948   .     S
O183   C341    1.399   .     S
O184   Zn192   1.973   .     S
O185   Zn191   1.973   .     S
O186   Zn191   2.007   .     S
O187   Zn192   2.007   .     S
O188   Zn192   2.030   .     S
O189   Zn191   2.030   .     S
C193   O248    1.285   .     A
C193   C216    1.399   .     S
C193   O235    1.274   .     A
C194   C196    1.404   .     A
C194   C209    1.492   .     S
C194   C205    1.399   .     A
C195   C220    1.404   .     A
C195   C219    1.434   .     S
C195   C197    1.407   .     A
C196   C218    1.434   .     S
C196   C198    1.407   .     A
C197   C199    1.405   .     A
C197   C210    1.488   .     S
C198   C211    1.488   .     S
C198   C200    1.405   .     A
C199   C201    1.420   .     A
C199   C206    1.420   .     A
C200   C207    1.420   .     A
C200   C202    1.420   .     A
C201   C203    1.416   .     A
C201   C778    1.404   1_554 S
C202   C205    1.415   .     A
C202   C777    1.404   .     S
C203   C220    1.399   .     A
C203   C215    1.401   .     A
C204   C217    1.399   .     S
C204   O249    1.285   .     A
C204   O246    1.274   .     A
C205   C214    1.401   .     A
C206   C212    1.487   .     S
C206   C790    1.386   1_554 S
C207   C213    1.487   .     S
C207   C791    1.386   .     S
C208   C220    1.492   .     S
C208   O236    1.398   .     S
C208   O254    1.223   .     D
C209   O237    1.223   .     D
C209   O238    1.398   .     S
C210   O239    1.223   .     D
C210   O240    1.396   .     S
C211   O242    1.396   .     S
C211   O241    1.223   .     D
C212   O243    1.223   .     D
C212   O436    1.399   .     S
C213   O245    1.223   .     D
C214   H221    1.083   .     S
C214   C782    1.386   .     S
C215   H225    1.083   .     S
C215   C783    1.386   1_554 S
C216   C409    1.336   .     S
C216   H424    1.088   .     S
C218   O250    1.285   .     A
C218   O252    1.287   .     A
C219   O251    1.285   .     A
C219   O253    1.287   .     A
H222   C409    1.088   .     S
H223   N361    1.029   1_455 S
H224   N298    1.029   .     S
H226   O236    1.014   .     S
H227   O238    1.014   .     S
H228   O240    1.014   .     S
H229   O242    1.014   .     S
H230   O244    1.014   .     S
H231   O247    1.014   .     S
N233   Zn256   2.014   .     S
N233   H287    1.029   .     S
N233   N298    1.278   .     S
N234   Zn255   2.014   .     S
N234   N361    1.278   1_455 S
N234   H352    1.029   1_455 S
O235   Zn255   1.948   .     S
O246   Zn256   1.948   .     S
O247   C405    1.399   .     S
O248   Zn256   1.973   .     S
O249   Zn255   1.973   .     S
O250   Zn255   2.007   .     S
O251   Zn256   2.007   .     S
O252   Zn256   2.030   .     S
O253   Zn255   2.030   .     S
C257   O312    1.285   .     A
C257   C280    1.399   .     S
C257   O299    1.274   .     A
C258   C260    1.404   .     A
C258   C273    1.492   .     S
C258   C269    1.399   .     A
C259   C284    1.404   .     A
C259   C283    1.434   .     S
C259   C261    1.407   .     A
C260   C282    1.434   .     S
C260   C262    1.407   .     A
C261   C263    1.405   .     A
C261   C274    1.488   .     S
C262   C275    1.488   .     S
C262   C264    1.405   .     A
C263   C265    1.420   .     A
C263   C270    1.420   .     A
C264   C271    1.420   .     A
C264   C266    1.420   .     A
C265   C267    1.416   .     A
C265   C842    1.404   1_554 S
C266   C269    1.415   .     A
C266   C841    1.404   .     S
C267   C284    1.399   .     A
C267   C279    1.401   .     A
C268   C281    1.399   .     S
C268   O313    1.285   .     A
C268   O310    1.274   .     A
C269   C278    1.401   .     A
C270   C276    1.487   .     S
C270   C854    1.386   1_554 S
C271   C277    1.487   .     S
C271   C855    1.386   .     S
C272   C284    1.492   .     S
C272   O300    1.398   .     S
C272   O318    1.223   .     D
C273   O301    1.223   .     D
C273   O302    1.398   .     S
C274   O303    1.223   .     D
C274   O304    1.396   .     S
C275   O306    1.396   .     S
C275   O305    1.223   .     D
C276   O307    1.223   .     D
C276   O500    1.399   .     S
C277   O309    1.223   .     D
C278   H285    1.083   .     S
C278   C846    1.386   .     S
C279   H289    1.083   .     S
C279   C847    1.386   1_554 S
C280   C473    1.336   .     S
C280   H488    1.088   .     S
C282   O314    1.285   .     A
C282   O316    1.287   .     A
C283   O315    1.285   .     A
C283   O317    1.287   .     A
H286   C473    1.088   .     S
H288   N362    1.029   .     S
H290   O300    1.014   .     S
H291   O302    1.014   .     S
H292   O304    1.014   .     S
H293   O306    1.014   .     S
H294   O308    1.014   .     S
H295   O311    1.014   .     S
N297   Zn320   2.014   .     S
N297   H351    1.029   .     S
N297   N362    1.278   .     S
N298   Zn319   2.014   .     S
O299   Zn319   1.948   .     S
O310   Zn320   1.948   .     S
O311   C469    1.399   .     S
O312   Zn320   1.973   .     S
O313   Zn319   1.973   .     S
O314   Zn319   2.007   .     S
O315   Zn320   2.007   .     S
O316   Zn320   2.030   .     S
O317   Zn319   2.030   .     S
C321   O376    1.285   .     A
C321   C344    1.399   .     S
C321   O363    1.274   .     A
C322   C324    1.404   .     A
C322   C337    1.492   .     S
C322   C333    1.399   .     A
C323   C348    1.404   .     A
C323   C347    1.434   .     S
C323   C325    1.407   .     A
C324   C346    1.434   .     S
C324   C326    1.407   .     A
C325   C327    1.405   .     A
C325   C338    1.488   .     S
C326   C339    1.488   .     S
C326   C328    1.405   .     A
C327   C329    1.420   .     A
C327   C334    1.420   .     A
C328   C335    1.420   .     A
C328   C330    1.420   .     A
C329   C331    1.416   .     A
C329   C906    1.404   1_554 S
C330   C333    1.415   .     A
C330   C905    1.404   .     S
C331   C348    1.399   .     A
C331   C343    1.401   .     A
C332   C345    1.399   .     S
C332   O377    1.285   .     A
C332   O374    1.274   .     A
C333   C342    1.401   .     A
C334   C340    1.487   .     S
C334   C918    1.386   1_554 S
C335   C341    1.487   .     S
C335   C919    1.386   .     S
C336   C348    1.492   .     S
C336   O364    1.398   .     S
C336   O382    1.223   .     D
C337   O365    1.223   .     D
C337   O366    1.398   .     S
C338   O367    1.223   .     D
C338   O368    1.396   .     S
C339   O370    1.396   .     S
C339   O369    1.223   .     D
C340   O371    1.223   .     D
C340   O564    1.399   .     S
C341   O373    1.223   .     D
C342   H349    1.083   .     S
C342   C910    1.386   .     S
C343   H353    1.083   .     S
C343   C911    1.386   1_554 S
C344   C537    1.336   .     S
C344   H552    1.088   .     S
C346   O378    1.285   .     A
C346   O380    1.287   .     A
C347   O379    1.285   .     A
C347   O381    1.287   .     A
H350   C537    1.088   .     S
H352   N234    1.029   1_655 S
H354   O364    1.014   .     S
H355   O366    1.014   .     S
H356   O368    1.014   .     S
H357   O370    1.014   .     S
H358   O372    1.014   .     S
H359   O375    1.014   .     S
N361   Zn384   2.014   .     S
N361   H223    1.029   1_655 S
N361   N234    1.278   1_655 S
N362   Zn383   2.014   .     S
O363   Zn383   1.948   .     S
O374   Zn384   1.948   .     S
O375   C533    1.399   .     S
O376   Zn384   1.973   .     S
O377   Zn383   1.973   .     S
O378   Zn383   2.007   .     S
O379   Zn384   2.007   .     S
O380   Zn384   2.030   .     S
O381   Zn383   2.030   .     S
C385   O440    1.285   .     A
C385   C408    1.399   .     S
C385   O427    1.274   .     A
C386   C388    1.404   .     A
C386   C401    1.492   .     S
C386   C397    1.399   .     A
C387   C412    1.404   .     A
C387   C411    1.434   .     S
C387   C389    1.407   .     A
C388   C410    1.434   .     S
C388   C390    1.407   .     A
C389   C391    1.405   .     A
C389   C402    1.488   .     S
C390   C403    1.488   .     S
C390   C392    1.405   .     A
C391   C393    1.420   .     A
C391   C398    1.420   .     A
C392   C399    1.420   .     A
C392   C394    1.420   .     A
C393   C395    1.416   .     A
C393   C970    1.404   1_554 S
C394   C397    1.415   .     A
C394   C969    1.404   .     S
C395   C412    1.399   .     A
C395   C407    1.401   .     A
C396   C409    1.399   .     S
C396   O441    1.285   .     A
C396   O438    1.274   .     A
C397   C406    1.401   .     A
C398   C404    1.487   .     S
C398   C982    1.386   1_554 S
C399   C405    1.487   .     S
C399   C983    1.386   .     S
C400   C412    1.492   .     S
C400   O428    1.398   .     S
C400   O446    1.223   .     D
C401   O429    1.223   .     D
C401   O430    1.398   .     S
C402   O431    1.223   .     D
C402   O432    1.396   .     S
C403   O434    1.396   .     S
C403   O433    1.223   .     D
C404   O435    1.223   .     D
C404   O52     1.399   1_565 S
C405   O437    1.223   .     D
C406   H413    1.083   .     S
C406   C974    1.386   .     S
C407   H417    1.083   .     S
C407   C975    1.386   1_554 S
C408   C25     1.336   1_565 S
C408   H40     1.088   1_565 S
C410   O442    1.285   .     A
C410   O444    1.287   .     A
C411   O443    1.285   .     A
C411   O445    1.287   .     A
H414   C25     1.088   1_565 S
H415   N553    1.029   1_455 S
H416   N490    1.029   .     S
H418   O428    1.014   .     S
H419   O430    1.014   .     S
H420   O432    1.014   .     S
H421   O434    1.014   .     S
H422   O436    1.014   .     S
H423   O439    1.014   .     S
N425   Zn448   2.014   .     S
N425   H479    1.029   .     S
N425   N490    1.278   .     S
N426   Zn447   2.014   .     S
N426   N553    1.278   1_455 S
N426   H544    1.029   1_455 S
O427   Zn447   1.948   .     S
O438   Zn448   1.948   .     S
O439   C21     1.399   1_565 S
O440   Zn448   1.973   .     S
O441   Zn447   1.973   .     S
O442   Zn447   2.007   .     S
O443   Zn448   2.007   .     S
O444   Zn448   2.030   .     S
O445   Zn447   2.030   .     S
C449   O504    1.285   .     A
C449   C472    1.399   .     S
C449   O491    1.274   .     A
C450   C452    1.404   .     A
C450   C465    1.492   .     S
C450   C461    1.399   .     A
C451   C476    1.404   .     A
C451   C475    1.434   .     S
C451   C453    1.407   .     A
C452   C474    1.434   .     S
C452   C454    1.407   .     A
C453   C455    1.405   .     A
C453   C466    1.488   .     S
C454   C467    1.488   .     S
C454   C456    1.405   .     A
C455   C457    1.420   .     A
C455   C462    1.420   .     A
C456   C463    1.420   .     A
C456   C458    1.420   .     A
C457   C459    1.416   .     A
C457   C1034   1.404   1_554 S
C458   C461    1.415   .     A
C458   C1033   1.404   .     S
C459   C476    1.399   .     A
C459   C471    1.401   .     A
C460   C473    1.399   .     S
C460   O505    1.285   .     A
C460   O502    1.274   .     A
C461   C470    1.401   .     A
C462   C468    1.487   .     S
C462   C1046   1.386   1_554 S
C463   C469    1.487   .     S
C463   C1047   1.386   .     S
C464   C476    1.492   .     S
C464   O492    1.398   .     S
C464   O510    1.223   .     D
C465   O493    1.223   .     D
C465   O494    1.398   .     S
C466   O495    1.223   .     D
C466   O496    1.396   .     S
C467   O498    1.396   .     S
C467   O497    1.223   .     D
C468   O499    1.223   .     D
C468   O116    1.399   1_565 S
C469   O501    1.223   .     D
C470   H477    1.083   .     S
C470   C1038   1.386   .     S
C471   H481    1.083   .     S
C471   C1039   1.386   1_554 S
C472   C89     1.336   1_565 S
C472   H104    1.088   1_565 S
C474   O506    1.285   .     A
C474   O508    1.287   .     A
C475   O507    1.285   .     A
C475   O509    1.287   .     A
H478   C89     1.088   1_565 S
H480   N554    1.029   .     S
H482   O492    1.014   .     S
H483   O494    1.014   .     S
H484   O496    1.014   .     S
H485   O498    1.014   .     S
H486   O500    1.014   .     S
H487   O503    1.014   .     S
N489   Zn512   2.014   .     S
N489   H543    1.029   .     S
N489   N554    1.278   .     S
N490   Zn511   2.014   .     S
O491   Zn511   1.948   .     S
O502   Zn512   1.948   .     S
O503   C85     1.399   1_565 S
O504   Zn512   1.973   .     S
O505   Zn511   1.973   .     S
O506   Zn511   2.007   .     S
O507   Zn512   2.007   .     S
O508   Zn512   2.030   .     S
O509   Zn511   2.030   .     S
C513   O568    1.285   .     A
C513   C536    1.399   .     S
C513   O555    1.274   .     A
C514   C516    1.404   .     A
C514   C529    1.492   .     S
C514   C525    1.399   .     A
C515   C540    1.404   .     A
C515   C539    1.434   .     S
C515   C517    1.407   .     A
C516   C538    1.434   .     S
C516   C518    1.407   .     A
C517   C519    1.405   .     A
C517   C530    1.488   .     S
C518   C531    1.488   .     S
C518   C520    1.405   .     A
C519   C521    1.420   .     A
C519   C526    1.420   .     A
C520   C527    1.420   .     A
C520   C522    1.420   .     A
C521   C523    1.416   .     A
C521   C1098   1.404   1_554 S
C522   C525    1.415   .     A
C522   C1097   1.404   .     S
C523   C540    1.399   .     A
C523   C535    1.401   .     A
C524   C537    1.399   .     S
C524   O569    1.285   .     A
C524   O566    1.274   .     A
C525   C534    1.401   .     A
C526   C532    1.487   .     S
C526   C1110   1.386   1_554 S
C527   C533    1.487   .     S
C527   C1111   1.386   .     S
C528   C540    1.492   .     S
C528   O556    1.398   .     S
C528   O574    1.223   .     D
C529   O557    1.223   .     D
C529   O558    1.398   .     S
C530   O559    1.223   .     D
C530   O560    1.396   .     S
C531   O562    1.396   .     S
C531   O561    1.223   .     D
C532   O563    1.223   .     D
C532   O180    1.399   1_565 S
C533   O565    1.223   .     D
C534   H541    1.083   .     S
C534   C1102   1.386   .     S
C535   H545    1.083   .     S
C535   C1103   1.386   1_554 S
C536   C153    1.336   1_565 S
C536   H168    1.088   1_565 S
C538   O570    1.285   .     A
C538   O572    1.287   .     A
C539   O571    1.285   .     A
C539   O573    1.287   .     A
H542   C153    1.088   1_565 S
H544   N426    1.029   1_655 S
H546   O556    1.014   .     S
H547   O558    1.014   .     S
H548   O560    1.014   .     S
H549   O562    1.014   .     S
H550   O564    1.014   .     S
H551   O567    1.014   .     S
N553   Zn576   2.014   .     S
N553   H415    1.029   1_655 S
N553   N426    1.278   1_655 S
N554   Zn575   2.014   .     S
O555   Zn575   1.948   .     S
O566   Zn576   1.948   .     S
O567   C149    1.399   1_565 S
O568   Zn576   1.973   .     S
O569   Zn575   1.973   .     S
O570   Zn575   2.007   .     S
O571   Zn576   2.007   .     S
O572   Zn576   2.030   .     S
O573   Zn575   2.030   .     S
C577   O632    1.285   .     A
C577   C600    1.399   .     S
C577   O619    1.274   .     A
C578   C580    1.404   .     A
C578   C593    1.492   .     S
C578   C589    1.399   .     A
C579   C604    1.404   .     A
C579   C603    1.434   .     S
C579   C581    1.407   .     A
C580   C602    1.434   .     S
C580   C582    1.407   .     A
C581   C583    1.405   .     A
C581   C594    1.488   .     S
C582   C595    1.488   .     S
C582   C584    1.405   .     A
C583   C585    1.420   .     A
C583   C590    1.420   .     A
C584   C591    1.420   .     A
C584   C586    1.420   .     A
C585   C587    1.416   .     A
C586   C589    1.415   .     A
C586   C9      1.404   1_556 S
C587   C604    1.399   .     A
C587   C599    1.401   .     A
C588   C601    1.399   .     S
C588   O633    1.285   .     A
C588   O630    1.274   .     A
C589   C598    1.401   .     A
C590   C596    1.487   .     S
C591   C597    1.487   .     S
C591   C23     1.386   1_556 S
C592   C604    1.492   .     S
C592   O620    1.398   .     S
C592   O638    1.223   .     D
C593   O621    1.223   .     D
C593   O622    1.398   .     S
C594   O623    1.223   .     D
C594   O624    1.396   .     S
C595   O626    1.396   .     S
C595   O625    1.223   .     D
C596   O627    1.223   .     D
C596   O820    1.399   .     S
C597   O629    1.223   .     D
C597   O1015   1.399   1_545 S
C598   H605    1.083   .     S
C598   C14     1.386   1_556 S
C599   H609    1.083   .     S
C600   C793    1.336   .     S
C600   H808    1.088   .     S
C601   C984    1.336   1_545 S
C601   H990    1.088   1_545 S
C602   O634    1.285   .     A
C602   O636    1.287   .     A
C603   O635    1.285   .     A
C603   O637    1.287   .     A
H606   C793    1.088   .     S
H607   N745    1.029   1_455 S
H608   N682    1.029   .     S
H610   O620    1.014   .     S
H611   O622    1.014   .     S
H612   O624    1.014   .     S
H613   O626    1.014   .     S
H614   O628    1.014   .     S
H615   O631    1.014   .     S
H616   C984    1.088   1_545 S
N617   Zn640   2.014   .     S
N617   H671    1.029   .     S
N617   N682    1.278   .     S
N618   Zn639   2.014   .     S
N618   N745    1.278   1_455 S
N618   H736    1.029   1_455 S
O619   Zn639   1.948   .     S
O628   C980    1.399   1_545 S
O630   Zn640   1.948   .     S
O631   C789    1.399   .     S
O632   Zn640   1.973   .     S
O633   Zn639   1.973   .     S
O634   Zn639   2.007   .     S
O635   Zn640   2.007   .     S
O636   Zn640   2.030   .     S
O637   Zn639   2.030   .     S
C641   O696    1.285   .     A
C641   C664    1.399   .     S
C641   O683    1.274   .     A
C642   C644    1.404   .     A
C642   C657    1.492   .     S
C642   C653    1.399   .     A
C643   C668    1.404   .     A
C643   C667    1.434   .     S
C643   C645    1.407   .     A
C644   C666    1.434   .     S
C644   C646    1.407   .     A
C645   C647    1.405   .     A
C645   C658    1.488   .     S
C646   C659    1.488   .     S
C646   C648    1.405   .     A
C647   C649    1.420   .     A
C647   C654    1.420   .     A
C648   C655    1.420   .     A
C648   C650    1.420   .     A
C649   C651    1.416   .     A
C650   C653    1.415   .     A
C650   C73     1.404   1_556 S
C651   C668    1.399   .     A
C651   C663    1.401   .     A
C652   C665    1.399   .     S
C652   O697    1.285   .     A
C652   O694    1.274   .     A
C653   C662    1.401   .     A
C654   C660    1.487   .     S
C655   C661    1.487   .     S
C655   C87     1.386   1_556 S
C656   C668    1.492   .     S
C656   O684    1.398   .     S
C656   O702    1.223   .     D
C657   O685    1.223   .     D
C657   O686    1.398   .     S
C658   O687    1.223   .     D
C658   O688    1.396   .     S
C659   O690    1.396   .     S
C659   O689    1.223   .     D
C660   O691    1.223   .     D
C660   O884    1.399   .     S
C661   O693    1.223   .     D
C661   O1079   1.399   1_545 S
C662   H669    1.083   .     S
C662   C78     1.386   1_556 S
C663   H673    1.083   .     S
C664   C857    1.336   .     S
C664   H872    1.088   .     S
C665   C1048   1.336   1_545 S
C665   H1054   1.088   1_545 S
C666   O698    1.285   .     A
C666   O700    1.287   .     A
C667   O699    1.285   .     A
C667   O701    1.287   .     A
H670   C857    1.088   .     S
H672   N746    1.029   .     S
H674   O684    1.014   .     S
H675   O686    1.014   .     S
H676   O688    1.014   .     S
H677   O690    1.014   .     S
H678   O692    1.014   .     S
H679   O695    1.014   .     S
H680   C1048   1.088   1_545 S
N681   Zn704   2.014   .     S
N681   H735    1.029   .     S
N681   N746    1.278   .     S
N682   Zn703   2.014   .     S
O683   Zn703   1.948   .     S
O692   C1044   1.399   1_545 S
O694   Zn704   1.948   .     S
O695   C853    1.399   .     S
O696   Zn704   1.973   .     S
O697   Zn703   1.973   .     S
O698   Zn703   2.007   .     S
O699   Zn704   2.007   .     S
O700   Zn704   2.030   .     S
O701   Zn703   2.030   .     S
C705   O760    1.285   .     A
C705   C728    1.399   .     S
C705   O747    1.274   .     A
C706   C708    1.404   .     A
C706   C721    1.492   .     S
C706   C717    1.399   .     A
C707   C732    1.404   .     A
C707   C731    1.434   .     S
C707   C709    1.407   .     A
C708   C730    1.434   .     S
C708   C710    1.407   .     A
C709   C711    1.405   .     A
C709   C722    1.488   .     S
C710   C723    1.488   .     S
C710   C712    1.405   .     A
C711   C713    1.420   .     A
C711   C718    1.420   .     A
C712   C719    1.420   .     A
C712   C714    1.420   .     A
C713   C715    1.416   .     A
C714   C717    1.415   .     A
C714   C137    1.404   1_556 S
C715   C732    1.399   .     A
C715   C727    1.401   .     A
C716   C729    1.399   .     S
C716   O761    1.285   .     A
C716   O758    1.274   .     A
C717   C726    1.401   .     A
C718   C724    1.487   .     S
C719   C725    1.487   .     S
C719   C151    1.386   1_556 S
C720   C732    1.492   .     S
C720   O748    1.398   .     S
C720   O766    1.223   .     D
C721   O749    1.223   .     D
C721   O750    1.398   .     S
C722   O751    1.223   .     D
C722   O752    1.396   .     S
C723   O754    1.396   .     S
C723   O753    1.223   .     D
C724   O755    1.223   .     D
C724   O948    1.399   .     S
C725   O757    1.223   .     D
C725   O1143   1.399   1_545 S
C726   H733    1.083   .     S
C726   C142    1.386   1_556 S
C727   H737    1.083   .     S
C728   C921    1.336   .     S
C728   H936    1.088   .     S
C729   C1112   1.336   1_545 S
C729   H1118   1.088   1_545 S
C730   O762    1.285   .     A
C730   O764    1.287   .     A
C731   O763    1.285   .     A
C731   O765    1.287   .     A
H734   C921    1.088   .     S
H736   N618    1.029   1_655 S
H738   O748    1.014   .     S
H739   O750    1.014   .     S
H740   O752    1.014   .     S
H741   O754    1.014   .     S
H742   O756    1.014   .     S
H743   O759    1.014   .     S
H744   C1112   1.088   1_545 S
N745   Zn768   2.014   .     S
N745   H607    1.029   1_655 S
N745   N618    1.278   1_655 S
N746   Zn767   2.014   .     S
O747   Zn767   1.948   .     S
O756   C1108   1.399   1_545 S
O758   Zn768   1.948   .     S
O759   C917    1.399   .     S
O760   Zn768   1.973   .     S
O761   Zn767   1.973   .     S
O762   Zn767   2.007   .     S
O763   Zn768   2.007   .     S
O764   Zn768   2.030   .     S
O765   Zn767   2.030   .     S
C769   O824    1.285   .     A
C769   C792    1.399   .     S
C769   O811    1.274   .     A
C770   C772    1.404   .     A
C770   C785    1.492   .     S
C770   C781    1.399   .     A
C771   C796    1.404   .     A
C771   C795    1.434   .     S
C771   C773    1.407   .     A
C772   C794    1.434   .     S
C772   C774    1.407   .     A
C773   C775    1.405   .     A
C773   C786    1.488   .     S
C774   C787    1.488   .     S
C774   C776    1.405   .     A
C775   C777    1.420   .     A
C775   C782    1.420   .     A
C776   C783    1.420   .     A
C776   C778    1.420   .     A
C777   C779    1.416   .     A
C778   C781    1.415   .     A
C778   C201    1.404   1_556 S
C779   C796    1.399   .     A
C779   C791    1.401   .     A
C780   C793    1.399   .     S
C780   O825    1.285   .     A
C780   O822    1.274   .     A
C781   C790    1.401   .     A
C782   C788    1.487   .     S
C783   C789    1.487   .     S
C783   C215    1.386   1_556 S
C784   C796    1.492   .     S
C784   O812    1.398   .     S
C784   O830    1.223   .     D
C785   O813    1.223   .     D
C785   O814    1.398   .     S
C786   O815    1.223   .     D
C786   O816    1.396   .     S
C787   O818    1.396   .     S
C787   O817    1.223   .     D
C788   O819    1.223   .     D
C788   O1012   1.399   .     S
C789   O821    1.223   .     D
C790   H797    1.083   .     S
C790   C206    1.386   1_556 S
C791   H801    1.083   .     S
C792   C985    1.336   .     S
C792   H1000   1.088   .     S
C794   O826    1.285   .     A
C794   O828    1.287   .     A
C795   O827    1.285   .     A
C795   O829    1.287   .     A
H798   C985    1.088   .     S
H799   N937    1.029   1_455 S
H800   N874    1.029   .     S
H802   O812    1.014   .     S
H803   O814    1.014   .     S
H804   O816    1.014   .     S
H805   O818    1.014   .     S
H806   O820    1.014   .     S
H807   O823    1.014   .     S
N809   Zn832   2.014   .     S
N809   H863    1.029   .     S
N809   N874    1.278   .     S
N810   Zn831   2.014   .     S
N810   N937    1.278   1_455 S
N810   H928    1.029   1_455 S
O811   Zn831   1.948   .     S
O822   Zn832   1.948   .     S
O823   C981    1.399   .     S
O824   Zn832   1.973   .     S
O825   Zn831   1.973   .     S
O826   Zn831   2.007   .     S
O827   Zn832   2.007   .     S
O828   Zn832   2.030   .     S
O829   Zn831   2.030   .     S
C833   O888    1.285   .     A
C833   C856    1.399   .     S
C833   O875    1.274   .     A
C834   C836    1.404   .     A
C834   C849    1.492   .     S
C834   C845    1.399   .     A
C835   C860    1.404   .     A
C835   C859    1.434   .     S
C835   C837    1.407   .     A
C836   C858    1.434   .     S
C836   C838    1.407   .     A
C837   C839    1.405   .     A
C837   C850    1.488   .     S
C838   C851    1.488   .     S
C838   C840    1.405   .     A
C839   C841    1.420   .     A
C839   C846    1.420   .     A
C840   C847    1.420   .     A
C840   C842    1.420   .     A
C841   C843    1.416   .     A
C842   C845    1.415   .     A
C842   C265    1.404   1_556 S
C843   C860    1.399   .     A
C843   C855    1.401   .     A
C844   C857    1.399   .     S
C844   O889    1.285   .     A
C844   O886    1.274   .     A
C845   C854    1.401   .     A
C846   C852    1.487   .     S
C847   C853    1.487   .     S
C847   C279    1.386   1_556 S
C848   C860    1.492   .     S
C848   O876    1.398   .     S
C848   O894    1.223   .     D
C849   O877    1.223   .     D
C849   O878    1.398   .     S
C850   O879    1.223   .     D
C850   O880    1.396   .     S
C851   O882    1.396   .     S
C851   O881    1.223   .     D
C852   O883    1.223   .     D
C852   O1076   1.399   .     S
C853   O885    1.223   .     D
C854   H861    1.083   .     S
C854   C270    1.386   1_556 S
C855   H865    1.083   .     S
C856   C1049   1.336   .     S
C856   H1064   1.088   .     S
C858   O890    1.285   .     A
C858   O892    1.287   .     A
C859   O891    1.285   .     A
C859   O893    1.287   .     A
H862   C1049   1.088   .     S
H864   N938    1.029   .     S
H866   O876    1.014   .     S
H867   O878    1.014   .     S
H868   O880    1.014   .     S
H869   O882    1.014   .     S
H870   O884    1.014   .     S
H871   O887    1.014   .     S
N873   Zn896   2.014   .     S
N873   H927    1.029   .     S
N873   N938    1.278   .     S
N874   Zn895   2.014   .     S
O875   Zn895   1.948   .     S
O886   Zn896   1.948   .     S
O887   C1045   1.399   .     S
O888   Zn896   1.973   .     S
O889   Zn895   1.973   .     S
O890   Zn895   2.007   .     S
O891   Zn896   2.007   .     S
O892   Zn896   2.030   .     S
O893   Zn895   2.030   .     S
C897   O952    1.285   .     A
C897   C920    1.399   .     S
C897   O939    1.274   .     A
C898   C900    1.404   .     A
C898   C913    1.492   .     S
C898   C909    1.399   .     A
C899   C924    1.404   .     A
C899   C923    1.434   .     S
C899   C901    1.407   .     A
C900   C922    1.434   .     S
C900   C902    1.407   .     A
C901   C903    1.405   .     A
C901   C914    1.488   .     S
C902   C915    1.488   .     S
C902   C904    1.405   .     A
C903   C905    1.420   .     A
C903   C910    1.420   .     A
C904   C911    1.420   .     A
C904   C906    1.420   .     A
C905   C907    1.416   .     A
C906   C909    1.415   .     A
C906   C329    1.404   1_556 S
C907   C924    1.399   .     A
C907   C919    1.401   .     A
C908   C921    1.399   .     S
C908   O953    1.285   .     A
C908   O950    1.274   .     A
C909   C918    1.401   .     A
C910   C916    1.487   .     S
C911   C917    1.487   .     S
C911   C343    1.386   1_556 S
C912   C924    1.492   .     S
C912   O940    1.398   .     S
C912   O958    1.223   .     D
C913   O941    1.223   .     D
C913   O942    1.398   .     S
C914   O943    1.223   .     D
C914   O944    1.396   .     S
C915   O946    1.396   .     S
C915   O945    1.223   .     D
C916   O947    1.223   .     D
C916   O1140   1.399   .     S
C917   O949    1.223   .     D
C918   H925    1.083   .     S
C918   C334    1.386   1_556 S
C919   H929    1.083   .     S
C920   C1113   1.336   .     S
C920   H1128   1.088   .     S
C922   O954    1.285   .     A
C922   O956    1.287   .     A
C923   O955    1.285   .     A
C923   O957    1.287   .     A
H926   C1113   1.088   .     S
H928   N810    1.029   1_655 S
H930   O940    1.014   .     S
H931   O942    1.014   .     S
H932   O944    1.014   .     S
H933   O946    1.014   .     S
H934   O948    1.014   .     S
H935   O951    1.014   .     S
N937   Zn960   2.014   .     S
N937   H799    1.029   1_655 S
N937   N810    1.278   1_655 S
N938   Zn959   2.014   .     S
O939   Zn959   1.948   .     S
O950   Zn960   1.948   .     S
O951   C1109   1.399   .     S
O952   Zn960   1.973   .     S
O953   Zn959   1.973   .     S
O954   Zn959   2.007   .     S
O955   Zn960   2.007   .     S
O956   Zn960   2.030   .     S
O957   Zn959   2.030   .     S
C961   O1016   1.285   .     A
C961   C984    1.399   .     S
C961   O1003   1.274   .     A
C962   C964    1.404   .     A
C962   C977    1.492   .     S
C962   C973    1.399   .     A
C963   C988    1.404   .     A
C963   C987    1.434   .     S
C963   C965    1.407   .     A
C964   C986    1.434   .     S
C964   C966    1.407   .     A
C965   C967    1.405   .     A
C965   C978    1.488   .     S
C966   C979    1.488   .     S
C966   C968    1.405   .     A
C967   C969    1.420   .     A
C967   C974    1.420   .     A
C968   C975    1.420   .     A
C968   C970    1.420   .     A
C969   C971    1.416   .     A
C970   C973    1.415   .     A
C970   C393    1.404   1_556 S
C971   C988    1.399   .     A
C971   C983    1.401   .     A
C972   C985    1.399   .     S
C972   O1017   1.285   .     A
C972   O1014   1.274   .     A
C973   C982    1.401   .     A
C974   C980    1.487   .     S
C975   C981    1.487   .     S
C975   C407    1.386   1_556 S
C976   C988    1.492   .     S
C976   O1004   1.398   .     S
C976   O1022   1.223   .     D
C977   O1005   1.223   .     D
C977   O1006   1.398   .     S
C978   O1007   1.223   .     D
C978   O1008   1.396   .     S
C979   O1010   1.396   .     S
C979   O1009   1.223   .     D
C980   O1011   1.223   .     D
C980   O628    1.399   1_565 S
C981   O1013   1.223   .     D
C982   H989    1.083   .     S
C982   C398    1.386   1_556 S
C983   H993    1.083   .     S
C984   C601    1.336   1_565 S
C984   H616    1.088   1_565 S
C986   O1018   1.285   .     A
C986   O1020   1.287   .     A
C987   O1019   1.285   .     A
C987   O1021   1.287   .     A
H990   C601    1.088   1_565 S
H991   N1129   1.029   1_455 S
H992   N1066   1.029   .     S
H994   O1004   1.014   .     S
H995   O1006   1.014   .     S
H996   O1008   1.014   .     S
H997   O1010   1.014   .     S
H998   O1012   1.014   .     S
H999   O1015   1.014   .     S
N1001  Zn1024  2.014   .     S
N1001  H1055   1.029   .     S
N1001  N1066   1.278   .     S
N1002  Zn1023  2.014   .     S
N1002  N1129   1.278   1_455 S
N1002  H1120   1.029   1_455 S
O1003  Zn1023  1.948   .     S
O1014  Zn1024  1.948   .     S
O1015  C597    1.399   1_565 S
O1016  Zn1024  1.973   .     S
O1017  Zn1023  1.973   .     S
O1018  Zn1023  2.007   .     S
O1019  Zn1024  2.007   .     S
O1020  Zn1024  2.030   .     S
O1021  Zn1023  2.030   .     S
C1025  O1080   1.285   .     A
C1025  C1048   1.399   .     S
C1025  O1067   1.274   .     A
C1026  C1028   1.404   .     A
C1026  C1041   1.492   .     S
C1026  C1037   1.399   .     A
C1027  C1052   1.404   .     A
C1027  C1051   1.434   .     S
C1027  C1029   1.407   .     A
C1028  C1050   1.434   .     S
C1028  C1030   1.407   .     A
C1029  C1031   1.405   .     A
C1029  C1042   1.488   .     S
C1030  C1043   1.488   .     S
C1030  C1032   1.405   .     A
C1031  C1033   1.420   .     A
C1031  C1038   1.420   .     A
C1032  C1039   1.420   .     A
C1032  C1034   1.420   .     A
C1033  C1035   1.416   .     A
C1034  C1037   1.415   .     A
C1034  C457    1.404   1_556 S
C1035  C1052   1.399   .     A
C1035  C1047   1.401   .     A
C1036  C1049   1.399   .     S
C1036  O1081   1.285   .     A
C1036  O1078   1.274   .     A
C1037  C1046   1.401   .     A
C1038  C1044   1.487   .     S
C1039  C1045   1.487   .     S
C1039  C471    1.386   1_556 S
C1040  C1052   1.492   .     S
C1040  O1068   1.398   .     S
C1040  O1086   1.223   .     D
C1041  O1069   1.223   .     D
C1041  O1070   1.398   .     S
C1042  O1071   1.223   .     D
C1042  O1072   1.396   .     S
C1043  O1074   1.396   .     S
C1043  O1073   1.223   .     D
C1044  O1075   1.223   .     D
C1044  O692    1.399   1_565 S
C1045  O1077   1.223   .     D
C1046  H1053   1.083   .     S
C1046  C462    1.386   1_556 S
C1047  H1057   1.083   .     S
C1048  C665    1.336   1_565 S
C1048  H680    1.088   1_565 S
C1050  O1082   1.285   .     A
C1050  O1084   1.287   .     A
C1051  O1083   1.285   .     A
C1051  O1085   1.287   .     A
H1054  C665    1.088   1_565 S
H1056  N1130   1.029   .     S
H1058  O1068   1.014   .     S
H1059  O1070   1.014   .     S
H1060  O1072   1.014   .     S
H1061  O1074   1.014   .     S
H1062  O1076   1.014   .     S
H1063  O1079   1.014   .     S
N1065  Zn1088  2.014   .     S
N1065  H1119   1.029   .     S
N1065  N1130   1.278   .     S
N1066  Zn1087  2.014   .     S
O1067  Zn1087  1.948   .     S
O1078  Zn1088  1.948   .     S
O1079  C661    1.399   1_565 S
O1080  Zn1088  1.973   .     S
O1081  Zn1087  1.973   .     S
O1082  Zn1087  2.007   .     S
O1083  Zn1088  2.007   .     S
O1084  Zn1088  2.030   .     S
O1085  Zn1087  2.030   .     S
C1089  O1144   1.285   .     A
C1089  C1112   1.399   .     S
C1089  O1131   1.274   .     A
C1090  C1092   1.404   .     A
C1090  C1105   1.492   .     S
C1090  C1101   1.399   .     A
C1091  C1116   1.404   .     A
C1091  C1115   1.434   .     S
C1091  C1093   1.407   .     A
C1092  C1114   1.434   .     S
C1092  C1094   1.407   .     A
C1093  C1095   1.405   .     A
C1093  C1106   1.488   .     S
C1094  C1107   1.488   .     S
C1094  C1096   1.405   .     A
C1095  C1097   1.420   .     A
C1095  C1102   1.420   .     A
C1096  C1103   1.420   .     A
C1096  C1098   1.420   .     A
C1097  C1099   1.416   .     A
C1098  C1101   1.415   .     A
C1098  C521    1.404   1_556 S
C1099  C1116   1.399   .     A
C1099  C1111   1.401   .     A
C1100  C1113   1.399   .     S
C1100  O1145   1.285   .     A
C1100  O1142   1.274   .     A
C1101  C1110   1.401   .     A
C1102  C1108   1.487   .     S
C1103  C1109   1.487   .     S
C1103  C535    1.386   1_556 S
C1104  C1116   1.492   .     S
C1104  O1132   1.398   .     S
C1104  O1150   1.223   .     D
C1105  O1133   1.223   .     D
C1105  O1134   1.398   .     S
C1106  O1135   1.223   .     D
C1106  O1136   1.396   .     S
C1107  O1138   1.396   .     S
C1107  O1137   1.223   .     D
C1108  O1139   1.223   .     D
C1108  O756    1.399   1_565 S
C1109  O1141   1.223   .     D
C1110  H1117   1.083   .     S
C1110  C526    1.386   1_556 S
C1111  H1121   1.083   .     S
C1112  C729    1.336   1_565 S
C1112  H744    1.088   1_565 S
C1114  O1146   1.285   .     A
C1114  O1148   1.287   .     A
C1115  O1147   1.285   .     A
C1115  O1149   1.287   .     A
H1118  C729    1.088   1_565 S
H1120  N1002   1.029   1_655 S
H1122  O1132   1.014   .     S
H1123  O1134   1.014   .     S
H1124  O1136   1.014   .     S
H1125  O1138   1.014   .     S
H1126  O1140   1.014   .     S
H1127  O1143   1.014   .     S
N1129  Zn1152  2.014   .     S
N1129  H991    1.029   1_655 S
N1129  N1002   1.278   1_655 S
N1130  Zn1151  2.014   .     S
O1131  Zn1151  1.948   .     S
O1142  Zn1152  1.948   .     S
O1143  C725    1.399   1_565 S
O1144  Zn1152  1.973   .     S
O1145  Zn1151  1.973   .     S
O1146  Zn1151  2.007   .     S
O1147  Zn1152  2.007   .     S
O1148  Zn1152  2.030   .     S
O1149  Zn1151  2.030   .     S
