data_str_m2_o2_o10_pcu_sym.45
_audit_creation_date              2020-01-03
_audit_creation_method            'Materials Studio'
_symmetry_space_group_name_H-M    'P1'
_symmetry_Int_Tables_number       1
_symmetry_cell_setting            triclinic
loop_
_symmetry_equiv_pos_as_xyz
  x,y,z
_cell_length_a                    26.1797
_cell_length_b                    30.3080
_cell_length_c                    27.7849
_cell_angle_alpha                 90.5857
_cell_angle_beta                  98.1955
_cell_angle_gamma                 90.4080
loop_
_atom_site_label
_atom_site_type_symbol
_atom_site_fract_x
_atom_site_fract_y
_atom_site_fract_z
_atom_site_U_iso_or_equiv
_atom_site_adp_type
_atom_site_occupancy
C1     C     0.16667   0.16500   0.24973   0.00000  Uiso   1.00
C2     C     0.19480   0.28132   0.45031   0.00000  Uiso   1.00
C3     C     0.16719   0.24952   0.02740   0.00000  Uiso   1.00
C4     C     0.16701   0.24941   0.47266   0.00000  Uiso   1.00
C5     C     0.06789   0.24989   0.23750   0.00000  Uiso   1.00
C6     C     0.26544   0.24988   0.26249   0.00000  Uiso   1.00
C7     C     0.01254   0.24979   0.23065   0.00000  Uiso   1.00
C8     C     0.32079   0.24967   0.26931   0.00000  Uiso   1.00
C9     C     0.14341   0.04829   0.28490   0.00000  Uiso   1.00
C10    C     0.15318   0.45172   0.20556   0.00000  Uiso   1.00
C11    C     0.14483   0.09412   0.28532   0.00000  Uiso   1.00
C12    C     0.16658   0.33513   0.25023   0.00000  Uiso   1.00
C13    C     0.15437   0.40588   0.20618   0.00000  Uiso   1.00
C14    C     0.16590   0.11682   0.24900   0.00000  Uiso   1.00
C15    C     0.16571   0.38353   0.25039   0.00000  Uiso   1.00
C16    C     0.18575   0.09310   0.21217   0.00000  Uiso   1.00
C17    C     0.17587   0.40796   0.29410   0.00000  Uiso   1.00
C18    C     0.18489   0.04722   0.21221   0.00000  Uiso   1.00
C19    C     0.17531   0.45378   0.29326   0.00000  Uiso   1.00
C20    C     0.16375   0.02449   0.24854   0.00000  Uiso   1.00
C21    C     0.16388   0.47601   0.24909   0.00000  Uiso   1.00
C22    C     0.08901   0.15991   0.10792   0.00000  Uiso   1.00
C23    C     0.20651   0.27077   0.05974   0.00000  Uiso   1.00
C24    C     0.03514   0.14728   0.08324   0.00000  Uiso   1.00
C25    C     0.27783   0.30629   0.39531   0.00000  Uiso   1.00
C26    C     0.30848   0.33674   0.36667   0.00000  Uiso   1.00
C27    C     0.13915   0.21759   0.44169   0.00000  Uiso   1.00
C28    C     0.20498   0.27132   0.11014   0.00000  Uiso   1.00
C29    C     0.13873   0.21899   0.39104   0.00000  Uiso   1.00
C30    C     0.12936   0.22704   0.09946   0.00000  Uiso   1.00
C31    C     0.19637   0.27994   0.39964   0.00000  Uiso   1.00
C32    C     0.12791   0.22829   0.04840   0.00000  Uiso   1.00
Cu33   Cu    0.16667   0.25000   0.29822   0.00000  Uiso   1.00
Cu34   Cu    0.16667   0.25001   0.20179   0.00000  Uiso   1.00
F35    F     0.20731   0.11411   0.17699   0.00000  Uiso   1.00
F36    F     0.18702   0.38793   0.33769   0.00000  Uiso   1.00
H37    H     0.32572   0.24988   0.19362   0.00000  Uiso   1.00
H38    H     0.11788   0.19129   0.45601   0.00000  Uiso   1.00
H39    H     0.23503   0.28856   0.13399   0.00000  Uiso   1.00
H40    H     0.11635   0.19474   0.36802   0.00000  Uiso   1.00
H41    H     0.09560   0.21285   0.02580   0.00000  Uiso   1.00
H42    H     0.21476   0.30790   0.47152   0.00000  Uiso   1.00
H43    H     0.09686   0.14134   0.14239   0.00000  Uiso   1.00
H44    H     0.11797   0.14873   0.08464   0.00000  Uiso   1.00
H45    H     0.02600   0.16503   0.04836   0.00000  Uiso   1.00
H46    H     0.03306   0.11120   0.07575   0.00000  Uiso   1.00
H47    H     0.00614   0.15594   0.10724   0.00000  Uiso   1.00
H48    H     0.00761   0.24954   0.30634   0.00000  Uiso   1.00
H49    H     0.29057   0.27175   0.39018   0.00000  Uiso   1.00
H50    H     0.28699   0.31578   0.43436   0.00000  Uiso   1.00
H51    H     0.29873   0.37166   0.37338   0.00000  Uiso   1.00
H52    H     0.01713   0.33203   0.37817   0.00000  Uiso   1.00
H53    H     0.29927   0.32942   0.32715   0.00000  Uiso   1.00
H54    H     0.12608   0.03149   0.31284   0.00000  Uiso   1.00
H55    H     0.14345   0.46814   0.17107   0.00000  Uiso   1.00
H56    H     0.12882   0.11183   0.31370   0.00000  Uiso   1.00
H57    H     0.14589   0.38797   0.17201   0.00000  Uiso   1.00
H58    H     0.20166   0.02951   0.18434   0.00000  Uiso   1.00
H59    H     0.18456   0.47189   0.32723   0.00000  Uiso   1.00
H60    H     0.23884   0.28677   0.04673   0.00000  Uiso   1.00
N61    N     0.16667   0.25001   0.12935   0.00000  Uiso   1.00
N62    N     0.16667   0.24999   0.37066   0.00000  Uiso   1.00
O63    O     0.16667   0.18573   0.29072   0.00000  Uiso   1.00
O64    O     0.22466   0.31101   0.37836   0.00000  Uiso   1.00
O65    O     0.16666   0.31428   0.20929   0.00000  Uiso   1.00
O66    O     0.16667   0.18573   0.20928   0.00000  Uiso   1.00
O67    O     0.16666   0.31427   0.29072   0.00000  Uiso   1.00
O68    O     0.09161   0.25000   0.28132   0.00000  Uiso   1.00
O69    O     0.24172   0.25001   0.21868   0.00000  Uiso   1.00
O70    O     0.09161   0.25000   0.19989   0.00000  Uiso   1.00
O71    O     0.24172   0.25000   0.30012   0.00000  Uiso   1.00
O72    O     0.09069   0.20560   0.11948   0.00000  Uiso   1.00
C73    C     0.50000   0.16500   0.24973   0.00000  Uiso   1.00
C74    C     0.52814   0.28132   0.45031   0.00000  Uiso   1.00
C75    C     0.50053   0.24952   0.02740   0.00000  Uiso   1.00
C76    C     0.50034   0.24941   0.47266   0.00000  Uiso   1.00
C77    C     0.40122   0.24989   0.23750   0.00000  Uiso   1.00
C78    C     0.59878   0.24988   0.26249   0.00000  Uiso   1.00
C79    C     0.34588   0.24979   0.23065   0.00000  Uiso   1.00
C80    C     0.65412   0.24967   0.26931   0.00000  Uiso   1.00
C81    C     0.47674   0.04829   0.28490   0.00000  Uiso   1.00
C82    C     0.48652   0.45172   0.20556   0.00000  Uiso   1.00
C83    C     0.47816   0.09412   0.28532   0.00000  Uiso   1.00
C84    C     0.49992   0.33513   0.25023   0.00000  Uiso   1.00
C85    C     0.48770   0.40588   0.20618   0.00000  Uiso   1.00
C86    C     0.49923   0.11682   0.24900   0.00000  Uiso   1.00
C87    C     0.49904   0.38353   0.25039   0.00000  Uiso   1.00
C88    C     0.51909   0.09310   0.21217   0.00000  Uiso   1.00
C89    C     0.50921   0.40796   0.29410   0.00000  Uiso   1.00
C90    C     0.51822   0.04722   0.21221   0.00000  Uiso   1.00
C91    C     0.50864   0.45378   0.29326   0.00000  Uiso   1.00
C92    C     0.49708   0.02449   0.24854   0.00000  Uiso   1.00
C93    C     0.49721   0.47601   0.24909   0.00000  Uiso   1.00
C94    C     0.42235   0.15991   0.10792   0.00000  Uiso   1.00
C95    C     0.53985   0.27077   0.05974   0.00000  Uiso   1.00
C96    C     0.36848   0.14728   0.08324   0.00000  Uiso   1.00
C97    C     0.61117   0.30629   0.39531   0.00000  Uiso   1.00
C98    C     0.64182   0.33674   0.36667   0.00000  Uiso   1.00
C99    C     0.47248   0.21759   0.44169   0.00000  Uiso   1.00
C100   C     0.53831   0.27132   0.11014   0.00000  Uiso   1.00
C101   C     0.47206   0.21899   0.39104   0.00000  Uiso   1.00
C102   C     0.46269   0.22704   0.09946   0.00000  Uiso   1.00
C103   C     0.52971   0.27994   0.39964   0.00000  Uiso   1.00
C104   C     0.46124   0.22829   0.04840   0.00000  Uiso   1.00
Cu105  Cu    0.50000   0.25000   0.29822   0.00000  Uiso   1.00
Cu106  Cu    0.50000   0.25001   0.20179   0.00000  Uiso   1.00
F107   F     0.54065   0.11411   0.17699   0.00000  Uiso   1.00
F108   F     0.52035   0.38793   0.33769   0.00000  Uiso   1.00
H109   H     0.65906   0.24988   0.19362   0.00000  Uiso   1.00
H110   H     0.45121   0.19129   0.45601   0.00000  Uiso   1.00
H111   H     0.56836   0.28856   0.13399   0.00000  Uiso   1.00
H112   H     0.44968   0.19474   0.36802   0.00000  Uiso   1.00
H113   H     0.42893   0.21285   0.02580   0.00000  Uiso   1.00
H114   H     0.54809   0.30790   0.47152   0.00000  Uiso   1.00
H115   H     0.43019   0.14134   0.14239   0.00000  Uiso   1.00
H116   H     0.45131   0.14873   0.08464   0.00000  Uiso   1.00
H117   H     0.35933   0.16503   0.04836   0.00000  Uiso   1.00
H118   H     0.36639   0.11120   0.07575   0.00000  Uiso   1.00
H119   H     0.33947   0.15594   0.10724   0.00000  Uiso   1.00
H120   H     0.34095   0.24954   0.30634   0.00000  Uiso   1.00
H121   H     0.62391   0.27175   0.39018   0.00000  Uiso   1.00
H122   H     0.62033   0.31578   0.43436   0.00000  Uiso   1.00
H123   H     0.63207   0.37166   0.37338   0.00000  Uiso   1.00
H124   H     0.35046   0.33203   0.37817   0.00000  Uiso   1.00
H125   H     0.63261   0.32942   0.32715   0.00000  Uiso   1.00
H126   H     0.45941   0.03149   0.31284   0.00000  Uiso   1.00
H127   H     0.47679   0.46814   0.17107   0.00000  Uiso   1.00
H128   H     0.46215   0.11183   0.31370   0.00000  Uiso   1.00
H129   H     0.47922   0.38797   0.17201   0.00000  Uiso   1.00
H130   H     0.53500   0.02951   0.18434   0.00000  Uiso   1.00
H131   H     0.51790   0.47189   0.32723   0.00000  Uiso   1.00
H132   H     0.57218   0.28677   0.04673   0.00000  Uiso   1.00
N133   N     0.50000   0.25001   0.12935   0.00000  Uiso   1.00
N134   N     0.50000   0.24999   0.37066   0.00000  Uiso   1.00
O135   O     0.50000   0.18573   0.29072   0.00000  Uiso   1.00
O136   O     0.55799   0.31101   0.37836   0.00000  Uiso   1.00
O137   O     0.50000   0.31428   0.20929   0.00000  Uiso   1.00
O138   O     0.50000   0.18573   0.20928   0.00000  Uiso   1.00
O139   O     0.50000   0.31427   0.29072   0.00000  Uiso   1.00
O140   O     0.42495   0.25000   0.28132   0.00000  Uiso   1.00
O141   O     0.57505   0.25001   0.21868   0.00000  Uiso   1.00
O142   O     0.42495   0.25000   0.19989   0.00000  Uiso   1.00
O143   O     0.57505   0.25000   0.30012   0.00000  Uiso   1.00
O144   O     0.42402   0.20560   0.11948   0.00000  Uiso   1.00
C145   C     0.83334   0.16500   0.24973   0.00000  Uiso   1.00
C146   C     0.86147   0.28132   0.45031   0.00000  Uiso   1.00
C147   C     0.83386   0.24952   0.02740   0.00000  Uiso   1.00
C148   C     0.83367   0.24941   0.47266   0.00000  Uiso   1.00
C149   C     0.73455   0.24989   0.23750   0.00000  Uiso   1.00
C150   C     0.93211   0.24988   0.26249   0.00000  Uiso   1.00
C151   C     0.67921   0.24979   0.23065   0.00000  Uiso   1.00
C152   C     0.98745   0.24967   0.26931   0.00000  Uiso   1.00
C153   C     0.81008   0.04829   0.28490   0.00000  Uiso   1.00
C154   C     0.81985   0.45172   0.20556   0.00000  Uiso   1.00
C155   C     0.81150   0.09412   0.28532   0.00000  Uiso   1.00
C156   C     0.83325   0.33513   0.25023   0.00000  Uiso   1.00
C157   C     0.82104   0.40588   0.20618   0.00000  Uiso   1.00
C158   C     0.83257   0.11682   0.24900   0.00000  Uiso   1.00
C159   C     0.83237   0.38353   0.25039   0.00000  Uiso   1.00
C160   C     0.85242   0.09310   0.21217   0.00000  Uiso   1.00
C161   C     0.84254   0.40796   0.29410   0.00000  Uiso   1.00
C162   C     0.85155   0.04722   0.21221   0.00000  Uiso   1.00
C163   C     0.84198   0.45378   0.29326   0.00000  Uiso   1.00
C164   C     0.83042   0.02449   0.24854   0.00000  Uiso   1.00
C165   C     0.83055   0.47601   0.24909   0.00000  Uiso   1.00
C166   C     0.75568   0.15991   0.10792   0.00000  Uiso   1.00
C167   C     0.87318   0.27077   0.05974   0.00000  Uiso   1.00
C168   C     0.70181   0.14728   0.08324   0.00000  Uiso   1.00
C169   C     0.94450   0.30629   0.39531   0.00000  Uiso   1.00
C170   C     0.97515   0.33674   0.36667   0.00000  Uiso   1.00
C171   C     0.80581   0.21759   0.44169   0.00000  Uiso   1.00
C172   C     0.87165   0.27132   0.11014   0.00000  Uiso   1.00
C173   C     0.80539   0.21899   0.39104   0.00000  Uiso   1.00
C174   C     0.79603   0.22704   0.09946   0.00000  Uiso   1.00
C175   C     0.86304   0.27994   0.39964   0.00000  Uiso   1.00
C176   C     0.79457   0.22829   0.04840   0.00000  Uiso   1.00
Cu177  Cu    0.83333   0.25000   0.29822   0.00000  Uiso   1.00
Cu178  Cu    0.83333   0.25001   0.20179   0.00000  Uiso   1.00
F179   F     0.87398   0.11411   0.17699   0.00000  Uiso   1.00
F180   F     0.85368   0.38793   0.33769   0.00000  Uiso   1.00
H181   H     0.99239   0.24988   0.19362   0.00000  Uiso   1.00
H182   H     0.78455   0.19129   0.45601   0.00000  Uiso   1.00
H183   H     0.90170   0.28856   0.13399   0.00000  Uiso   1.00
H184   H     0.78302   0.19474   0.36802   0.00000  Uiso   1.00
H185   H     0.76227   0.21285   0.02580   0.00000  Uiso   1.00
H186   H     0.88143   0.30790   0.47152   0.00000  Uiso   1.00
H187   H     0.76353   0.14134   0.14239   0.00000  Uiso   1.00
H188   H     0.78464   0.14873   0.08464   0.00000  Uiso   1.00
H189   H     0.69266   0.16503   0.04836   0.00000  Uiso   1.00
H190   H     0.69973   0.11120   0.07575   0.00000  Uiso   1.00
H191   H     0.67280   0.15594   0.10724   0.00000  Uiso   1.00
H192   H     0.67428   0.24954   0.30634   0.00000  Uiso   1.00
H193   H     0.95724   0.27175   0.39018   0.00000  Uiso   1.00
H194   H     0.95366   0.31578   0.43436   0.00000  Uiso   1.00
H195   H     0.96540   0.37166   0.37338   0.00000  Uiso   1.00
H196   H     0.68380   0.33203   0.37817   0.00000  Uiso   1.00
H197   H     0.96594   0.32942   0.32715   0.00000  Uiso   1.00
H198   H     0.79275   0.03149   0.31284   0.00000  Uiso   1.00
H199   H     0.81012   0.46814   0.17107   0.00000  Uiso   1.00
H200   H     0.79549   0.11183   0.31370   0.00000  Uiso   1.00
H201   H     0.81255   0.38797   0.17201   0.00000  Uiso   1.00
H202   H     0.86833   0.02951   0.18434   0.00000  Uiso   1.00
H203   H     0.85123   0.47189   0.32723   0.00000  Uiso   1.00
H204   H     0.90551   0.28677   0.04673   0.00000  Uiso   1.00
N205   N     0.83333   0.25001   0.12935   0.00000  Uiso   1.00
N206   N     0.83333   0.24999   0.37066   0.00000  Uiso   1.00
O207   O     0.83334   0.18573   0.29072   0.00000  Uiso   1.00
O208   O     0.89133   0.31101   0.37836   0.00000  Uiso   1.00
O209   O     0.83333   0.31428   0.20929   0.00000  Uiso   1.00
O210   O     0.83334   0.18573   0.20928   0.00000  Uiso   1.00
O211   O     0.83333   0.31427   0.29072   0.00000  Uiso   1.00
O212   O     0.75828   0.25000   0.28132   0.00000  Uiso   1.00
O213   O     0.90839   0.25001   0.21868   0.00000  Uiso   1.00
O214   O     0.75828   0.25000   0.19989   0.00000  Uiso   1.00
O215   O     0.90839   0.25000   0.30012   0.00000  Uiso   1.00
O216   O     0.75736   0.20560   0.11948   0.00000  Uiso   1.00
C217   C     0.16667   0.66500   0.24973   0.00000  Uiso   1.00
C218   C     0.19480   0.78132   0.45031   0.00000  Uiso   1.00
C219   C     0.16719   0.74952   0.02740   0.00000  Uiso   1.00
C220   C     0.16701   0.74941   0.47266   0.00000  Uiso   1.00
C221   C     0.06789   0.74989   0.23750   0.00000  Uiso   1.00
C222   C     0.26544   0.74988   0.26249   0.00000  Uiso   1.00
C223   C     0.01254   0.74979   0.23065   0.00000  Uiso   1.00
C224   C     0.32079   0.74967   0.26931   0.00000  Uiso   1.00
C225   C     0.14341   0.54829   0.28490   0.00000  Uiso   1.00
C226   C     0.15318   0.95172   0.20556   0.00000  Uiso   1.00
C227   C     0.14483   0.59412   0.28532   0.00000  Uiso   1.00
C228   C     0.16658   0.83513   0.25023   0.00000  Uiso   1.00
C229   C     0.15437   0.90588   0.20618   0.00000  Uiso   1.00
C230   C     0.16590   0.61682   0.24900   0.00000  Uiso   1.00
C231   C     0.16571   0.88353   0.25039   0.00000  Uiso   1.00
C232   C     0.18575   0.59310   0.21217   0.00000  Uiso   1.00
C233   C     0.17587   0.90796   0.29410   0.00000  Uiso   1.00
C234   C     0.18489   0.54722   0.21221   0.00000  Uiso   1.00
C235   C     0.17531   0.95378   0.29326   0.00000  Uiso   1.00
C236   C     0.16375   0.52449   0.24854   0.00000  Uiso   1.00
C237   C     0.16388   0.97601   0.24909   0.00000  Uiso   1.00
C238   C     0.08901   0.65991   0.10792   0.00000  Uiso   1.00
C239   C     0.20651   0.77077   0.05974   0.00000  Uiso   1.00
C240   C     0.03514   0.64728   0.08324   0.00000  Uiso   1.00
C241   C     0.27783   0.80629   0.39531   0.00000  Uiso   1.00
C242   C     0.30848   0.83674   0.36667   0.00000  Uiso   1.00
C243   C     0.13915   0.71759   0.44169   0.00000  Uiso   1.00
C244   C     0.20498   0.77132   0.11014   0.00000  Uiso   1.00
C245   C     0.13873   0.71899   0.39104   0.00000  Uiso   1.00
C246   C     0.12936   0.72704   0.09946   0.00000  Uiso   1.00
C247   C     0.19637   0.77994   0.39964   0.00000  Uiso   1.00
C248   C     0.12791   0.72829   0.04840   0.00000  Uiso   1.00
Cu249  Cu    0.16667   0.75000   0.29822   0.00000  Uiso   1.00
Cu250  Cu    0.16667   0.75001   0.20179   0.00000  Uiso   1.00
F251   F     0.20731   0.61411   0.17699   0.00000  Uiso   1.00
F252   F     0.18702   0.88793   0.33769   0.00000  Uiso   1.00
H253   H     0.32572   0.74988   0.19362   0.00000  Uiso   1.00
H254   H     0.11788   0.69129   0.45601   0.00000  Uiso   1.00
H255   H     0.23503   0.78856   0.13399   0.00000  Uiso   1.00
H256   H     0.11635   0.69474   0.36802   0.00000  Uiso   1.00
H257   H     0.09560   0.71285   0.02580   0.00000  Uiso   1.00
H258   H     0.21476   0.80790   0.47152   0.00000  Uiso   1.00
H259   H     0.09686   0.64134   0.14239   0.00000  Uiso   1.00
H260   H     0.11797   0.64873   0.08464   0.00000  Uiso   1.00
H261   H     0.02600   0.66503   0.04836   0.00000  Uiso   1.00
H262   H     0.03306   0.61120   0.07575   0.00000  Uiso   1.00
H263   H     0.00614   0.65594   0.10724   0.00000  Uiso   1.00
H264   H     0.00761   0.74954   0.30634   0.00000  Uiso   1.00
H265   H     0.29057   0.77175   0.39018   0.00000  Uiso   1.00
H266   H     0.28699   0.81578   0.43436   0.00000  Uiso   1.00
H267   H     0.29873   0.87166   0.37338   0.00000  Uiso   1.00
H268   H     0.01713   0.83203   0.37817   0.00000  Uiso   1.00
H269   H     0.29927   0.82942   0.32715   0.00000  Uiso   1.00
H270   H     0.12608   0.53149   0.31284   0.00000  Uiso   1.00
H271   H     0.14345   0.96814   0.17107   0.00000  Uiso   1.00
H272   H     0.12882   0.61183   0.31370   0.00000  Uiso   1.00
H273   H     0.14589   0.88797   0.17201   0.00000  Uiso   1.00
H274   H     0.20166   0.52951   0.18434   0.00000  Uiso   1.00
H275   H     0.18456   0.97189   0.32723   0.00000  Uiso   1.00
H276   H     0.23884   0.78677   0.04673   0.00000  Uiso   1.00
N277   N     0.16667   0.75001   0.12935   0.00000  Uiso   1.00
N278   N     0.16667   0.74999   0.37066   0.00000  Uiso   1.00
O279   O     0.16667   0.68573   0.29072   0.00000  Uiso   1.00
O280   O     0.22466   0.81101   0.37836   0.00000  Uiso   1.00
O281   O     0.16666   0.81428   0.20929   0.00000  Uiso   1.00
O282   O     0.16667   0.68573   0.20928   0.00000  Uiso   1.00
O283   O     0.16666   0.81427   0.29072   0.00000  Uiso   1.00
O284   O     0.09161   0.75000   0.28132   0.00000  Uiso   1.00
O285   O     0.24172   0.75001   0.21868   0.00000  Uiso   1.00
O286   O     0.09161   0.75000   0.19989   0.00000  Uiso   1.00
O287   O     0.24172   0.75000   0.30012   0.00000  Uiso   1.00
O288   O     0.09069   0.70560   0.11948   0.00000  Uiso   1.00
C289   C     0.50000   0.66500   0.24973   0.00000  Uiso   1.00
C290   C     0.52814   0.78132   0.45031   0.00000  Uiso   1.00
C291   C     0.50053   0.74952   0.02740   0.00000  Uiso   1.00
C292   C     0.50034   0.74941   0.47266   0.00000  Uiso   1.00
C293   C     0.40122   0.74989   0.23750   0.00000  Uiso   1.00
C294   C     0.59878   0.74988   0.26249   0.00000  Uiso   1.00
C295   C     0.34588   0.74979   0.23065   0.00000  Uiso   1.00
C296   C     0.65412   0.74967   0.26931   0.00000  Uiso   1.00
C297   C     0.47674   0.54829   0.28490   0.00000  Uiso   1.00
C298   C     0.48652   0.95172   0.20556   0.00000  Uiso   1.00
C299   C     0.47816   0.59412   0.28532   0.00000  Uiso   1.00
C300   C     0.49992   0.83513   0.25023   0.00000  Uiso   1.00
C301   C     0.48770   0.90588   0.20618   0.00000  Uiso   1.00
C302   C     0.49923   0.61682   0.24900   0.00000  Uiso   1.00
C303   C     0.49904   0.88353   0.25039   0.00000  Uiso   1.00
C304   C     0.51909   0.59310   0.21217   0.00000  Uiso   1.00
C305   C     0.50921   0.90796   0.29410   0.00000  Uiso   1.00
C306   C     0.51822   0.54722   0.21221   0.00000  Uiso   1.00
C307   C     0.50864   0.95378   0.29326   0.00000  Uiso   1.00
C308   C     0.49708   0.52449   0.24854   0.00000  Uiso   1.00
C309   C     0.49721   0.97601   0.24909   0.00000  Uiso   1.00
C310   C     0.42235   0.65991   0.10792   0.00000  Uiso   1.00
C311   C     0.53985   0.77077   0.05974   0.00000  Uiso   1.00
C312   C     0.36848   0.64728   0.08324   0.00000  Uiso   1.00
C313   C     0.61117   0.80629   0.39531   0.00000  Uiso   1.00
C314   C     0.64182   0.83674   0.36667   0.00000  Uiso   1.00
C315   C     0.47248   0.71759   0.44169   0.00000  Uiso   1.00
C316   C     0.53831   0.77132   0.11014   0.00000  Uiso   1.00
C317   C     0.47206   0.71899   0.39104   0.00000  Uiso   1.00
C318   C     0.46269   0.72704   0.09946   0.00000  Uiso   1.00
C319   C     0.52971   0.77994   0.39964   0.00000  Uiso   1.00
C320   C     0.46124   0.72829   0.04840   0.00000  Uiso   1.00
Cu321  Cu    0.50000   0.75000   0.29822   0.00000  Uiso   1.00
Cu322  Cu    0.50000   0.75001   0.20179   0.00000  Uiso   1.00
F323   F     0.54065   0.61411   0.17699   0.00000  Uiso   1.00
F324   F     0.52035   0.88793   0.33769   0.00000  Uiso   1.00
H325   H     0.65906   0.74988   0.19362   0.00000  Uiso   1.00
H326   H     0.45121   0.69129   0.45601   0.00000  Uiso   1.00
H327   H     0.56836   0.78856   0.13399   0.00000  Uiso   1.00
H328   H     0.44968   0.69474   0.36802   0.00000  Uiso   1.00
H329   H     0.42893   0.71285   0.02580   0.00000  Uiso   1.00
H330   H     0.54809   0.80790   0.47152   0.00000  Uiso   1.00
H331   H     0.43019   0.64134   0.14239   0.00000  Uiso   1.00
H332   H     0.45131   0.64873   0.08464   0.00000  Uiso   1.00
H333   H     0.35933   0.66503   0.04836   0.00000  Uiso   1.00
H334   H     0.36639   0.61120   0.07575   0.00000  Uiso   1.00
H335   H     0.33947   0.65594   0.10724   0.00000  Uiso   1.00
H336   H     0.34095   0.74954   0.30634   0.00000  Uiso   1.00
H337   H     0.62391   0.77175   0.39018   0.00000  Uiso   1.00
H338   H     0.62033   0.81578   0.43436   0.00000  Uiso   1.00
H339   H     0.63207   0.87166   0.37338   0.00000  Uiso   1.00
H340   H     0.35046   0.83203   0.37817   0.00000  Uiso   1.00
H341   H     0.63261   0.82942   0.32715   0.00000  Uiso   1.00
H342   H     0.45941   0.53149   0.31284   0.00000  Uiso   1.00
H343   H     0.47679   0.96814   0.17107   0.00000  Uiso   1.00
H344   H     0.46215   0.61183   0.31370   0.00000  Uiso   1.00
H345   H     0.47922   0.88797   0.17201   0.00000  Uiso   1.00
H346   H     0.53500   0.52951   0.18434   0.00000  Uiso   1.00
H347   H     0.51790   0.97189   0.32723   0.00000  Uiso   1.00
H348   H     0.57218   0.78677   0.04673   0.00000  Uiso   1.00
N349   N     0.50000   0.75001   0.12935   0.00000  Uiso   1.00
N350   N     0.50000   0.74999   0.37066   0.00000  Uiso   1.00
O351   O     0.50000   0.68573   0.29072   0.00000  Uiso   1.00
O352   O     0.55799   0.81101   0.37836   0.00000  Uiso   1.00
O353   O     0.50000   0.81428   0.20929   0.00000  Uiso   1.00
O354   O     0.50000   0.68573   0.20928   0.00000  Uiso   1.00
O355   O     0.50000   0.81427   0.29072   0.00000  Uiso   1.00
O356   O     0.42495   0.75000   0.28132   0.00000  Uiso   1.00
O357   O     0.57505   0.75001   0.21868   0.00000  Uiso   1.00
O358   O     0.42495   0.75000   0.19989   0.00000  Uiso   1.00
O359   O     0.57505   0.75000   0.30012   0.00000  Uiso   1.00
O360   O     0.42402   0.70560   0.11948   0.00000  Uiso   1.00
C361   C     0.83334   0.66500   0.24973   0.00000  Uiso   1.00
C362   C     0.86147   0.78132   0.45031   0.00000  Uiso   1.00
C363   C     0.83386   0.74952   0.02740   0.00000  Uiso   1.00
C364   C     0.83367   0.74941   0.47266   0.00000  Uiso   1.00
C365   C     0.73455   0.74989   0.23750   0.00000  Uiso   1.00
C366   C     0.93211   0.74988   0.26249   0.00000  Uiso   1.00
C367   C     0.67921   0.74979   0.23065   0.00000  Uiso   1.00
C368   C     0.98745   0.74967   0.26931   0.00000  Uiso   1.00
C369   C     0.81008   0.54829   0.28490   0.00000  Uiso   1.00
C370   C     0.81985   0.95172   0.20556   0.00000  Uiso   1.00
C371   C     0.81150   0.59412   0.28532   0.00000  Uiso   1.00
C372   C     0.83325   0.83513   0.25023   0.00000  Uiso   1.00
C373   C     0.82104   0.90588   0.20618   0.00000  Uiso   1.00
C374   C     0.83257   0.61682   0.24900   0.00000  Uiso   1.00
C375   C     0.83237   0.88353   0.25039   0.00000  Uiso   1.00
C376   C     0.85242   0.59310   0.21217   0.00000  Uiso   1.00
C377   C     0.84254   0.90796   0.29410   0.00000  Uiso   1.00
C378   C     0.85155   0.54722   0.21221   0.00000  Uiso   1.00
C379   C     0.84198   0.95378   0.29326   0.00000  Uiso   1.00
C380   C     0.83042   0.52449   0.24854   0.00000  Uiso   1.00
C381   C     0.83055   0.97601   0.24909   0.00000  Uiso   1.00
C382   C     0.75568   0.65991   0.10792   0.00000  Uiso   1.00
C383   C     0.87318   0.77077   0.05974   0.00000  Uiso   1.00
C384   C     0.70181   0.64728   0.08324   0.00000  Uiso   1.00
C385   C     0.94450   0.80629   0.39531   0.00000  Uiso   1.00
C386   C     0.97515   0.83674   0.36667   0.00000  Uiso   1.00
C387   C     0.80581   0.71759   0.44169   0.00000  Uiso   1.00
C388   C     0.87165   0.77132   0.11014   0.00000  Uiso   1.00
C389   C     0.80539   0.71899   0.39104   0.00000  Uiso   1.00
C390   C     0.79603   0.72704   0.09946   0.00000  Uiso   1.00
C391   C     0.86304   0.77994   0.39964   0.00000  Uiso   1.00
C392   C     0.79457   0.72829   0.04840   0.00000  Uiso   1.00
Cu393  Cu    0.83333   0.75000   0.29822   0.00000  Uiso   1.00
Cu394  Cu    0.83333   0.75001   0.20179   0.00000  Uiso   1.00
F395   F     0.87398   0.61411   0.17699   0.00000  Uiso   1.00
F396   F     0.85368   0.88793   0.33769   0.00000  Uiso   1.00
H397   H     0.99239   0.74988   0.19362   0.00000  Uiso   1.00
H398   H     0.78455   0.69129   0.45601   0.00000  Uiso   1.00
H399   H     0.90170   0.78856   0.13399   0.00000  Uiso   1.00
H400   H     0.78302   0.69474   0.36802   0.00000  Uiso   1.00
H401   H     0.76227   0.71285   0.02580   0.00000  Uiso   1.00
H402   H     0.88143   0.80790   0.47152   0.00000  Uiso   1.00
H403   H     0.76353   0.64134   0.14239   0.00000  Uiso   1.00
H404   H     0.78464   0.64873   0.08464   0.00000  Uiso   1.00
H405   H     0.69266   0.66503   0.04836   0.00000  Uiso   1.00
H406   H     0.69973   0.61120   0.07575   0.00000  Uiso   1.00
H407   H     0.67280   0.65594   0.10724   0.00000  Uiso   1.00
H408   H     0.67428   0.74954   0.30634   0.00000  Uiso   1.00
H409   H     0.95724   0.77175   0.39018   0.00000  Uiso   1.00
H410   H     0.95366   0.81578   0.43436   0.00000  Uiso   1.00
H411   H     0.96540   0.87166   0.37338   0.00000  Uiso   1.00
H412   H     0.68380   0.83203   0.37817   0.00000  Uiso   1.00
H413   H     0.96594   0.82942   0.32715   0.00000  Uiso   1.00
H414   H     0.79275   0.53149   0.31284   0.00000  Uiso   1.00
H415   H     0.81012   0.96814   0.17107   0.00000  Uiso   1.00
H416   H     0.79549   0.61183   0.31370   0.00000  Uiso   1.00
H417   H     0.81255   0.88797   0.17201   0.00000  Uiso   1.00
H418   H     0.86833   0.52951   0.18434   0.00000  Uiso   1.00
H419   H     0.85123   0.97189   0.32723   0.00000  Uiso   1.00
H420   H     0.90551   0.78677   0.04673   0.00000  Uiso   1.00
N421   N     0.83333   0.75001   0.12935   0.00000  Uiso   1.00
N422   N     0.83333   0.74999   0.37066   0.00000  Uiso   1.00
O423   O     0.83334   0.68573   0.29072   0.00000  Uiso   1.00
O424   O     0.89133   0.81101   0.37836   0.00000  Uiso   1.00
O425   O     0.83333   0.81428   0.20929   0.00000  Uiso   1.00
O426   O     0.83334   0.68573   0.20928   0.00000  Uiso   1.00
O427   O     0.83333   0.81427   0.29072   0.00000  Uiso   1.00
O428   O     0.75828   0.75000   0.28132   0.00000  Uiso   1.00
O429   O     0.90839   0.75001   0.21868   0.00000  Uiso   1.00
O430   O     0.75828   0.75000   0.19989   0.00000  Uiso   1.00
O431   O     0.90839   0.75000   0.30012   0.00000  Uiso   1.00
O432   O     0.75736   0.70560   0.11948   0.00000  Uiso   1.00
C433   C     0.16667   0.16500   0.74973   0.00000  Uiso   1.00
C434   C     0.19480   0.28132   0.95031   0.00000  Uiso   1.00
C435   C     0.16719   0.24952   0.52740   0.00000  Uiso   1.00
C436   C     0.16701   0.24941   0.97266   0.00000  Uiso   1.00
C437   C     0.06789   0.24989   0.73750   0.00000  Uiso   1.00
C438   C     0.26544   0.24988   0.76249   0.00000  Uiso   1.00
C439   C     0.01254   0.24979   0.73065   0.00000  Uiso   1.00
C440   C     0.32079   0.24967   0.76931   0.00000  Uiso   1.00
C441   C     0.14341   0.04829   0.78490   0.00000  Uiso   1.00
C442   C     0.15318   0.45172   0.70556   0.00000  Uiso   1.00
C443   C     0.14483   0.09412   0.78532   0.00000  Uiso   1.00
C444   C     0.16658   0.33513   0.75023   0.00000  Uiso   1.00
C445   C     0.15437   0.40588   0.70618   0.00000  Uiso   1.00
C446   C     0.16590   0.11682   0.74900   0.00000  Uiso   1.00
C447   C     0.16571   0.38353   0.75039   0.00000  Uiso   1.00
C448   C     0.18575   0.09310   0.71217   0.00000  Uiso   1.00
C449   C     0.17587   0.40796   0.79410   0.00000  Uiso   1.00
C450   C     0.18489   0.04722   0.71221   0.00000  Uiso   1.00
C451   C     0.17531   0.45378   0.79326   0.00000  Uiso   1.00
C452   C     0.16375   0.02449   0.74854   0.00000  Uiso   1.00
C453   C     0.16388   0.47601   0.74909   0.00000  Uiso   1.00
C454   C     0.08901   0.15991   0.60792   0.00000  Uiso   1.00
C455   C     0.20651   0.27077   0.55974   0.00000  Uiso   1.00
C456   C     0.03514   0.14728   0.58324   0.00000  Uiso   1.00
C457   C     0.27783   0.30629   0.89531   0.00000  Uiso   1.00
C458   C     0.30848   0.33674   0.86667   0.00000  Uiso   1.00
C459   C     0.13915   0.21759   0.94169   0.00000  Uiso   1.00
C460   C     0.20498   0.27132   0.61014   0.00000  Uiso   1.00
C461   C     0.13873   0.21899   0.89104   0.00000  Uiso   1.00
C462   C     0.12936   0.22704   0.59946   0.00000  Uiso   1.00
C463   C     0.19637   0.27994   0.89964   0.00000  Uiso   1.00
C464   C     0.12791   0.22829   0.54840   0.00000  Uiso   1.00
Cu465  Cu    0.16667   0.25000   0.79822   0.00000  Uiso   1.00
Cu466  Cu    0.16667   0.25001   0.70179   0.00000  Uiso   1.00
F467   F     0.20731   0.11411   0.67699   0.00000  Uiso   1.00
F468   F     0.18702   0.38793   0.83769   0.00000  Uiso   1.00
H469   H     0.32572   0.24988   0.69362   0.00000  Uiso   1.00
H470   H     0.11788   0.19129   0.95601   0.00000  Uiso   1.00
H471   H     0.23503   0.28856   0.63399   0.00000  Uiso   1.00
H472   H     0.11635   0.19474   0.86802   0.00000  Uiso   1.00
H473   H     0.09560   0.21285   0.52580   0.00000  Uiso   1.00
H474   H     0.21476   0.30790   0.97152   0.00000  Uiso   1.00
H475   H     0.09686   0.14134   0.64239   0.00000  Uiso   1.00
H476   H     0.11797   0.14873   0.58464   0.00000  Uiso   1.00
H477   H     0.02600   0.16503   0.54836   0.00000  Uiso   1.00
H478   H     0.03306   0.11120   0.57575   0.00000  Uiso   1.00
H479   H     0.00614   0.15594   0.60724   0.00000  Uiso   1.00
H480   H     0.00761   0.24954   0.80634   0.00000  Uiso   1.00
H481   H     0.29057   0.27175   0.89018   0.00000  Uiso   1.00
H482   H     0.28699   0.31578   0.93436   0.00000  Uiso   1.00
H483   H     0.29873   0.37166   0.87338   0.00000  Uiso   1.00
H484   H     0.01713   0.33203   0.87817   0.00000  Uiso   1.00
H485   H     0.29927   0.32942   0.82715   0.00000  Uiso   1.00
H486   H     0.12608   0.03149   0.81284   0.00000  Uiso   1.00
H487   H     0.14345   0.46814   0.67107   0.00000  Uiso   1.00
H488   H     0.12882   0.11183   0.81370   0.00000  Uiso   1.00
H489   H     0.14589   0.38797   0.67201   0.00000  Uiso   1.00
H490   H     0.20166   0.02951   0.68434   0.00000  Uiso   1.00
H491   H     0.18456   0.47189   0.82723   0.00000  Uiso   1.00
H492   H     0.23884   0.28677   0.54673   0.00000  Uiso   1.00
N493   N     0.16667   0.25001   0.62935   0.00000  Uiso   1.00
N494   N     0.16667   0.24999   0.87066   0.00000  Uiso   1.00
O495   O     0.16667   0.18573   0.79072   0.00000  Uiso   1.00
O496   O     0.22466   0.31101   0.87836   0.00000  Uiso   1.00
O497   O     0.16666   0.31428   0.70929   0.00000  Uiso   1.00
O498   O     0.16667   0.18573   0.70928   0.00000  Uiso   1.00
O499   O     0.16666   0.31427   0.79072   0.00000  Uiso   1.00
O500   O     0.09161   0.25000   0.78132   0.00000  Uiso   1.00
O501   O     0.24172   0.25001   0.71868   0.00000  Uiso   1.00
O502   O     0.09161   0.25000   0.69989   0.00000  Uiso   1.00
O503   O     0.24172   0.25000   0.80012   0.00000  Uiso   1.00
O504   O     0.09069   0.20560   0.61948   0.00000  Uiso   1.00
C505   C     0.50000   0.16500   0.74973   0.00000  Uiso   1.00
C506   C     0.52814   0.28132   0.95031   0.00000  Uiso   1.00
C507   C     0.50053   0.24952   0.52740   0.00000  Uiso   1.00
C508   C     0.50034   0.24941   0.97266   0.00000  Uiso   1.00
C509   C     0.40122   0.24989   0.73750   0.00000  Uiso   1.00
C510   C     0.59878   0.24988   0.76249   0.00000  Uiso   1.00
C511   C     0.34588   0.24979   0.73065   0.00000  Uiso   1.00
C512   C     0.65412   0.24967   0.76931   0.00000  Uiso   1.00
C513   C     0.47674   0.04829   0.78490   0.00000  Uiso   1.00
C514   C     0.48652   0.45172   0.70556   0.00000  Uiso   1.00
C515   C     0.47816   0.09412   0.78532   0.00000  Uiso   1.00
C516   C     0.49992   0.33513   0.75023   0.00000  Uiso   1.00
C517   C     0.48770   0.40588   0.70618   0.00000  Uiso   1.00
C518   C     0.49923   0.11682   0.74900   0.00000  Uiso   1.00
C519   C     0.49904   0.38353   0.75039   0.00000  Uiso   1.00
C520   C     0.51909   0.09310   0.71217   0.00000  Uiso   1.00
C521   C     0.50921   0.40796   0.79410   0.00000  Uiso   1.00
C522   C     0.51822   0.04722   0.71221   0.00000  Uiso   1.00
C523   C     0.50864   0.45378   0.79326   0.00000  Uiso   1.00
C524   C     0.49708   0.02449   0.74854   0.00000  Uiso   1.00
C525   C     0.49721   0.47601   0.74909   0.00000  Uiso   1.00
C526   C     0.42235   0.15991   0.60792   0.00000  Uiso   1.00
C527   C     0.53985   0.27077   0.55974   0.00000  Uiso   1.00
C528   C     0.36848   0.14728   0.58324   0.00000  Uiso   1.00
C529   C     0.61117   0.30629   0.89531   0.00000  Uiso   1.00
C530   C     0.64182   0.33674   0.86667   0.00000  Uiso   1.00
C531   C     0.47248   0.21759   0.94169   0.00000  Uiso   1.00
C532   C     0.53831   0.27132   0.61014   0.00000  Uiso   1.00
C533   C     0.47206   0.21899   0.89104   0.00000  Uiso   1.00
C534   C     0.46269   0.22704   0.59946   0.00000  Uiso   1.00
C535   C     0.52971   0.27994   0.89964   0.00000  Uiso   1.00
C536   C     0.46124   0.22829   0.54840   0.00000  Uiso   1.00
Cu537  Cu    0.50000   0.25000   0.79822   0.00000  Uiso   1.00
Cu538  Cu    0.50000   0.25001   0.70179   0.00000  Uiso   1.00
F539   F     0.54065   0.11411   0.67699   0.00000  Uiso   1.00
F540   F     0.52035   0.38793   0.83769   0.00000  Uiso   1.00
H541   H     0.65906   0.24988   0.69362   0.00000  Uiso   1.00
H542   H     0.45121   0.19129   0.95601   0.00000  Uiso   1.00
H543   H     0.56836   0.28856   0.63399   0.00000  Uiso   1.00
H544   H     0.44968   0.19474   0.86802   0.00000  Uiso   1.00
H545   H     0.42893   0.21285   0.52580   0.00000  Uiso   1.00
H546   H     0.54809   0.30790   0.97152   0.00000  Uiso   1.00
H547   H     0.43019   0.14134   0.64239   0.00000  Uiso   1.00
H548   H     0.45131   0.14873   0.58464   0.00000  Uiso   1.00
H549   H     0.35933   0.16503   0.54836   0.00000  Uiso   1.00
H550   H     0.36639   0.11120   0.57575   0.00000  Uiso   1.00
H551   H     0.33947   0.15594   0.60724   0.00000  Uiso   1.00
H552   H     0.34095   0.24954   0.80634   0.00000  Uiso   1.00
H553   H     0.62391   0.27175   0.89018   0.00000  Uiso   1.00
H554   H     0.62033   0.31578   0.93436   0.00000  Uiso   1.00
H555   H     0.63207   0.37166   0.87338   0.00000  Uiso   1.00
H556   H     0.35046   0.33203   0.87817   0.00000  Uiso   1.00
H557   H     0.63261   0.32942   0.82715   0.00000  Uiso   1.00
H558   H     0.45941   0.03149   0.81284   0.00000  Uiso   1.00
H559   H     0.47679   0.46814   0.67107   0.00000  Uiso   1.00
H560   H     0.46215   0.11183   0.81370   0.00000  Uiso   1.00
H561   H     0.47922   0.38797   0.67201   0.00000  Uiso   1.00
H562   H     0.53500   0.02951   0.68434   0.00000  Uiso   1.00
H563   H     0.51790   0.47189   0.82723   0.00000  Uiso   1.00
H564   H     0.57218   0.28677   0.54673   0.00000  Uiso   1.00
N565   N     0.50000   0.25001   0.62935   0.00000  Uiso   1.00
N566   N     0.50000   0.24999   0.87066   0.00000  Uiso   1.00
O567   O     0.50000   0.18573   0.79072   0.00000  Uiso   1.00
O568   O     0.55799   0.31101   0.87836   0.00000  Uiso   1.00
O569   O     0.50000   0.31428   0.70929   0.00000  Uiso   1.00
O570   O     0.50000   0.18573   0.70928   0.00000  Uiso   1.00
O571   O     0.50000   0.31427   0.79072   0.00000  Uiso   1.00
O572   O     0.42495   0.25000   0.78132   0.00000  Uiso   1.00
O573   O     0.57505   0.25001   0.71868   0.00000  Uiso   1.00
O574   O     0.42495   0.25000   0.69989   0.00000  Uiso   1.00
O575   O     0.57505   0.25000   0.80012   0.00000  Uiso   1.00
O576   O     0.42402   0.20560   0.61948   0.00000  Uiso   1.00
C577   C     0.83334   0.16500   0.74973   0.00000  Uiso   1.00
C578   C     0.86147   0.28132   0.95031   0.00000  Uiso   1.00
C579   C     0.83386   0.24952   0.52740   0.00000  Uiso   1.00
C580   C     0.83367   0.24941   0.97266   0.00000  Uiso   1.00
C581   C     0.73455   0.24989   0.73750   0.00000  Uiso   1.00
C582   C     0.93211   0.24988   0.76249   0.00000  Uiso   1.00
C583   C     0.67921   0.24979   0.73065   0.00000  Uiso   1.00
C584   C     0.98745   0.24967   0.76931   0.00000  Uiso   1.00
C585   C     0.81008   0.04829   0.78490   0.00000  Uiso   1.00
C586   C     0.81985   0.45172   0.70556   0.00000  Uiso   1.00
C587   C     0.81150   0.09412   0.78532   0.00000  Uiso   1.00
C588   C     0.83325   0.33513   0.75023   0.00000  Uiso   1.00
C589   C     0.82104   0.40588   0.70618   0.00000  Uiso   1.00
C590   C     0.83257   0.11682   0.74900   0.00000  Uiso   1.00
C591   C     0.83237   0.38353   0.75039   0.00000  Uiso   1.00
C592   C     0.85242   0.09310   0.71217   0.00000  Uiso   1.00
C593   C     0.84254   0.40796   0.79410   0.00000  Uiso   1.00
C594   C     0.85155   0.04722   0.71221   0.00000  Uiso   1.00
C595   C     0.84198   0.45378   0.79326   0.00000  Uiso   1.00
C596   C     0.83042   0.02449   0.74854   0.00000  Uiso   1.00
C597   C     0.83055   0.47601   0.74909   0.00000  Uiso   1.00
C598   C     0.75568   0.15991   0.60792   0.00000  Uiso   1.00
C599   C     0.87318   0.27077   0.55974   0.00000  Uiso   1.00
C600   C     0.70181   0.14728   0.58324   0.00000  Uiso   1.00
C601   C     0.94450   0.30629   0.89531   0.00000  Uiso   1.00
C602   C     0.97515   0.33674   0.86667   0.00000  Uiso   1.00
C603   C     0.80581   0.21759   0.94169   0.00000  Uiso   1.00
C604   C     0.87165   0.27132   0.61014   0.00000  Uiso   1.00
C605   C     0.80539   0.21899   0.89104   0.00000  Uiso   1.00
C606   C     0.79603   0.22704   0.59946   0.00000  Uiso   1.00
C607   C     0.86304   0.27994   0.89964   0.00000  Uiso   1.00
C608   C     0.79457   0.22829   0.54840   0.00000  Uiso   1.00
Cu609  Cu    0.83333   0.25000   0.79822   0.00000  Uiso   1.00
Cu610  Cu    0.83333   0.25001   0.70179   0.00000  Uiso   1.00
F611   F     0.87398   0.11411   0.67699   0.00000  Uiso   1.00
F612   F     0.85368   0.38793   0.83769   0.00000  Uiso   1.00
H613   H     0.99239   0.24988   0.69362   0.00000  Uiso   1.00
H614   H     0.78455   0.19129   0.95601   0.00000  Uiso   1.00
H615   H     0.90170   0.28856   0.63399   0.00000  Uiso   1.00
H616   H     0.78302   0.19474   0.86802   0.00000  Uiso   1.00
H617   H     0.76227   0.21285   0.52580   0.00000  Uiso   1.00
H618   H     0.88143   0.30790   0.97152   0.00000  Uiso   1.00
H619   H     0.76353   0.14134   0.64239   0.00000  Uiso   1.00
H620   H     0.78464   0.14873   0.58464   0.00000  Uiso   1.00
H621   H     0.69266   0.16503   0.54836   0.00000  Uiso   1.00
H622   H     0.69973   0.11120   0.57575   0.00000  Uiso   1.00
H623   H     0.67280   0.15594   0.60724   0.00000  Uiso   1.00
H624   H     0.67428   0.24954   0.80634   0.00000  Uiso   1.00
H625   H     0.95724   0.27175   0.89018   0.00000  Uiso   1.00
H626   H     0.95366   0.31578   0.93436   0.00000  Uiso   1.00
H627   H     0.96540   0.37166   0.87338   0.00000  Uiso   1.00
H628   H     0.68380   0.33203   0.87817   0.00000  Uiso   1.00
H629   H     0.96594   0.32942   0.82715   0.00000  Uiso   1.00
H630   H     0.79275   0.03149   0.81284   0.00000  Uiso   1.00
H631   H     0.81012   0.46814   0.67107   0.00000  Uiso   1.00
H632   H     0.79549   0.11183   0.81370   0.00000  Uiso   1.00
H633   H     0.81255   0.38797   0.67201   0.00000  Uiso   1.00
H634   H     0.86833   0.02951   0.68434   0.00000  Uiso   1.00
H635   H     0.85123   0.47189   0.82723   0.00000  Uiso   1.00
H636   H     0.90551   0.28677   0.54673   0.00000  Uiso   1.00
N637   N     0.83333   0.25001   0.62935   0.00000  Uiso   1.00
N638   N     0.83333   0.24999   0.87066   0.00000  Uiso   1.00
O639   O     0.83334   0.18573   0.79072   0.00000  Uiso   1.00
O640   O     0.89133   0.31101   0.87836   0.00000  Uiso   1.00
O641   O     0.83333   0.31428   0.70929   0.00000  Uiso   1.00
O642   O     0.83334   0.18573   0.70928   0.00000  Uiso   1.00
O643   O     0.83333   0.31427   0.79072   0.00000  Uiso   1.00
O644   O     0.75828   0.25000   0.78132   0.00000  Uiso   1.00
O645   O     0.90839   0.25001   0.71868   0.00000  Uiso   1.00
O646   O     0.75828   0.25000   0.69989   0.00000  Uiso   1.00
O647   O     0.90839   0.25000   0.80012   0.00000  Uiso   1.00
O648   O     0.75736   0.20560   0.61948   0.00000  Uiso   1.00
C649   C     0.16667   0.66500   0.74973   0.00000  Uiso   1.00
C650   C     0.19480   0.78132   0.95031   0.00000  Uiso   1.00
C651   C     0.16719   0.74952   0.52740   0.00000  Uiso   1.00
C652   C     0.16701   0.74941   0.97266   0.00000  Uiso   1.00
C653   C     0.06789   0.74989   0.73750   0.00000  Uiso   1.00
C654   C     0.26544   0.74988   0.76249   0.00000  Uiso   1.00
C655   C     0.01254   0.74979   0.73065   0.00000  Uiso   1.00
C656   C     0.32079   0.74967   0.76931   0.00000  Uiso   1.00
C657   C     0.14341   0.54829   0.78490   0.00000  Uiso   1.00
C658   C     0.15318   0.95172   0.70556   0.00000  Uiso   1.00
C659   C     0.14483   0.59412   0.78532   0.00000  Uiso   1.00
C660   C     0.16658   0.83513   0.75023   0.00000  Uiso   1.00
C661   C     0.15437   0.90588   0.70618   0.00000  Uiso   1.00
C662   C     0.16590   0.61682   0.74900   0.00000  Uiso   1.00
C663   C     0.16571   0.88353   0.75039   0.00000  Uiso   1.00
C664   C     0.18575   0.59310   0.71217   0.00000  Uiso   1.00
C665   C     0.17587   0.90796   0.79410   0.00000  Uiso   1.00
C666   C     0.18489   0.54722   0.71221   0.00000  Uiso   1.00
C667   C     0.17531   0.95378   0.79326   0.00000  Uiso   1.00
C668   C     0.16375   0.52449   0.74854   0.00000  Uiso   1.00
C669   C     0.16388   0.97601   0.74909   0.00000  Uiso   1.00
C670   C     0.08901   0.65991   0.60792   0.00000  Uiso   1.00
C671   C     0.20651   0.77077   0.55974   0.00000  Uiso   1.00
C672   C     0.03514   0.64728   0.58324   0.00000  Uiso   1.00
C673   C     0.27783   0.80629   0.89531   0.00000  Uiso   1.00
C674   C     0.30848   0.83674   0.86667   0.00000  Uiso   1.00
C675   C     0.13915   0.71759   0.94169   0.00000  Uiso   1.00
C676   C     0.20498   0.77132   0.61014   0.00000  Uiso   1.00
C677   C     0.13873   0.71899   0.89104   0.00000  Uiso   1.00
C678   C     0.12936   0.72704   0.59946   0.00000  Uiso   1.00
C679   C     0.19637   0.77994   0.89964   0.00000  Uiso   1.00
C680   C     0.12791   0.72829   0.54840   0.00000  Uiso   1.00
Cu681  Cu    0.16667   0.75000   0.79822   0.00000  Uiso   1.00
Cu682  Cu    0.16667   0.75001   0.70179   0.00000  Uiso   1.00
F683   F     0.20731   0.61411   0.67699   0.00000  Uiso   1.00
F684   F     0.18702   0.88793   0.83769   0.00000  Uiso   1.00
H685   H     0.32572   0.74988   0.69362   0.00000  Uiso   1.00
H686   H     0.11788   0.69129   0.95601   0.00000  Uiso   1.00
H687   H     0.23503   0.78856   0.63399   0.00000  Uiso   1.00
H688   H     0.11635   0.69474   0.86802   0.00000  Uiso   1.00
H689   H     0.09560   0.71285   0.52580   0.00000  Uiso   1.00
H690   H     0.21476   0.80790   0.97152   0.00000  Uiso   1.00
H691   H     0.09686   0.64134   0.64239   0.00000  Uiso   1.00
H692   H     0.11797   0.64873   0.58464   0.00000  Uiso   1.00
H693   H     0.02600   0.66503   0.54836   0.00000  Uiso   1.00
H694   H     0.03306   0.61120   0.57575   0.00000  Uiso   1.00
H695   H     0.00614   0.65594   0.60724   0.00000  Uiso   1.00
H696   H     0.00761   0.74954   0.80634   0.00000  Uiso   1.00
H697   H     0.29057   0.77175   0.89018   0.00000  Uiso   1.00
H698   H     0.28699   0.81578   0.93436   0.00000  Uiso   1.00
H699   H     0.29873   0.87166   0.87338   0.00000  Uiso   1.00
H700   H     0.01713   0.83203   0.87817   0.00000  Uiso   1.00
H701   H     0.29927   0.82942   0.82715   0.00000  Uiso   1.00
H702   H     0.12608   0.53149   0.81284   0.00000  Uiso   1.00
H703   H     0.14345   0.96814   0.67107   0.00000  Uiso   1.00
H704   H     0.12882   0.61183   0.81370   0.00000  Uiso   1.00
H705   H     0.14589   0.88797   0.67201   0.00000  Uiso   1.00
H706   H     0.20166   0.52951   0.68434   0.00000  Uiso   1.00
H707   H     0.18456   0.97189   0.82723   0.00000  Uiso   1.00
H708   H     0.23884   0.78677   0.54673   0.00000  Uiso   1.00
N709   N     0.16667   0.75001   0.62935   0.00000  Uiso   1.00
N710   N     0.16667   0.74999   0.87066   0.00000  Uiso   1.00
O711   O     0.16667   0.68573   0.79072   0.00000  Uiso   1.00
O712   O     0.22466   0.81101   0.87836   0.00000  Uiso   1.00
O713   O     0.16666   0.81428   0.70929   0.00000  Uiso   1.00
O714   O     0.16667   0.68573   0.70928   0.00000  Uiso   1.00
O715   O     0.16666   0.81427   0.79072   0.00000  Uiso   1.00
O716   O     0.09161   0.75000   0.78132   0.00000  Uiso   1.00
O717   O     0.24172   0.75001   0.71868   0.00000  Uiso   1.00
O718   O     0.09161   0.75000   0.69989   0.00000  Uiso   1.00
O719   O     0.24172   0.75000   0.80012   0.00000  Uiso   1.00
O720   O     0.09069   0.70560   0.61948   0.00000  Uiso   1.00
C721   C     0.50000   0.66500   0.74973   0.00000  Uiso   1.00
C722   C     0.52814   0.78132   0.95031   0.00000  Uiso   1.00
C723   C     0.50053   0.74952   0.52740   0.00000  Uiso   1.00
C724   C     0.50034   0.74941   0.97266   0.00000  Uiso   1.00
C725   C     0.40122   0.74989   0.73750   0.00000  Uiso   1.00
C726   C     0.59878   0.74988   0.76249   0.00000  Uiso   1.00
C727   C     0.34588   0.74979   0.73065   0.00000  Uiso   1.00
C728   C     0.65412   0.74967   0.76931   0.00000  Uiso   1.00
C729   C     0.47674   0.54829   0.78490   0.00000  Uiso   1.00
C730   C     0.48652   0.95172   0.70556   0.00000  Uiso   1.00
C731   C     0.47816   0.59412   0.78532   0.00000  Uiso   1.00
C732   C     0.49992   0.83513   0.75023   0.00000  Uiso   1.00
C733   C     0.48770   0.90588   0.70618   0.00000  Uiso   1.00
C734   C     0.49923   0.61682   0.74900   0.00000  Uiso   1.00
C735   C     0.49904   0.88353   0.75039   0.00000  Uiso   1.00
C736   C     0.51909   0.59310   0.71217   0.00000  Uiso   1.00
C737   C     0.50921   0.90796   0.79410   0.00000  Uiso   1.00
C738   C     0.51822   0.54722   0.71221   0.00000  Uiso   1.00
C739   C     0.50864   0.95378   0.79326   0.00000  Uiso   1.00
C740   C     0.49708   0.52449   0.74854   0.00000  Uiso   1.00
C741   C     0.49721   0.97601   0.74909   0.00000  Uiso   1.00
C742   C     0.42235   0.65991   0.60792   0.00000  Uiso   1.00
C743   C     0.53985   0.77077   0.55974   0.00000  Uiso   1.00
C744   C     0.36848   0.64728   0.58324   0.00000  Uiso   1.00
C745   C     0.61117   0.80629   0.89531   0.00000  Uiso   1.00
C746   C     0.64182   0.83674   0.86667   0.00000  Uiso   1.00
C747   C     0.47248   0.71759   0.94169   0.00000  Uiso   1.00
C748   C     0.53831   0.77132   0.61014   0.00000  Uiso   1.00
C749   C     0.47206   0.71899   0.89104   0.00000  Uiso   1.00
C750   C     0.46269   0.72704   0.59946   0.00000  Uiso   1.00
C751   C     0.52971   0.77994   0.89964   0.00000  Uiso   1.00
C752   C     0.46124   0.72829   0.54840   0.00000  Uiso   1.00
Cu753  Cu    0.50000   0.75000   0.79822   0.00000  Uiso   1.00
Cu754  Cu    0.50000   0.75001   0.70179   0.00000  Uiso   1.00
F755   F     0.54065   0.61411   0.67699   0.00000  Uiso   1.00
F756   F     0.52035   0.88793   0.83769   0.00000  Uiso   1.00
H757   H     0.65906   0.74988   0.69362   0.00000  Uiso   1.00
H758   H     0.45121   0.69129   0.95601   0.00000  Uiso   1.00
H759   H     0.56836   0.78856   0.63399   0.00000  Uiso   1.00
H760   H     0.44968   0.69474   0.86802   0.00000  Uiso   1.00
H761   H     0.42893   0.71285   0.52580   0.00000  Uiso   1.00
H762   H     0.54809   0.80790   0.97152   0.00000  Uiso   1.00
H763   H     0.43019   0.64134   0.64239   0.00000  Uiso   1.00
H764   H     0.45131   0.64873   0.58464   0.00000  Uiso   1.00
H765   H     0.35933   0.66503   0.54836   0.00000  Uiso   1.00
H766   H     0.36639   0.61120   0.57575   0.00000  Uiso   1.00
H767   H     0.33947   0.65594   0.60724   0.00000  Uiso   1.00
H768   H     0.34095   0.74954   0.80634   0.00000  Uiso   1.00
H769   H     0.62391   0.77175   0.89018   0.00000  Uiso   1.00
H770   H     0.62033   0.81578   0.93436   0.00000  Uiso   1.00
H771   H     0.63207   0.87166   0.87338   0.00000  Uiso   1.00
H772   H     0.35046   0.83203   0.87817   0.00000  Uiso   1.00
H773   H     0.63261   0.82942   0.82715   0.00000  Uiso   1.00
H774   H     0.45941   0.53149   0.81284   0.00000  Uiso   1.00
H775   H     0.47679   0.96814   0.67107   0.00000  Uiso   1.00
H776   H     0.46215   0.61183   0.81370   0.00000  Uiso   1.00
H777   H     0.47922   0.88797   0.67201   0.00000  Uiso   1.00
H778   H     0.53500   0.52951   0.68434   0.00000  Uiso   1.00
H779   H     0.51790   0.97189   0.82723   0.00000  Uiso   1.00
H780   H     0.57218   0.78677   0.54673   0.00000  Uiso   1.00
N781   N     0.50000   0.75001   0.62935   0.00000  Uiso   1.00
N782   N     0.50000   0.74999   0.87066   0.00000  Uiso   1.00
O783   O     0.50000   0.68573   0.79072   0.00000  Uiso   1.00
O784   O     0.55799   0.81101   0.87836   0.00000  Uiso   1.00
O785   O     0.50000   0.81428   0.70929   0.00000  Uiso   1.00
O786   O     0.50000   0.68573   0.70928   0.00000  Uiso   1.00
O787   O     0.50000   0.81427   0.79072   0.00000  Uiso   1.00
O788   O     0.42495   0.75000   0.78132   0.00000  Uiso   1.00
O789   O     0.57505   0.75001   0.71868   0.00000  Uiso   1.00
O790   O     0.42495   0.75000   0.69989   0.00000  Uiso   1.00
O791   O     0.57505   0.75000   0.80012   0.00000  Uiso   1.00
O792   O     0.42402   0.70560   0.61948   0.00000  Uiso   1.00
C793   C     0.83334   0.66500   0.74973   0.00000  Uiso   1.00
C794   C     0.86147   0.78132   0.95031   0.00000  Uiso   1.00
C795   C     0.83386   0.74952   0.52740   0.00000  Uiso   1.00
C796   C     0.83367   0.74941   0.97266   0.00000  Uiso   1.00
C797   C     0.73455   0.74989   0.73750   0.00000  Uiso   1.00
C798   C     0.93211   0.74988   0.76249   0.00000  Uiso   1.00
C799   C     0.67921   0.74979   0.73065   0.00000  Uiso   1.00
C800   C     0.98745   0.74967   0.76931   0.00000  Uiso   1.00
C801   C     0.81008   0.54829   0.78490   0.00000  Uiso   1.00
C802   C     0.81985   0.95172   0.70556   0.00000  Uiso   1.00
C803   C     0.81150   0.59412   0.78532   0.00000  Uiso   1.00
C804   C     0.83325   0.83513   0.75023   0.00000  Uiso   1.00
C805   C     0.82104   0.90588   0.70618   0.00000  Uiso   1.00
C806   C     0.83257   0.61682   0.74900   0.00000  Uiso   1.00
C807   C     0.83237   0.88353   0.75039   0.00000  Uiso   1.00
C808   C     0.85242   0.59310   0.71217   0.00000  Uiso   1.00
C809   C     0.84254   0.90796   0.79410   0.00000  Uiso   1.00
C810   C     0.85155   0.54722   0.71221   0.00000  Uiso   1.00
C811   C     0.84198   0.95378   0.79326   0.00000  Uiso   1.00
C812   C     0.83042   0.52449   0.74854   0.00000  Uiso   1.00
C813   C     0.83055   0.97601   0.74909   0.00000  Uiso   1.00
C814   C     0.75568   0.65991   0.60792   0.00000  Uiso   1.00
C815   C     0.87318   0.77077   0.55974   0.00000  Uiso   1.00
C816   C     0.70181   0.64728   0.58324   0.00000  Uiso   1.00
C817   C     0.94450   0.80629   0.89531   0.00000  Uiso   1.00
C818   C     0.97515   0.83674   0.86667   0.00000  Uiso   1.00
C819   C     0.80581   0.71759   0.94169   0.00000  Uiso   1.00
C820   C     0.87165   0.77132   0.61014   0.00000  Uiso   1.00
C821   C     0.80539   0.71899   0.89104   0.00000  Uiso   1.00
C822   C     0.79603   0.72704   0.59946   0.00000  Uiso   1.00
C823   C     0.86304   0.77994   0.89964   0.00000  Uiso   1.00
C824   C     0.79457   0.72829   0.54840   0.00000  Uiso   1.00
Cu825  Cu    0.83333   0.75000   0.79822   0.00000  Uiso   1.00
Cu826  Cu    0.83333   0.75001   0.70179   0.00000  Uiso   1.00
F827   F     0.87398   0.61411   0.67699   0.00000  Uiso   1.00
F828   F     0.85368   0.88793   0.83769   0.00000  Uiso   1.00
H829   H     0.99239   0.74988   0.69362   0.00000  Uiso   1.00
H830   H     0.78455   0.69129   0.95601   0.00000  Uiso   1.00
H831   H     0.90170   0.78856   0.63399   0.00000  Uiso   1.00
H832   H     0.78302   0.69474   0.86802   0.00000  Uiso   1.00
H833   H     0.76227   0.71285   0.52580   0.00000  Uiso   1.00
H834   H     0.88143   0.80790   0.97152   0.00000  Uiso   1.00
H835   H     0.76353   0.64134   0.64239   0.00000  Uiso   1.00
H836   H     0.78464   0.64873   0.58464   0.00000  Uiso   1.00
H837   H     0.69266   0.66503   0.54836   0.00000  Uiso   1.00
H838   H     0.69973   0.61120   0.57575   0.00000  Uiso   1.00
H839   H     0.67280   0.65594   0.60724   0.00000  Uiso   1.00
H840   H     0.67428   0.74954   0.80634   0.00000  Uiso   1.00
H841   H     0.95724   0.77175   0.89018   0.00000  Uiso   1.00
H842   H     0.95366   0.81578   0.93436   0.00000  Uiso   1.00
H843   H     0.96540   0.87166   0.87338   0.00000  Uiso   1.00
H844   H     0.68380   0.83203   0.87817   0.00000  Uiso   1.00
H845   H     0.96594   0.82942   0.82715   0.00000  Uiso   1.00
H846   H     0.79275   0.53149   0.81284   0.00000  Uiso   1.00
H847   H     0.81012   0.96814   0.67107   0.00000  Uiso   1.00
H848   H     0.79549   0.61183   0.81370   0.00000  Uiso   1.00
H849   H     0.81255   0.88797   0.67201   0.00000  Uiso   1.00
H850   H     0.86833   0.52951   0.68434   0.00000  Uiso   1.00
H851   H     0.85123   0.97189   0.82723   0.00000  Uiso   1.00
H852   H     0.90551   0.78677   0.54673   0.00000  Uiso   1.00
N853   N     0.83333   0.75001   0.62935   0.00000  Uiso   1.00
N854   N     0.83333   0.74999   0.87066   0.00000  Uiso   1.00
O855   O     0.83334   0.68573   0.79072   0.00000  Uiso   1.00
O856   O     0.89133   0.81101   0.87836   0.00000  Uiso   1.00
O857   O     0.83333   0.81428   0.70929   0.00000  Uiso   1.00
O858   O     0.83334   0.68573   0.70928   0.00000  Uiso   1.00
O859   O     0.83333   0.81427   0.79072   0.00000  Uiso   1.00
O860   O     0.75828   0.75000   0.78132   0.00000  Uiso   1.00
O861   O     0.90839   0.75001   0.71868   0.00000  Uiso   1.00
O862   O     0.75828   0.75000   0.69989   0.00000  Uiso   1.00
O863   O     0.90839   0.75000   0.80012   0.00000  Uiso   1.00
O864   O     0.75736   0.70560   0.61948   0.00000  Uiso   1.00
loop_
_geom_bond_atom_site_label_1
_geom_bond_atom_site_label_2
_geom_bond_distance
_geom_bond_site_symmetry_2
_ccdc_geom_bond_type
C1     C14     1.460   .     S
C1     O63     1.295   .     A
C1     O66     1.293   .     A
C2     C4      1.408   .     A
C2     H42     1.080   .     S
C2     C31     1.414   .     A
C3     C32     1.408   .     A
C3     C23     1.413   .     A
C3     C436    1.520   1_554 S
C4     C27     1.413   .     A
C4     C435    1.520   .     S
C5     O70     1.290   .     A
C5     C7      1.434   .     S
C5     O68     1.285   .     A
C6     O69     1.285   .     A
C6     C8      1.434   .     S
C6     O71     1.290   .     A
C7     C152    1.337   1_455 S
C7     H181    1.087   1_455 S
C8     C79     1.337   .     S
C8     H120    1.087   .     S
C9     C20     1.403   .     A
C9     C11     1.389   .     A
C9     H54     1.083   .     S
C10    C13     1.390   .     A
C10    H55     1.083   .     S
C10    C21     1.402   .     A
C11    C14     1.401   .     A
C11    H56     1.083   .     S
C12    O65     1.296   .     A
C12    C15     1.467   .     S
C12    O67     1.296   .     A
C13    C15     1.404   .     A
C13    H57     1.083   .     S
C14    C16     1.406   .     A
C15    C17     1.407   .     A
C16    F35     1.358   .     S
C16    C18     1.391   .     A
C17    F36     1.355   .     S
C17    C19     1.389   .     A
C18    C20     1.403   .     A
C18    H58     1.083   .     S
C19    H59     1.083   .     S
C19    C21     1.402   .     A
C20    C237    1.469   1_545 S
C21    C236    1.469   .     S
C22    H43     1.110   .     S
C22    C24     1.522   .     S
C22    O72     1.417   .     S
C22    H44     1.117   .     S
C23    C28     1.407   .     A
C23    H60     1.080   .     S
C24    H46     1.110   .     S
C24    H45     1.110   .     S
C24    H47     1.111   .     S
C25    H49     1.115   .     S
C25    H50     1.112   .     S
C25    C26     1.522   .     S
C25    O64     1.413   .     S
C26    H51     1.111   .     S
C26    H53     1.110   .     S
C26    H124    1.111   .     S
C27    C29     1.407   .     A
C27    H38     1.080   .     S
C28    N61     1.363   .     A
C28    H39     1.081   .     S
C29    H40     1.082   .     S
C29    N62     1.363   .     A
C30    O72     1.384   .     S
C30    C32     1.415   .     A
C30    N61     1.369   .     A
C31    N62     1.369   .     A
C31    O64     1.382   .     S
C32    H41     1.080   .     S
Cu33   O63     1.957   .     S
Cu33   Cu34    2.679   .     S
Cu33   O67     1.961   .     S
Cu33   O71     1.958   .     S
Cu33   N62     2.013   .     S
Cu33   O68     1.954   .     S
Cu34   O70     1.958   .     S
Cu34   O69     1.954   .     S
Cu34   O66     1.961   .     S
Cu34   O65     1.957   .     S
Cu34   N61     2.013   .     S
H37    C79     1.087   .     S
H48    C152    1.087   1_455 S
H52    C170    1.111   1_455 S
C73    C86     1.460   .     S
C73    O135    1.295   .     A
C73    O138    1.293   .     A
C74    C76     1.408   .     A
C74    H114    1.080   .     S
C74    C103    1.414   .     A
C75    C104    1.408   .     A
C75    C95     1.413   .     A
C75    C508    1.520   1_554 S
C76    C99     1.413   .     A
C76    C507    1.520   .     S
C77    O142    1.290   .     A
C77    C79     1.434   .     S
C77    O140    1.285   .     A
C78    O141    1.285   .     A
C78    C80     1.434   .     S
C78    O143    1.290   .     A
C80    C151    1.337   .     S
C80    H192    1.087   .     S
C81    C92     1.403   .     A
C81    C83     1.389   .     A
C81    H126    1.083   .     S
C82    C85     1.390   .     A
C82    H127    1.083   .     S
C82    C93     1.402   .     A
C83    C86     1.401   .     A
C83    H128    1.083   .     S
C84    O137    1.296   .     A
C84    C87     1.467   .     S
C84    O139    1.296   .     A
C85    C87     1.404   .     A
C85    H129    1.083   .     S
C86    C88     1.406   .     A
C87    C89     1.407   .     A
C88    F107    1.358   .     S
C88    C90     1.391   .     A
C89    F108    1.355   .     S
C89    C91     1.389   .     A
C90    C92     1.403   .     A
C90    H130    1.083   .     S
C91    H131    1.083   .     S
C91    C93     1.402   .     A
C92    C309    1.469   1_545 S
C93    C308    1.469   .     S
C94    H115    1.110   .     S
C94    C96     1.522   .     S
C94    O144    1.417   .     S
C94    H116    1.117   .     S
C95    C100    1.407   .     A
C95    H132    1.080   .     S
C96    H118    1.110   .     S
C96    H117    1.110   .     S
C96    H119    1.111   .     S
C97    H121    1.115   .     S
C97    H122    1.112   .     S
C97    C98     1.522   .     S
C97    O136    1.413   .     S
C98    H123    1.111   .     S
C98    H125    1.110   .     S
C98    H196    1.111   .     S
C99    C101    1.407   .     A
C99    H110    1.080   .     S
C100   N133    1.363   .     A
C100   H111    1.081   .     S
C101   H112    1.082   .     S
C101   N134    1.363   .     A
C102   O144    1.384   .     S
C102   C104    1.415   .     A
C102   N133    1.369   .     A
C103   N134    1.369   .     A
C103   O136    1.382   .     S
C104   H113    1.080   .     S
Cu105  O135    1.957   .     S
Cu105  Cu106   2.679   .     S
Cu105  O139    1.961   .     S
Cu105  O143    1.958   .     S
Cu105  N134    2.013   .     S
Cu105  O140    1.954   .     S
Cu106  O142    1.958   .     S
Cu106  O141    1.954   .     S
Cu106  O138    1.961   .     S
Cu106  O137    1.957   .     S
Cu106  N133    2.013   .     S
H109   C151    1.087   .     S
C145   C158    1.460   .     S
C145   O207    1.295   .     A
C145   O210    1.293   .     A
C146   C148    1.408   .     A
C146   H186    1.080   .     S
C146   C175    1.414   .     A
C147   C176    1.408   .     A
C147   C167    1.413   .     A
C147   C580    1.520   1_554 S
C148   C171    1.413   .     A
C148   C579    1.520   .     S
C149   O214    1.290   .     A
C149   C151    1.434   .     S
C149   O212    1.285   .     A
C150   O213    1.285   .     A
C150   C152    1.434   .     S
C150   O215    1.290   .     A
C152   C7      1.337   1_655 S
C152   H48     1.087   1_655 S
C153   C164    1.403   .     A
C153   C155    1.389   .     A
C153   H198    1.083   .     S
C154   C157    1.390   .     A
C154   H199    1.083   .     S
C154   C165    1.402   .     A
C155   C158    1.401   .     A
C155   H200    1.083   .     S
C156   O209    1.296   .     A
C156   C159    1.467   .     S
C156   O211    1.296   .     A
C157   C159    1.404   .     A
C157   H201    1.083   .     S
C158   C160    1.406   .     A
C159   C161    1.407   .     A
C160   F179    1.358   .     S
C160   C162    1.391   .     A
C161   F180    1.355   .     S
C161   C163    1.389   .     A
C162   C164    1.403   .     A
C162   H202    1.083   .     S
C163   H203    1.083   .     S
C163   C165    1.402   .     A
C164   C381    1.469   1_545 S
C165   C380    1.469   .     S
C166   H187    1.110   .     S
C166   C168    1.522   .     S
C166   O216    1.417   .     S
C166   H188    1.117   .     S
C167   C172    1.407   .     A
C167   H204    1.080   .     S
C168   H190    1.110   .     S
C168   H189    1.110   .     S
C168   H191    1.111   .     S
C169   H193    1.115   .     S
C169   H194    1.112   .     S
C169   C170    1.522   .     S
C169   O208    1.413   .     S
C170   H195    1.111   .     S
C170   H197    1.110   .     S
C170   H52     1.111   1_655 S
C171   C173    1.407   .     A
C171   H182    1.080   .     S
C172   N205    1.363   .     A
C172   H183    1.081   .     S
C173   H184    1.082   .     S
C173   N206    1.363   .     A
C174   O216    1.384   .     S
C174   C176    1.415   .     A
C174   N205    1.369   .     A
C175   N206    1.369   .     A
C175   O208    1.382   .     S
C176   H185    1.080   .     S
Cu177  O207    1.957   .     S
Cu177  Cu178   2.679   .     S
Cu177  O211    1.961   .     S
Cu177  O215    1.958   .     S
Cu177  N206    2.013   .     S
Cu177  O212    1.954   .     S
Cu178  O214    1.958   .     S
Cu178  O213    1.954   .     S
Cu178  O210    1.961   .     S
Cu178  O209    1.957   .     S
Cu178  N205    2.013   .     S
H181   C7      1.087   1_655 S
C217   C230    1.460   .     S
C217   O279    1.295   .     A
C217   O282    1.293   .     A
C218   C220    1.408   .     A
C218   H258    1.080   .     S
C218   C247    1.414   .     A
C219   C248    1.408   .     A
C219   C239    1.413   .     A
C219   C652    1.520   1_554 S
C220   C243    1.413   .     A
C220   C651    1.520   .     S
C221   O286    1.290   .     A
C221   C223    1.434   .     S
C221   O284    1.285   .     A
C222   O285    1.285   .     A
C222   C224    1.434   .     S
C222   O287    1.290   .     A
C223   C368    1.337   1_455 S
C223   H397    1.087   1_455 S
C224   C295    1.337   .     S
C224   H336    1.087   .     S
C225   C236    1.403   .     A
C225   C227    1.389   .     A
C225   H270    1.083   .     S
C226   C229    1.390   .     A
C226   H271    1.083   .     S
C226   C237    1.402   .     A
C227   C230    1.401   .     A
C227   H272    1.083   .     S
C228   O281    1.296   .     A
C228   C231    1.467   .     S
C228   O283    1.296   .     A
C229   C231    1.404   .     A
C229   H273    1.083   .     S
C230   C232    1.406   .     A
C231   C233    1.407   .     A
C232   F251    1.358   .     S
C232   C234    1.391   .     A
C233   F252    1.355   .     S
C233   C235    1.389   .     A
C234   C236    1.403   .     A
C234   H274    1.083   .     S
C235   H275    1.083   .     S
C235   C237    1.402   .     A
C237   C20     1.469   1_565 S
C238   H259    1.110   .     S
C238   C240    1.522   .     S
C238   O288    1.417   .     S
C238   H260    1.117   .     S
C239   C244    1.407   .     A
C239   H276    1.080   .     S
C240   H262    1.110   .     S
C240   H261    1.110   .     S
C240   H263    1.111   .     S
C241   H265    1.115   .     S
C241   H266    1.112   .     S
C241   C242    1.522   .     S
C241   O280    1.413   .     S
C242   H267    1.111   .     S
C242   H269    1.110   .     S
C242   H340    1.111   .     S
C243   C245    1.407   .     A
C243   H254    1.080   .     S
C244   N277    1.363   .     A
C244   H255    1.081   .     S
C245   H256    1.082   .     S
C245   N278    1.363   .     A
C246   O288    1.384   .     S
C246   C248    1.415   .     A
C246   N277    1.369   .     A
C247   N278    1.369   .     A
C247   O280    1.382   .     S
C248   H257    1.080   .     S
Cu249  O279    1.957   .     S
Cu249  Cu250   2.679   .     S
Cu249  O283    1.961   .     S
Cu249  O287    1.958   .     S
Cu249  N278    2.013   .     S
Cu249  O284    1.954   .     S
Cu250  O286    1.958   .     S
Cu250  O285    1.954   .     S
Cu250  O282    1.961   .     S
Cu250  O281    1.957   .     S
Cu250  N277    2.013   .     S
H253   C295    1.087   .     S
H264   C368    1.087   1_455 S
H268   C386    1.111   1_455 S
C289   C302    1.460   .     S
C289   O351    1.295   .     A
C289   O354    1.293   .     A
C290   C292    1.408   .     A
C290   H330    1.080   .     S
C290   C319    1.414   .     A
C291   C320    1.408   .     A
C291   C311    1.413   .     A
C291   C724    1.520   1_554 S
C292   C315    1.413   .     A
C292   C723    1.520   .     S
C293   O358    1.290   .     A
C293   C295    1.434   .     S
C293   O356    1.285   .     A
C294   O357    1.285   .     A
C294   C296    1.434   .     S
C294   O359    1.290   .     A
C296   C367    1.337   .     S
C296   H408    1.087   .     S
C297   C308    1.403   .     A
C297   C299    1.389   .     A
C297   H342    1.083   .     S
C298   C301    1.390   .     A
C298   H343    1.083   .     S
C298   C309    1.402   .     A
C299   C302    1.401   .     A
C299   H344    1.083   .     S
C300   O353    1.296   .     A
C300   C303    1.467   .     S
C300   O355    1.296   .     A
C301   C303    1.404   .     A
C301   H345    1.083   .     S
C302   C304    1.406   .     A
C303   C305    1.407   .     A
C304   F323    1.358   .     S
C304   C306    1.391   .     A
C305   F324    1.355   .     S
C305   C307    1.389   .     A
C306   C308    1.403   .     A
C306   H346    1.083   .     S
C307   H347    1.083   .     S
C307   C309    1.402   .     A
C309   C92     1.469   1_565 S
C310   H331    1.110   .     S
C310   C312    1.522   .     S
C310   O360    1.417   .     S
C310   H332    1.117   .     S
C311   C316    1.407   .     A
C311   H348    1.080   .     S
C312   H334    1.110   .     S
C312   H333    1.110   .     S
C312   H335    1.111   .     S
C313   H337    1.115   .     S
C313   H338    1.112   .     S
C313   C314    1.522   .     S
C313   O352    1.413   .     S
C314   H339    1.111   .     S
C314   H341    1.110   .     S
C314   H412    1.111   .     S
C315   C317    1.407   .     A
C315   H326    1.080   .     S
C316   N349    1.363   .     A
C316   H327    1.081   .     S
C317   H328    1.082   .     S
C317   N350    1.363   .     A
C318   O360    1.384   .     S
C318   C320    1.415   .     A
C318   N349    1.369   .     A
C319   N350    1.369   .     A
C319   O352    1.382   .     S
C320   H329    1.080   .     S
Cu321  O351    1.957   .     S
Cu321  Cu322   2.679   .     S
Cu321  O355    1.961   .     S
Cu321  O359    1.958   .     S
Cu321  N350    2.013   .     S
Cu321  O356    1.954   .     S
Cu322  O358    1.958   .     S
Cu322  O357    1.954   .     S
Cu322  O354    1.961   .     S
Cu322  O353    1.957   .     S
Cu322  N349    2.013   .     S
H325   C367    1.087   .     S
C361   C374    1.460   .     S
C361   O423    1.295   .     A
C361   O426    1.293   .     A
C362   C364    1.408   .     A
C362   H402    1.080   .     S
C362   C391    1.414   .     A
C363   C392    1.408   .     A
C363   C383    1.413   .     A
C363   C796    1.520   1_554 S
C364   C387    1.413   .     A
C364   C795    1.520   .     S
C365   O430    1.290   .     A
C365   C367    1.434   .     S
C365   O428    1.285   .     A
C366   O429    1.285   .     A
C366   C368    1.434   .     S
C366   O431    1.290   .     A
C368   C223    1.337   1_655 S
C368   H264    1.087   1_655 S
C369   C380    1.403   .     A
C369   C371    1.389   .     A
C369   H414    1.083   .     S
C370   C373    1.390   .     A
C370   H415    1.083   .     S
C370   C381    1.402   .     A
C371   C374    1.401   .     A
C371   H416    1.083   .     S
C372   O425    1.296   .     A
C372   C375    1.467   .     S
C372   O427    1.296   .     A
C373   C375    1.404   .     A
C373   H417    1.083   .     S
C374   C376    1.406   .     A
C375   C377    1.407   .     A
C376   F395    1.358   .     S
C376   C378    1.391   .     A
C377   F396    1.355   .     S
C377   C379    1.389   .     A
C378   C380    1.403   .     A
C378   H418    1.083   .     S
C379   H419    1.083   .     S
C379   C381    1.402   .     A
C381   C164    1.469   1_565 S
C382   H403    1.110   .     S
C382   C384    1.522   .     S
C382   O432    1.417   .     S
C382   H404    1.117   .     S
C383   C388    1.407   .     A
C383   H420    1.080   .     S
C384   H406    1.110   .     S
C384   H405    1.110   .     S
C384   H407    1.111   .     S
C385   H409    1.115   .     S
C385   H410    1.112   .     S
C385   C386    1.522   .     S
C385   O424    1.413   .     S
C386   H411    1.111   .     S
C386   H413    1.110   .     S
C386   H268    1.111   1_655 S
C387   C389    1.407   .     A
C387   H398    1.080   .     S
C388   N421    1.363   .     A
C388   H399    1.081   .     S
C389   H400    1.082   .     S
C389   N422    1.363   .     A
C390   O432    1.384   .     S
C390   C392    1.415   .     A
C390   N421    1.369   .     A
C391   N422    1.369   .     A
C391   O424    1.382   .     S
C392   H401    1.080   .     S
Cu393  O423    1.957   .     S
Cu393  Cu394   2.679   .     S
Cu393  O427    1.961   .     S
Cu393  O431    1.958   .     S
Cu393  N422    2.013   .     S
Cu393  O428    1.954   .     S
Cu394  O430    1.958   .     S
Cu394  O429    1.954   .     S
Cu394  O426    1.961   .     S
Cu394  O425    1.957   .     S
Cu394  N421    2.013   .     S
H397   C223    1.087   1_655 S
C433   C446    1.460   .     S
C433   O495    1.295   .     A
C433   O498    1.293   .     A
C434   C436    1.408   .     A
C434   H474    1.080   .     S
C434   C463    1.414   .     A
C435   C464    1.408   .     A
C435   C455    1.413   .     A
C436   C459    1.413   .     A
C436   C3      1.520   1_556 S
C437   O502    1.290   .     A
C437   C439    1.434   .     S
C437   O500    1.285   .     A
C438   O501    1.285   .     A
C438   C440    1.434   .     S
C438   O503    1.290   .     A
C439   C584    1.337   1_455 S
C439   H613    1.087   1_455 S
C440   C511    1.337   .     S
C440   H552    1.087   .     S
C441   C452    1.403   .     A
C441   C443    1.389   .     A
C441   H486    1.083   .     S
C442   C445    1.390   .     A
C442   H487    1.083   .     S
C442   C453    1.402   .     A
C443   C446    1.401   .     A
C443   H488    1.083   .     S
C444   O497    1.296   .     A
C444   C447    1.467   .     S
C444   O499    1.296   .     A
C445   C447    1.404   .     A
C445   H489    1.083   .     S
C446   C448    1.406   .     A
C447   C449    1.407   .     A
C448   F467    1.358   .     S
C448   C450    1.391   .     A
C449   F468    1.355   .     S
C449   C451    1.389   .     A
C450   C452    1.403   .     A
C450   H490    1.083   .     S
C451   H491    1.083   .     S
C451   C453    1.402   .     A
C452   C669    1.469   1_545 S
C453   C668    1.469   .     S
C454   H475    1.110   .     S
C454   C456    1.522   .     S
C454   O504    1.417   .     S
C454   H476    1.117   .     S
C455   C460    1.407   .     A
C455   H492    1.080   .     S
C456   H478    1.110   .     S
C456   H477    1.110   .     S
C456   H479    1.111   .     S
C457   H481    1.115   .     S
C457   H482    1.112   .     S
C457   C458    1.522   .     S
C457   O496    1.413   .     S
C458   H483    1.111   .     S
C458   H485    1.110   .     S
C458   H556    1.111   .     S
C459   C461    1.407   .     A
C459   H470    1.080   .     S
C460   N493    1.363   .     A
C460   H471    1.081   .     S
C461   H472    1.082   .     S
C461   N494    1.363   .     A
C462   O504    1.384   .     S
C462   C464    1.415   .     A
C462   N493    1.369   .     A
C463   N494    1.369   .     A
C463   O496    1.382   .     S
C464   H473    1.080   .     S
Cu465  O495    1.957   .     S
Cu465  Cu466   2.679   .     S
Cu465  O499    1.961   .     S
Cu465  O503    1.958   .     S
Cu465  N494    2.013   .     S
Cu465  O500    1.954   .     S
Cu466  O502    1.958   .     S
Cu466  O501    1.954   .     S
Cu466  O498    1.961   .     S
Cu466  O497    1.957   .     S
Cu466  N493    2.013   .     S
H469   C511    1.087   .     S
H480   C584    1.087   1_455 S
H484   C602    1.111   1_455 S
C505   C518    1.460   .     S
C505   O567    1.295   .     A
C505   O570    1.293   .     A
C506   C508    1.408   .     A
C506   H546    1.080   .     S
C506   C535    1.414   .     A
C507   C536    1.408   .     A
C507   C527    1.413   .     A
C508   C531    1.413   .     A
C508   C75     1.520   1_556 S
C509   O574    1.290   .     A
C509   C511    1.434   .     S
C509   O572    1.285   .     A
C510   O573    1.285   .     A
C510   C512    1.434   .     S
C510   O575    1.290   .     A
C512   C583    1.337   .     S
C512   H624    1.087   .     S
C513   C524    1.403   .     A
C513   C515    1.389   .     A
C513   H558    1.083   .     S
C514   C517    1.390   .     A
C514   H559    1.083   .     S
C514   C525    1.402   .     A
C515   C518    1.401   .     A
C515   H560    1.083   .     S
C516   O569    1.296   .     A
C516   C519    1.467   .     S
C516   O571    1.296   .     A
C517   C519    1.404   .     A
C517   H561    1.083   .     S
C518   C520    1.406   .     A
C519   C521    1.407   .     A
C520   F539    1.358   .     S
C520   C522    1.391   .     A
C521   F540    1.355   .     S
C521   C523    1.389   .     A
C522   C524    1.403   .     A
C522   H562    1.083   .     S
C523   H563    1.083   .     S
C523   C525    1.402   .     A
C524   C741    1.469   1_545 S
C525   C740    1.469   .     S
C526   H547    1.110   .     S
C526   C528    1.522   .     S
C526   O576    1.417   .     S
C526   H548    1.117   .     S
C527   C532    1.407   .     A
C527   H564    1.080   .     S
C528   H550    1.110   .     S
C528   H549    1.110   .     S
C528   H551    1.111   .     S
C529   H553    1.115   .     S
C529   H554    1.112   .     S
C529   C530    1.522   .     S
C529   O568    1.413   .     S
C530   H555    1.111   .     S
C530   H557    1.110   .     S
C530   H628    1.111   .     S
C531   C533    1.407   .     A
C531   H542    1.080   .     S
C532   N565    1.363   .     A
C532   H543    1.081   .     S
C533   H544    1.082   .     S
C533   N566    1.363   .     A
C534   O576    1.384   .     S
C534   C536    1.415   .     A
C534   N565    1.369   .     A
C535   N566    1.369   .     A
C535   O568    1.382   .     S
C536   H545    1.080   .     S
Cu537  O567    1.957   .     S
Cu537  Cu538   2.679   .     S
Cu537  O571    1.961   .     S
Cu537  O575    1.958   .     S
Cu537  N566    2.013   .     S
Cu537  O572    1.954   .     S
Cu538  O574    1.958   .     S
Cu538  O573    1.954   .     S
Cu538  O570    1.961   .     S
Cu538  O569    1.957   .     S
Cu538  N565    2.013   .     S
H541   C583    1.087   .     S
C577   C590    1.460   .     S
C577   O639    1.295   .     A
C577   O642    1.293   .     A
C578   C580    1.408   .     A
C578   H618    1.080   .     S
C578   C607    1.414   .     A
C579   C608    1.408   .     A
C579   C599    1.413   .     A
C580   C603    1.413   .     A
C580   C147    1.520   1_556 S
C581   O646    1.290   .     A
C581   C583    1.434   .     S
C581   O644    1.285   .     A
C582   O645    1.285   .     A
C582   C584    1.434   .     S
C582   O647    1.290   .     A
C584   C439    1.337   1_655 S
C584   H480    1.087   1_655 S
C585   C596    1.403   .     A
C585   C587    1.389   .     A
C585   H630    1.083   .     S
C586   C589    1.390   .     A
C586   H631    1.083   .     S
C586   C597    1.402   .     A
C587   C590    1.401   .     A
C587   H632    1.083   .     S
C588   O641    1.296   .     A
C588   C591    1.467   .     S
C588   O643    1.296   .     A
C589   C591    1.404   .     A
C589   H633    1.083   .     S
C590   C592    1.406   .     A
C591   C593    1.407   .     A
C592   F611    1.358   .     S
C592   C594    1.391   .     A
C593   F612    1.355   .     S
C593   C595    1.389   .     A
C594   C596    1.403   .     A
C594   H634    1.083   .     S
C595   H635    1.083   .     S
C595   C597    1.402   .     A
C596   C813    1.469   1_545 S
C597   C812    1.469   .     S
C598   H619    1.110   .     S
C598   C600    1.522   .     S
C598   O648    1.417   .     S
C598   H620    1.117   .     S
C599   C604    1.407   .     A
C599   H636    1.080   .     S
C600   H622    1.110   .     S
C600   H621    1.110   .     S
C600   H623    1.111   .     S
C601   H625    1.115   .     S
C601   H626    1.112   .     S
C601   C602    1.522   .     S
C601   O640    1.413   .     S
C602   H627    1.111   .     S
C602   H629    1.110   .     S
C602   H484    1.111   1_655 S
C603   C605    1.407   .     A
C603   H614    1.080   .     S
C604   N637    1.363   .     A
C604   H615    1.081   .     S
C605   H616    1.082   .     S
C605   N638    1.363   .     A
C606   O648    1.384   .     S
C606   C608    1.415   .     A
C606   N637    1.369   .     A
C607   N638    1.369   .     A
C607   O640    1.382   .     S
C608   H617    1.080   .     S
Cu609  O639    1.957   .     S
Cu609  Cu610   2.679   .     S
Cu609  O643    1.961   .     S
Cu609  O647    1.958   .     S
Cu609  N638    2.013   .     S
Cu609  O644    1.954   .     S
Cu610  O646    1.958   .     S
Cu610  O645    1.954   .     S
Cu610  O642    1.961   .     S
Cu610  O641    1.957   .     S
Cu610  N637    2.013   .     S
H613   C439    1.087   1_655 S
C649   C662    1.460   .     S
C649   O711    1.295   .     A
C649   O714    1.293   .     A
C650   C652    1.408   .     A
C650   H690    1.080   .     S
C650   C679    1.414   .     A
C651   C680    1.408   .     A
C651   C671    1.413   .     A
C652   C675    1.413   .     A
C652   C219    1.520   1_556 S
C653   O718    1.290   .     A
C653   C655    1.434   .     S
C653   O716    1.285   .     A
C654   O717    1.285   .     A
C654   C656    1.434   .     S
C654   O719    1.290   .     A
C655   C800    1.337   1_455 S
C655   H829    1.087   1_455 S
C656   C727    1.337   .     S
C656   H768    1.087   .     S
C657   C668    1.403   .     A
C657   C659    1.389   .     A
C657   H702    1.083   .     S
C658   C661    1.390   .     A
C658   H703    1.083   .     S
C658   C669    1.402   .     A
C659   C662    1.401   .     A
C659   H704    1.083   .     S
C660   O713    1.296   .     A
C660   C663    1.467   .     S
C660   O715    1.296   .     A
C661   C663    1.404   .     A
C661   H705    1.083   .     S
C662   C664    1.406   .     A
C663   C665    1.407   .     A
C664   F683    1.358   .     S
C664   C666    1.391   .     A
C665   F684    1.355   .     S
C665   C667    1.389   .     A
C666   C668    1.403   .     A
C666   H706    1.083   .     S
C667   H707    1.083   .     S
C667   C669    1.402   .     A
C669   C452    1.469   1_565 S
C670   H691    1.110   .     S
C670   C672    1.522   .     S
C670   O720    1.417   .     S
C670   H692    1.117   .     S
C671   C676    1.407   .     A
C671   H708    1.080   .     S
C672   H694    1.110   .     S
C672   H693    1.110   .     S
C672   H695    1.111   .     S
C673   H697    1.115   .     S
C673   H698    1.112   .     S
C673   C674    1.522   .     S
C673   O712    1.413   .     S
C674   H699    1.111   .     S
C674   H701    1.110   .     S
C674   H772    1.111   .     S
C675   C677    1.407   .     A
C675   H686    1.080   .     S
C676   N709    1.363   .     A
C676   H687    1.081   .     S
C677   H688    1.082   .     S
C677   N710    1.363   .     A
C678   O720    1.384   .     S
C678   C680    1.415   .     A
C678   N709    1.369   .     A
C679   N710    1.369   .     A
C679   O712    1.382   .     S
C680   H689    1.080   .     S
Cu681  O711    1.957   .     S
Cu681  Cu682   2.679   .     S
Cu681  O715    1.961   .     S
Cu681  O719    1.958   .     S
Cu681  N710    2.013   .     S
Cu681  O716    1.954   .     S
Cu682  O718    1.958   .     S
Cu682  O717    1.954   .     S
Cu682  O714    1.961   .     S
Cu682  O713    1.957   .     S
Cu682  N709    2.013   .     S
H685   C727    1.087   .     S
H696   C800    1.087   1_455 S
H700   C818    1.111   1_455 S
C721   C734    1.460   .     S
C721   O783    1.295   .     A
C721   O786    1.293   .     A
C722   C724    1.408   .     A
C722   H762    1.080   .     S
C722   C751    1.414   .     A
C723   C752    1.408   .     A
C723   C743    1.413   .     A
C724   C747    1.413   .     A
C724   C291    1.520   1_556 S
C725   O790    1.290   .     A
C725   C727    1.434   .     S
C725   O788    1.285   .     A
C726   O789    1.285   .     A
C726   C728    1.434   .     S
C726   O791    1.290   .     A
C728   C799    1.337   .     S
C728   H840    1.087   .     S
C729   C740    1.403   .     A
C729   C731    1.389   .     A
C729   H774    1.083   .     S
C730   C733    1.390   .     A
C730   H775    1.083   .     S
C730   C741    1.402   .     A
C731   C734    1.401   .     A
C731   H776    1.083   .     S
C732   O785    1.296   .     A
C732   C735    1.467   .     S
C732   O787    1.296   .     A
C733   C735    1.404   .     A
C733   H777    1.083   .     S
C734   C736    1.406   .     A
C735   C737    1.407   .     A
C736   F755    1.358   .     S
C736   C738    1.391   .     A
C737   F756    1.355   .     S
C737   C739    1.389   .     A
C738   C740    1.403   .     A
C738   H778    1.083   .     S
C739   H779    1.083   .     S
C739   C741    1.402   .     A
C741   C524    1.469   1_565 S
C742   H763    1.110   .     S
C742   C744    1.522   .     S
C742   O792    1.417   .     S
C742   H764    1.117   .     S
C743   C748    1.407   .     A
C743   H780    1.080   .     S
C744   H766    1.110   .     S
C744   H765    1.110   .     S
C744   H767    1.111   .     S
C745   H769    1.115   .     S
C745   H770    1.112   .     S
C745   C746    1.522   .     S
C745   O784    1.413   .     S
C746   H771    1.111   .     S
C746   H773    1.110   .     S
C746   H844    1.111   .     S
C747   C749    1.407   .     A
C747   H758    1.080   .     S
C748   N781    1.363   .     A
C748   H759    1.081   .     S
C749   H760    1.082   .     S
C749   N782    1.363   .     A
C750   O792    1.384   .     S
C750   C752    1.415   .     A
C750   N781    1.369   .     A
C751   N782    1.369   .     A
C751   O784    1.382   .     S
C752   H761    1.080   .     S
Cu753  O783    1.957   .     S
Cu753  Cu754   2.679   .     S
Cu753  O787    1.961   .     S
Cu753  O791    1.958   .     S
Cu753  N782    2.013   .     S
Cu753  O788    1.954   .     S
Cu754  O790    1.958   .     S
Cu754  O789    1.954   .     S
Cu754  O786    1.961   .     S
Cu754  O785    1.957   .     S
Cu754  N781    2.013   .     S
H757   C799    1.087   .     S
C793   C806    1.460   .     S
C793   O855    1.295   .     A
C793   O858    1.293   .     A
C794   C796    1.408   .     A
C794   H834    1.080   .     S
C794   C823    1.414   .     A
C795   C824    1.408   .     A
C795   C815    1.413   .     A
C796   C819    1.413   .     A
C796   C363    1.520   1_556 S
C797   O862    1.290   .     A
C797   C799    1.434   .     S
C797   O860    1.285   .     A
C798   O861    1.285   .     A
C798   C800    1.434   .     S
C798   O863    1.290   .     A
C800   C655    1.337   1_655 S
C800   H696    1.087   1_655 S
C801   C812    1.403   .     A
C801   C803    1.389   .     A
C801   H846    1.083   .     S
C802   C805    1.390   .     A
C802   H847    1.083   .     S
C802   C813    1.402   .     A
C803   C806    1.401   .     A
C803   H848    1.083   .     S
C804   O857    1.296   .     A
C804   C807    1.467   .     S
C804   O859    1.296   .     A
C805   C807    1.404   .     A
C805   H849    1.083   .     S
C806   C808    1.406   .     A
C807   C809    1.407   .     A
C808   F827    1.358   .     S
C808   C810    1.391   .     A
C809   F828    1.355   .     S
C809   C811    1.389   .     A
C810   C812    1.403   .     A
C810   H850    1.083   .     S
C811   H851    1.083   .     S
C811   C813    1.402   .     A
C813   C596    1.469   1_565 S
C814   H835    1.110   .     S
C814   C816    1.522   .     S
C814   O864    1.417   .     S
C814   H836    1.117   .     S
C815   C820    1.407   .     A
C815   H852    1.080   .     S
C816   H838    1.110   .     S
C816   H837    1.110   .     S
C816   H839    1.111   .     S
C817   H841    1.115   .     S
C817   H842    1.112   .     S
C817   C818    1.522   .     S
C817   O856    1.413   .     S
C818   H843    1.111   .     S
C818   H845    1.110   .     S
C818   H700    1.111   1_655 S
C819   C821    1.407   .     A
C819   H830    1.080   .     S
C820   N853    1.363   .     A
C820   H831    1.081   .     S
C821   H832    1.082   .     S
C821   N854    1.363   .     A
C822   O864    1.384   .     S
C822   C824    1.415   .     A
C822   N853    1.369   .     A
C823   N854    1.369   .     A
C823   O856    1.382   .     S
C824   H833    1.080   .     S
Cu825  O855    1.957   .     S
Cu825  Cu826   2.679   .     S
Cu825  O859    1.961   .     S
Cu825  O863    1.958   .     S
Cu825  N854    2.013   .     S
Cu825  O860    1.954   .     S
Cu826  O862    1.958   .     S
Cu826  O861    1.954   .     S
Cu826  O858    1.961   .     S
Cu826  O857    1.957   .     S
Cu826  N853    2.013   .     S
H829   C655    1.087   1_655 S
