data_str_m3_o1_o2_pcu_sym.92
_audit_creation_date              2020-01-03
_audit_creation_method            'Materials Studio'
_symmetry_space_group_name_H-M    'P1'
_symmetry_Int_Tables_number       1
_symmetry_cell_setting            triclinic
loop_
_symmetry_equiv_pos_as_xyz
  x,y,z
_cell_length_a                    32.3192
_cell_length_b                    29.3084
_cell_length_c                    29.9356
_cell_angle_alpha                 90.4474
_cell_angle_beta                  89.6916
_cell_angle_gamma                 91.0794
loop_
_atom_site_label
_atom_site_type_symbol
_atom_site_fract_x
_atom_site_fract_y
_atom_site_fract_z
_atom_site_U_iso_or_equiv
_atom_site_adp_type
_atom_site_occupancy
C1     C     0.08631   0.16600   0.24911   0.00000  Uiso   1.00
C2     C     0.31337   0.20798   0.24312   0.00000  Uiso   1.00
C3     C     0.31093   0.12719   0.22077   0.00000  Uiso   1.00
C4     C     0.01972   0.20323   0.25925   0.00000  Uiso   1.00
C5     C     0.11677   0.18722   0.05174   0.00000  Uiso   1.00
C6     C     0.12964   0.12822   0.45157   0.00000  Uiso   1.00
C7     C     0.15832   0.20456   0.45740   0.00000  Uiso   1.00
C8     C     0.17542   0.13810   0.04184   0.00000  Uiso   1.00
C9     C     0.12370   0.18963   0.09759   0.00000  Uiso   1.00
C10    C     0.13711   0.12720   0.40578   0.00000  Uiso   1.00
C11    C     0.16791   0.20498   0.41210   0.00000  Uiso   1.00
C12    C     0.24644   0.16699   0.24421   0.00000  Uiso   1.00
C13    C     0.18395   0.14002   0.08716   0.00000  Uiso   1.00
C14    C     0.15804   0.16602   0.11563   0.00000  Uiso   1.00
C15    C     0.15724   0.16604   0.38523   0.00000  Uiso   1.00
C16    C     0.14272   0.16215   0.02449   0.00000  Uiso   1.00
C17    C     0.14050   0.16620   0.47679   0.00000  Uiso   1.00
C18    C     0.29048   0.16760   0.23441   0.00000  Uiso   1.00
C19    C     0.04176   0.16445   0.24497   0.00000  Uiso   1.00
C20    C     0.09267   0.21637   0.12512   0.00000  Uiso   1.00
C21    C     0.09467   0.26719   0.11394   0.00000  Uiso   1.00
C22    C     0.12296   0.08361   0.38175   0.00000  Uiso   1.00
C23    C     0.16541   0.16655   0.16359   0.00000  Uiso   1.00
C24    C     0.08338   0.09065   0.35535   0.00000  Uiso   1.00
C25    C     0.19181   0.24678   0.39588   0.00000  Uiso   1.00
C26    C     0.16257   0.28605   0.38704   0.00000  Uiso   1.00
C27    C     0.22257   0.11663   0.10272   0.00000  Uiso   1.00
C28    C     0.25684   0.15153   0.11338   0.00000  Uiso   1.00
C29    C     0.04456   0.08716   0.20099   0.00000  Uiso   1.00
C30    C     0.06478   0.10190   0.15722   0.00000  Uiso   1.00
C31    C     0.29840   0.25565   0.23147   0.00000  Uiso   1.00
C32    C     0.28362   0.25833   0.18308   0.00000  Uiso   1.00
C33    C     0.28703   0.08581   0.20184   0.00000  Uiso   1.00
C34    C     0.16505   0.16660   0.33671   0.00000  Uiso   1.00
C35    C     0.28335   0.04741   0.23611   0.00000  Uiso   1.00
C36    C     0.03609   0.23864   0.29319   0.00000  Uiso   1.00
C37    C     0.04980   0.21703   0.33693   0.00000  Uiso   1.00
C38    C     0.18920   0.02475   0.28073   0.00000  Uiso   1.00
C39    C     0.14356   0.30854   0.21989   0.00000  Uiso   1.00
C40    C     0.14428   0.02327   0.21921   0.00000  Uiso   1.00
C41    C     0.19000   0.31000   0.28000   0.00000  Uiso   1.00
C42    C     0.02110   0.12680   0.22294   0.00000  Uiso   1.00
H43    H     0.20704   0.04365   0.30535   0.00000  Uiso   1.00
H44    H     0.08437   0.27308   0.07919   0.00000  Uiso   1.00
H45    H     0.07381   0.28618   0.13675   0.00000  Uiso   1.00
H46    H     0.06097   0.20300   0.11783   0.00000  Uiso   1.00
H47    H     0.09667   0.21241   0.16146   0.00000  Uiso   1.00
H48    H     0.08717   0.11912   0.33171   0.00000  Uiso   1.00
H49    H     0.07535   0.05910   0.33625   0.00000  Uiso   1.00
H50    H     0.05746   0.09852   0.37851   0.00000  Uiso   1.00
H51    H     0.14779   0.06894   0.36085   0.00000  Uiso   1.00
H52    H     0.11597   0.05599   0.40608   0.00000  Uiso   1.00
H53    H     0.14068   0.27694   0.35979   0.00000  Uiso   1.00
H54    H     0.12474   0.28951   0.19650   0.00000  Uiso   1.00
H55    H     0.14456   0.29436   0.41765   0.00000  Uiso   1.00
H56    H     0.18076   0.31695   0.37737   0.00000  Uiso   1.00
H57    H     0.21425   0.25812   0.42194   0.00000  Uiso   1.00
H58    H     0.21154   0.23956   0.36643   0.00000  Uiso   1.00
H59    H     0.24937   0.17033   0.14448   0.00000  Uiso   1.00
H60    H     0.28664   0.13403   0.11794   0.00000  Uiso   1.00
H61    H     0.26077   0.17615   0.08557   0.00000  Uiso   1.00
H62    H     0.21537   0.09443   0.13150   0.00000  Uiso   1.00
H63    H     0.23455   0.09337   0.07632   0.00000  Uiso   1.00
H64    H     0.04100   0.11464   0.13399   0.00000  Uiso   1.00
H65    H     0.12704   0.04091   0.19416   0.00000  Uiso   1.00
H66    H     0.08786   0.12924   0.16344   0.00000  Uiso   1.00
H67    H     0.08039   0.07262   0.14109   0.00000  Uiso   1.00
H68    H     0.06629   0.07125   0.22414   0.00000  Uiso   1.00
H69    H     0.02555   0.05691   0.19259   0.00000  Uiso   1.00
H70    H     0.25277   0.24181   0.17910   0.00000  Uiso   1.00
H71    H     0.28093   0.29456   0.17317   0.00000  Uiso   1.00
H72    H     0.30611   0.24184   0.16016   0.00000  Uiso   1.00
H73    H     0.27434   0.26757   0.25512   0.00000  Uiso   1.00
H74    H     0.32434   0.28092   0.23399   0.00000  Uiso   1.00
H75    H     0.31347   0.03121   0.24203   0.00000  Uiso   1.00
H76    H     0.20911   0.29222   0.30339   0.00000  Uiso   1.00
H77    H     0.27219   0.06075   0.26866   0.00000  Uiso   1.00
H78    H     0.26112   0.02093   0.22390   0.00000  Uiso   1.00
H79    H     0.25596   0.09456   0.19043   0.00000  Uiso   1.00
H80    H     0.30054   0.07336   0.17004   0.00000  Uiso   1.00
H81    H     0.02571   0.19265   0.34932   0.00000  Uiso   1.00
H82    H     0.07939   0.19916   0.33266   0.00000  Uiso   1.00
H83    H     0.05474   0.24411   0.36261   0.00000  Uiso   1.00
H84    H     0.06114   0.26043   0.27884   0.00000  Uiso   1.00
H85    H     0.01127   0.26249   0.30302   0.00000  Uiso   1.00
H86    H     0.09139   0.20533   0.03693   0.00000  Uiso   1.00
H87    H     0.11633   0.09870   0.46838   0.00000  Uiso   1.00
H88    H     0.16759   0.23319   0.47854   0.00000  Uiso   1.00
H89    H     0.19576   0.11989   0.01924   0.00000  Uiso   1.00
H90    H     0.12678   0.28078   0.11771   0.00000  Uiso   1.00
N91    N     0.16667   0.28573   0.25000   0.00000  Uiso   1.00
N92    N     0.16667   0.04760   0.25000   0.00000  Uiso   1.00
O93    O     0.10559   0.20487   0.24999   0.00000  Uiso   1.00
O94    O     0.22774   0.12846   0.25001   0.00000  Uiso   1.00
O95    O     0.22774   0.20487   0.25001   0.00000  Uiso   1.00
O96    O     0.10559   0.12846   0.24999   0.00000  Uiso   1.00
O97    O     0.16666   0.20489   0.18453   0.00000  Uiso   1.00
O98    O     0.16667   0.12845   0.31547   0.00000  Uiso   1.00
O99    O     0.16667   0.20489   0.31547   0.00000  Uiso   1.00
O100   O     0.16666   0.12845   0.18453   0.00000  Uiso   1.00
Zn101  Zn    0.16667   0.21771   0.25000   0.00000  Uiso   1.00
Zn102  Zn    0.16667   0.11563   0.25000   0.00000  Uiso   1.00
C103   C     0.41964   0.16600   0.24911   0.00000  Uiso   1.00
C104   C     0.64670   0.20798   0.24312   0.00000  Uiso   1.00
C105   C     0.64427   0.12719   0.22077   0.00000  Uiso   1.00
C106   C     0.35305   0.20323   0.25925   0.00000  Uiso   1.00
C107   C     0.45011   0.18722   0.05174   0.00000  Uiso   1.00
C108   C     0.46297   0.12822   0.45157   0.00000  Uiso   1.00
C109   C     0.49166   0.20456   0.45740   0.00000  Uiso   1.00
C110   C     0.50875   0.13810   0.04184   0.00000  Uiso   1.00
C111   C     0.45703   0.18963   0.09759   0.00000  Uiso   1.00
C112   C     0.47044   0.12720   0.40578   0.00000  Uiso   1.00
C113   C     0.50125   0.20498   0.41210   0.00000  Uiso   1.00
C114   C     0.57978   0.16699   0.24421   0.00000  Uiso   1.00
C115   C     0.51728   0.14002   0.08716   0.00000  Uiso   1.00
C116   C     0.49137   0.16602   0.11563   0.00000  Uiso   1.00
C117   C     0.49058   0.16604   0.38523   0.00000  Uiso   1.00
C118   C     0.47605   0.16215   0.02449   0.00000  Uiso   1.00
C119   C     0.47383   0.16620   0.47679   0.00000  Uiso   1.00
C120   C     0.62382   0.16760   0.23441   0.00000  Uiso   1.00
C121   C     0.37509   0.16445   0.24497   0.00000  Uiso   1.00
C122   C     0.42600   0.21637   0.12512   0.00000  Uiso   1.00
C123   C     0.42800   0.26719   0.11394   0.00000  Uiso   1.00
C124   C     0.45630   0.08361   0.38175   0.00000  Uiso   1.00
C125   C     0.49874   0.16655   0.16359   0.00000  Uiso   1.00
C126   C     0.41671   0.09065   0.35535   0.00000  Uiso   1.00
C127   C     0.52515   0.24678   0.39588   0.00000  Uiso   1.00
C128   C     0.49590   0.28605   0.38704   0.00000  Uiso   1.00
C129   C     0.55590   0.11663   0.10272   0.00000  Uiso   1.00
C130   C     0.59018   0.15153   0.11338   0.00000  Uiso   1.00
C131   C     0.37790   0.08716   0.20099   0.00000  Uiso   1.00
C132   C     0.39811   0.10190   0.15722   0.00000  Uiso   1.00
C133   C     0.63173   0.25565   0.23147   0.00000  Uiso   1.00
C134   C     0.61696   0.25833   0.18308   0.00000  Uiso   1.00
C135   C     0.62036   0.08581   0.20184   0.00000  Uiso   1.00
C136   C     0.49838   0.16660   0.33671   0.00000  Uiso   1.00
C137   C     0.61668   0.04741   0.23611   0.00000  Uiso   1.00
C138   C     0.36942   0.23864   0.29319   0.00000  Uiso   1.00
C139   C     0.38313   0.21703   0.33693   0.00000  Uiso   1.00
C140   C     0.52253   0.02475   0.28073   0.00000  Uiso   1.00
C141   C     0.47689   0.30854   0.21989   0.00000  Uiso   1.00
C142   C     0.47761   0.02327   0.21921   0.00000  Uiso   1.00
C143   C     0.52333   0.31000   0.28000   0.00000  Uiso   1.00
C144   C     0.35444   0.12680   0.22294   0.00000  Uiso   1.00
H145   H     0.54037   0.04365   0.30535   0.00000  Uiso   1.00
H146   H     0.41771   0.27308   0.07919   0.00000  Uiso   1.00
H147   H     0.40714   0.28618   0.13675   0.00000  Uiso   1.00
H148   H     0.39431   0.20300   0.11783   0.00000  Uiso   1.00
H149   H     0.43001   0.21241   0.16146   0.00000  Uiso   1.00
H150   H     0.42051   0.11912   0.33171   0.00000  Uiso   1.00
H151   H     0.40869   0.05910   0.33625   0.00000  Uiso   1.00
H152   H     0.39080   0.09852   0.37851   0.00000  Uiso   1.00
H153   H     0.48112   0.06894   0.36085   0.00000  Uiso   1.00
H154   H     0.44930   0.05599   0.40608   0.00000  Uiso   1.00
H155   H     0.47402   0.27694   0.35979   0.00000  Uiso   1.00
H156   H     0.45808   0.28951   0.19650   0.00000  Uiso   1.00
H157   H     0.47790   0.29436   0.41765   0.00000  Uiso   1.00
H158   H     0.51409   0.31695   0.37737   0.00000  Uiso   1.00
H159   H     0.54758   0.25812   0.42194   0.00000  Uiso   1.00
H160   H     0.54488   0.23956   0.36643   0.00000  Uiso   1.00
H161   H     0.58271   0.17033   0.14448   0.00000  Uiso   1.00
H162   H     0.61997   0.13403   0.11794   0.00000  Uiso   1.00
H163   H     0.59411   0.17615   0.08557   0.00000  Uiso   1.00
H164   H     0.54870   0.09443   0.13150   0.00000  Uiso   1.00
H165   H     0.56788   0.09337   0.07632   0.00000  Uiso   1.00
H166   H     0.37433   0.11464   0.13399   0.00000  Uiso   1.00
H167   H     0.46037   0.04091   0.19416   0.00000  Uiso   1.00
H168   H     0.42119   0.12924   0.16344   0.00000  Uiso   1.00
H169   H     0.41373   0.07262   0.14109   0.00000  Uiso   1.00
H170   H     0.39962   0.07125   0.22414   0.00000  Uiso   1.00
H171   H     0.35888   0.05691   0.19259   0.00000  Uiso   1.00
H172   H     0.58610   0.24181   0.17910   0.00000  Uiso   1.00
H173   H     0.61427   0.29456   0.17317   0.00000  Uiso   1.00
H174   H     0.63944   0.24184   0.16016   0.00000  Uiso   1.00
H175   H     0.60768   0.26757   0.25512   0.00000  Uiso   1.00
H176   H     0.65767   0.28092   0.23399   0.00000  Uiso   1.00
H177   H     0.64681   0.03121   0.24203   0.00000  Uiso   1.00
H178   H     0.54244   0.29222   0.30339   0.00000  Uiso   1.00
H179   H     0.60552   0.06075   0.26866   0.00000  Uiso   1.00
H180   H     0.59446   0.02093   0.22390   0.00000  Uiso   1.00
H181   H     0.58930   0.09456   0.19043   0.00000  Uiso   1.00
H182   H     0.63388   0.07336   0.17004   0.00000  Uiso   1.00
H183   H     0.35904   0.19265   0.34932   0.00000  Uiso   1.00
H184   H     0.41272   0.19916   0.33266   0.00000  Uiso   1.00
H185   H     0.38808   0.24411   0.36261   0.00000  Uiso   1.00
H186   H     0.39447   0.26043   0.27884   0.00000  Uiso   1.00
H187   H     0.34460   0.26249   0.30302   0.00000  Uiso   1.00
H188   H     0.42472   0.20533   0.03693   0.00000  Uiso   1.00
H189   H     0.44966   0.09870   0.46838   0.00000  Uiso   1.00
H190   H     0.50092   0.23319   0.47854   0.00000  Uiso   1.00
H191   H     0.52910   0.11989   0.01924   0.00000  Uiso   1.00
H192   H     0.46012   0.28078   0.11771   0.00000  Uiso   1.00
N193   N     0.50000   0.28573   0.25000   0.00000  Uiso   1.00
N194   N     0.50000   0.04760   0.25000   0.00000  Uiso   1.00
O195   O     0.43892   0.20487   0.24999   0.00000  Uiso   1.00
O196   O     0.56108   0.12846   0.25001   0.00000  Uiso   1.00
O197   O     0.56108   0.20487   0.25001   0.00000  Uiso   1.00
O198   O     0.43892   0.12846   0.24999   0.00000  Uiso   1.00
O199   O     0.50000   0.20489   0.18453   0.00000  Uiso   1.00
O200   O     0.50000   0.12845   0.31547   0.00000  Uiso   1.00
O201   O     0.50000   0.20489   0.31547   0.00000  Uiso   1.00
O202   O     0.50000   0.12845   0.18453   0.00000  Uiso   1.00
Zn203  Zn    0.50000   0.21771   0.25000   0.00000  Uiso   1.00
Zn204  Zn    0.50000   0.11563   0.25000   0.00000  Uiso   1.00
C205   C     0.75298   0.16600   0.24911   0.00000  Uiso   1.00
C206   C     0.98003   0.20798   0.24312   0.00000  Uiso   1.00
C207   C     0.97760   0.12719   0.22077   0.00000  Uiso   1.00
C208   C     0.68638   0.20323   0.25925   0.00000  Uiso   1.00
C209   C     0.78344   0.18722   0.05174   0.00000  Uiso   1.00
C210   C     0.79631   0.12822   0.45157   0.00000  Uiso   1.00
C211   C     0.82499   0.20456   0.45740   0.00000  Uiso   1.00
C212   C     0.84208   0.13810   0.04184   0.00000  Uiso   1.00
C213   C     0.79037   0.18963   0.09759   0.00000  Uiso   1.00
C214   C     0.80378   0.12720   0.40578   0.00000  Uiso   1.00
C215   C     0.83458   0.20498   0.41210   0.00000  Uiso   1.00
C216   C     0.91311   0.16699   0.24421   0.00000  Uiso   1.00
C217   C     0.85062   0.14002   0.08716   0.00000  Uiso   1.00
C218   C     0.82470   0.16602   0.11563   0.00000  Uiso   1.00
C219   C     0.82391   0.16604   0.38523   0.00000  Uiso   1.00
C220   C     0.80938   0.16215   0.02449   0.00000  Uiso   1.00
C221   C     0.80716   0.16620   0.47679   0.00000  Uiso   1.00
C222   C     0.95715   0.16760   0.23441   0.00000  Uiso   1.00
C223   C     0.70843   0.16445   0.24497   0.00000  Uiso   1.00
C224   C     0.75933   0.21637   0.12512   0.00000  Uiso   1.00
C225   C     0.76133   0.26719   0.11394   0.00000  Uiso   1.00
C226   C     0.78963   0.08361   0.38175   0.00000  Uiso   1.00
C227   C     0.83208   0.16655   0.16359   0.00000  Uiso   1.00
C228   C     0.75004   0.09065   0.35535   0.00000  Uiso   1.00
C229   C     0.85848   0.24678   0.39588   0.00000  Uiso   1.00
C230   C     0.82923   0.28605   0.38704   0.00000  Uiso   1.00
C231   C     0.88924   0.11663   0.10272   0.00000  Uiso   1.00
C232   C     0.92351   0.15153   0.11338   0.00000  Uiso   1.00
C233   C     0.71123   0.08716   0.20099   0.00000  Uiso   1.00
C234   C     0.73144   0.10190   0.15722   0.00000  Uiso   1.00
C235   C     0.96507   0.25565   0.23147   0.00000  Uiso   1.00
C236   C     0.95029   0.25833   0.18308   0.00000  Uiso   1.00
C237   C     0.95369   0.08581   0.20184   0.00000  Uiso   1.00
C238   C     0.83171   0.16660   0.33671   0.00000  Uiso   1.00
C239   C     0.95001   0.04741   0.23611   0.00000  Uiso   1.00
C240   C     0.70275   0.23864   0.29319   0.00000  Uiso   1.00
C241   C     0.71646   0.21703   0.33693   0.00000  Uiso   1.00
C242   C     0.85587   0.02475   0.28073   0.00000  Uiso   1.00
C243   C     0.81023   0.30854   0.21989   0.00000  Uiso   1.00
C244   C     0.81094   0.02327   0.21921   0.00000  Uiso   1.00
C245   C     0.85666   0.31000   0.28000   0.00000  Uiso   1.00
C246   C     0.68777   0.12680   0.22294   0.00000  Uiso   1.00
H247   H     0.87371   0.04365   0.30535   0.00000  Uiso   1.00
H248   H     0.75104   0.27308   0.07919   0.00000  Uiso   1.00
H249   H     0.74048   0.28618   0.13675   0.00000  Uiso   1.00
H250   H     0.72764   0.20300   0.11783   0.00000  Uiso   1.00
H251   H     0.76334   0.21241   0.16146   0.00000  Uiso   1.00
H252   H     0.75384   0.11912   0.33171   0.00000  Uiso   1.00
H253   H     0.74202   0.05910   0.33625   0.00000  Uiso   1.00
H254   H     0.72413   0.09852   0.37851   0.00000  Uiso   1.00
H255   H     0.81446   0.06894   0.36085   0.00000  Uiso   1.00
H256   H     0.78263   0.05599   0.40608   0.00000  Uiso   1.00
H257   H     0.80735   0.27694   0.35979   0.00000  Uiso   1.00
H258   H     0.79141   0.28951   0.19650   0.00000  Uiso   1.00
H259   H     0.81123   0.29436   0.41765   0.00000  Uiso   1.00
H260   H     0.84742   0.31695   0.37737   0.00000  Uiso   1.00
H261   H     0.88091   0.25812   0.42194   0.00000  Uiso   1.00
H262   H     0.87821   0.23956   0.36643   0.00000  Uiso   1.00
H263   H     0.91604   0.17033   0.14448   0.00000  Uiso   1.00
H264   H     0.95330   0.13403   0.11794   0.00000  Uiso   1.00
H265   H     0.92744   0.17615   0.08557   0.00000  Uiso   1.00
H266   H     0.88204   0.09443   0.13150   0.00000  Uiso   1.00
H267   H     0.90121   0.09337   0.07632   0.00000  Uiso   1.00
H268   H     0.70766   0.11464   0.13399   0.00000  Uiso   1.00
H269   H     0.79371   0.04091   0.19416   0.00000  Uiso   1.00
H270   H     0.75452   0.12924   0.16344   0.00000  Uiso   1.00
H271   H     0.74706   0.07262   0.14109   0.00000  Uiso   1.00
H272   H     0.73296   0.07125   0.22414   0.00000  Uiso   1.00
H273   H     0.69221   0.05691   0.19259   0.00000  Uiso   1.00
H274   H     0.91943   0.24181   0.17910   0.00000  Uiso   1.00
H275   H     0.94760   0.29456   0.17317   0.00000  Uiso   1.00
H276   H     0.97277   0.24184   0.16016   0.00000  Uiso   1.00
H277   H     0.94101   0.26757   0.25512   0.00000  Uiso   1.00
H278   H     0.99100   0.28092   0.23399   0.00000  Uiso   1.00
H279   H     0.98014   0.03121   0.24203   0.00000  Uiso   1.00
H280   H     0.87578   0.29222   0.30339   0.00000  Uiso   1.00
H281   H     0.93886   0.06075   0.26866   0.00000  Uiso   1.00
H282   H     0.92779   0.02093   0.22390   0.00000  Uiso   1.00
H283   H     0.92263   0.09456   0.19043   0.00000  Uiso   1.00
H284   H     0.96721   0.07336   0.17004   0.00000  Uiso   1.00
H285   H     0.69238   0.19265   0.34932   0.00000  Uiso   1.00
H286   H     0.74605   0.19916   0.33266   0.00000  Uiso   1.00
H287   H     0.72141   0.24411   0.36261   0.00000  Uiso   1.00
H288   H     0.72781   0.26043   0.27884   0.00000  Uiso   1.00
H289   H     0.67793   0.26249   0.30302   0.00000  Uiso   1.00
H290   H     0.75806   0.20533   0.03693   0.00000  Uiso   1.00
H291   H     0.78299   0.09870   0.46838   0.00000  Uiso   1.00
H292   H     0.83426   0.23319   0.47854   0.00000  Uiso   1.00
H293   H     0.86243   0.11989   0.01924   0.00000  Uiso   1.00
H294   H     0.79345   0.28078   0.11771   0.00000  Uiso   1.00
N295   N     0.83333   0.28573   0.25000   0.00000  Uiso   1.00
N296   N     0.83333   0.04760   0.25000   0.00000  Uiso   1.00
O297   O     0.77226   0.20487   0.24999   0.00000  Uiso   1.00
O298   O     0.89441   0.12846   0.25001   0.00000  Uiso   1.00
O299   O     0.89441   0.20487   0.25001   0.00000  Uiso   1.00
O300   O     0.77226   0.12846   0.24999   0.00000  Uiso   1.00
O301   O     0.83333   0.20489   0.18453   0.00000  Uiso   1.00
O302   O     0.83334   0.12845   0.31547   0.00000  Uiso   1.00
O303   O     0.83334   0.20489   0.31547   0.00000  Uiso   1.00
O304   O     0.83333   0.12845   0.18453   0.00000  Uiso   1.00
Zn305  Zn    0.83333   0.21771   0.25000   0.00000  Uiso   1.00
Zn306  Zn    0.83333   0.11563   0.25000   0.00000  Uiso   1.00
C307   C     0.08631   0.49933   0.24911   0.00000  Uiso   1.00
C308   C     0.31337   0.54132   0.24312   0.00000  Uiso   1.00
C309   C     0.31093   0.46053   0.22077   0.00000  Uiso   1.00
C310   C     0.01972   0.53657   0.25925   0.00000  Uiso   1.00
C311   C     0.11677   0.52055   0.05174   0.00000  Uiso   1.00
C312   C     0.12964   0.46156   0.45157   0.00000  Uiso   1.00
C313   C     0.15832   0.53789   0.45740   0.00000  Uiso   1.00
C314   C     0.17542   0.47143   0.04184   0.00000  Uiso   1.00
C315   C     0.12370   0.52296   0.09759   0.00000  Uiso   1.00
C316   C     0.13711   0.46054   0.40578   0.00000  Uiso   1.00
C317   C     0.16791   0.53831   0.41210   0.00000  Uiso   1.00
C318   C     0.24644   0.50032   0.24421   0.00000  Uiso   1.00
C319   C     0.18395   0.47335   0.08716   0.00000  Uiso   1.00
C320   C     0.15804   0.49935   0.11563   0.00000  Uiso   1.00
C321   C     0.15724   0.49937   0.38523   0.00000  Uiso   1.00
C322   C     0.14272   0.49548   0.02449   0.00000  Uiso   1.00
C323   C     0.14050   0.49953   0.47679   0.00000  Uiso   1.00
C324   C     0.29048   0.50094   0.23441   0.00000  Uiso   1.00
C325   C     0.04176   0.49778   0.24497   0.00000  Uiso   1.00
C326   C     0.09267   0.54970   0.12512   0.00000  Uiso   1.00
C327   C     0.09467   0.60052   0.11394   0.00000  Uiso   1.00
C328   C     0.12296   0.41695   0.38175   0.00000  Uiso   1.00
C329   C     0.16541   0.49988   0.16359   0.00000  Uiso   1.00
C330   C     0.08338   0.42398   0.35535   0.00000  Uiso   1.00
C331   C     0.19181   0.58011   0.39588   0.00000  Uiso   1.00
C332   C     0.16257   0.61938   0.38704   0.00000  Uiso   1.00
C333   C     0.22257   0.44996   0.10272   0.00000  Uiso   1.00
C334   C     0.25684   0.48487   0.11338   0.00000  Uiso   1.00
C335   C     0.04456   0.42050   0.20099   0.00000  Uiso   1.00
C336   C     0.06478   0.43524   0.15722   0.00000  Uiso   1.00
C337   C     0.29840   0.58898   0.23147   0.00000  Uiso   1.00
C338   C     0.28362   0.59167   0.18308   0.00000  Uiso   1.00
C339   C     0.28703   0.41915   0.20184   0.00000  Uiso   1.00
C340   C     0.16505   0.49994   0.33671   0.00000  Uiso   1.00
C341   C     0.28335   0.38074   0.23611   0.00000  Uiso   1.00
C342   C     0.03609   0.57197   0.29319   0.00000  Uiso   1.00
C343   C     0.04980   0.55036   0.33693   0.00000  Uiso   1.00
C344   C     0.18920   0.35809   0.28073   0.00000  Uiso   1.00
C345   C     0.14356   0.64187   0.21989   0.00000  Uiso   1.00
C346   C     0.14428   0.35660   0.21921   0.00000  Uiso   1.00
C347   C     0.19000   0.64334   0.28000   0.00000  Uiso   1.00
C348   C     0.02110   0.46014   0.22294   0.00000  Uiso   1.00
H349   H     0.20704   0.37698   0.30535   0.00000  Uiso   1.00
H350   H     0.08437   0.60641   0.07919   0.00000  Uiso   1.00
H351   H     0.07381   0.61951   0.13675   0.00000  Uiso   1.00
H352   H     0.06097   0.53633   0.11783   0.00000  Uiso   1.00
H353   H     0.09667   0.54574   0.16146   0.00000  Uiso   1.00
H354   H     0.08717   0.45245   0.33171   0.00000  Uiso   1.00
H355   H     0.07535   0.39244   0.33625   0.00000  Uiso   1.00
H356   H     0.05746   0.43185   0.37851   0.00000  Uiso   1.00
H357   H     0.14779   0.40228   0.36085   0.00000  Uiso   1.00
H358   H     0.11597   0.38932   0.40608   0.00000  Uiso   1.00
H359   H     0.14068   0.61028   0.35979   0.00000  Uiso   1.00
H360   H     0.12474   0.62285   0.19650   0.00000  Uiso   1.00
H361   H     0.14456   0.62770   0.41765   0.00000  Uiso   1.00
H362   H     0.18076   0.65028   0.37737   0.00000  Uiso   1.00
H363   H     0.21425   0.59145   0.42194   0.00000  Uiso   1.00
H364   H     0.21154   0.57290   0.36643   0.00000  Uiso   1.00
H365   H     0.24937   0.50366   0.14448   0.00000  Uiso   1.00
H366   H     0.28664   0.46737   0.11794   0.00000  Uiso   1.00
H367   H     0.26077   0.50948   0.08557   0.00000  Uiso   1.00
H368   H     0.21537   0.42776   0.13150   0.00000  Uiso   1.00
H369   H     0.23455   0.42670   0.07632   0.00000  Uiso   1.00
H370   H     0.04100   0.44797   0.13399   0.00000  Uiso   1.00
H371   H     0.12704   0.37424   0.19416   0.00000  Uiso   1.00
H372   H     0.08786   0.46257   0.16344   0.00000  Uiso   1.00
H373   H     0.08039   0.40595   0.14109   0.00000  Uiso   1.00
H374   H     0.06629   0.40458   0.22414   0.00000  Uiso   1.00
H375   H     0.02555   0.39024   0.19259   0.00000  Uiso   1.00
H376   H     0.25277   0.57515   0.17910   0.00000  Uiso   1.00
H377   H     0.28093   0.62789   0.17317   0.00000  Uiso   1.00
H378   H     0.30611   0.57518   0.16016   0.00000  Uiso   1.00
H379   H     0.27434   0.60090   0.25512   0.00000  Uiso   1.00
H380   H     0.32434   0.61426   0.23399   0.00000  Uiso   1.00
H381   H     0.31347   0.36454   0.24203   0.00000  Uiso   1.00
H382   H     0.20911   0.62556   0.30339   0.00000  Uiso   1.00
H383   H     0.27219   0.39408   0.26866   0.00000  Uiso   1.00
H384   H     0.26112   0.35426   0.22390   0.00000  Uiso   1.00
H385   H     0.25596   0.42790   0.19043   0.00000  Uiso   1.00
H386   H     0.30054   0.40670   0.17004   0.00000  Uiso   1.00
H387   H     0.02571   0.52598   0.34932   0.00000  Uiso   1.00
H388   H     0.07939   0.53249   0.33266   0.00000  Uiso   1.00
H389   H     0.05474   0.57745   0.36261   0.00000  Uiso   1.00
H390   H     0.06114   0.59377   0.27884   0.00000  Uiso   1.00
H391   H     0.01127   0.59583   0.30302   0.00000  Uiso   1.00
H392   H     0.09139   0.53867   0.03693   0.00000  Uiso   1.00
H393   H     0.11633   0.43203   0.46838   0.00000  Uiso   1.00
H394   H     0.16759   0.56652   0.47854   0.00000  Uiso   1.00
H395   H     0.19576   0.45322   0.01924   0.00000  Uiso   1.00
H396   H     0.12678   0.61412   0.11771   0.00000  Uiso   1.00
N397   N     0.16667   0.61907   0.25000   0.00000  Uiso   1.00
N398   N     0.16667   0.38093   0.25000   0.00000  Uiso   1.00
O399   O     0.10559   0.53821   0.24999   0.00000  Uiso   1.00
O400   O     0.22774   0.46179   0.25001   0.00000  Uiso   1.00
O401   O     0.22774   0.53821   0.25001   0.00000  Uiso   1.00
O402   O     0.10559   0.46179   0.24999   0.00000  Uiso   1.00
O403   O     0.16666   0.53822   0.18453   0.00000  Uiso   1.00
O404   O     0.16667   0.46178   0.31547   0.00000  Uiso   1.00
O405   O     0.16667   0.53822   0.31547   0.00000  Uiso   1.00
O406   O     0.16666   0.46178   0.18453   0.00000  Uiso   1.00
Zn407  Zn    0.16667   0.55104   0.25000   0.00000  Uiso   1.00
Zn408  Zn    0.16667   0.44896   0.25000   0.00000  Uiso   1.00
C409   C     0.41964   0.49933   0.24911   0.00000  Uiso   1.00
C410   C     0.64670   0.54132   0.24312   0.00000  Uiso   1.00
C411   C     0.64427   0.46053   0.22077   0.00000  Uiso   1.00
C412   C     0.35305   0.53657   0.25925   0.00000  Uiso   1.00
C413   C     0.45011   0.52055   0.05174   0.00000  Uiso   1.00
C414   C     0.46297   0.46156   0.45157   0.00000  Uiso   1.00
C415   C     0.49166   0.53789   0.45740   0.00000  Uiso   1.00
C416   C     0.50875   0.47143   0.04184   0.00000  Uiso   1.00
C417   C     0.45703   0.52296   0.09759   0.00000  Uiso   1.00
C418   C     0.47044   0.46054   0.40578   0.00000  Uiso   1.00
C419   C     0.50125   0.53831   0.41210   0.00000  Uiso   1.00
C420   C     0.57978   0.50032   0.24421   0.00000  Uiso   1.00
C421   C     0.51728   0.47335   0.08716   0.00000  Uiso   1.00
C422   C     0.49137   0.49935   0.11563   0.00000  Uiso   1.00
C423   C     0.49058   0.49937   0.38523   0.00000  Uiso   1.00
C424   C     0.47605   0.49548   0.02449   0.00000  Uiso   1.00
C425   C     0.47383   0.49953   0.47679   0.00000  Uiso   1.00
C426   C     0.62382   0.50094   0.23441   0.00000  Uiso   1.00
C427   C     0.37509   0.49778   0.24497   0.00000  Uiso   1.00
C428   C     0.42600   0.54970   0.12512   0.00000  Uiso   1.00
C429   C     0.42800   0.60052   0.11394   0.00000  Uiso   1.00
C430   C     0.45630   0.41695   0.38175   0.00000  Uiso   1.00
C431   C     0.49874   0.49988   0.16359   0.00000  Uiso   1.00
C432   C     0.41671   0.42398   0.35535   0.00000  Uiso   1.00
C433   C     0.52515   0.58011   0.39588   0.00000  Uiso   1.00
C434   C     0.49590   0.61938   0.38704   0.00000  Uiso   1.00
C435   C     0.55590   0.44996   0.10272   0.00000  Uiso   1.00
C436   C     0.59018   0.48487   0.11338   0.00000  Uiso   1.00
C437   C     0.37790   0.42050   0.20099   0.00000  Uiso   1.00
C438   C     0.39811   0.43524   0.15722   0.00000  Uiso   1.00
C439   C     0.63173   0.58898   0.23147   0.00000  Uiso   1.00
C440   C     0.61696   0.59167   0.18308   0.00000  Uiso   1.00
C441   C     0.62036   0.41915   0.20184   0.00000  Uiso   1.00
C442   C     0.49838   0.49994   0.33671   0.00000  Uiso   1.00
C443   C     0.61668   0.38074   0.23611   0.00000  Uiso   1.00
C444   C     0.36942   0.57197   0.29319   0.00000  Uiso   1.00
C445   C     0.38313   0.55036   0.33693   0.00000  Uiso   1.00
C446   C     0.52253   0.35809   0.28073   0.00000  Uiso   1.00
C447   C     0.47689   0.64187   0.21989   0.00000  Uiso   1.00
C448   C     0.47761   0.35660   0.21921   0.00000  Uiso   1.00
C449   C     0.52333   0.64334   0.28000   0.00000  Uiso   1.00
C450   C     0.35444   0.46014   0.22294   0.00000  Uiso   1.00
H451   H     0.54037   0.37698   0.30535   0.00000  Uiso   1.00
H452   H     0.41771   0.60641   0.07919   0.00000  Uiso   1.00
H453   H     0.40714   0.61951   0.13675   0.00000  Uiso   1.00
H454   H     0.39431   0.53633   0.11783   0.00000  Uiso   1.00
H455   H     0.43001   0.54574   0.16146   0.00000  Uiso   1.00
H456   H     0.42051   0.45245   0.33171   0.00000  Uiso   1.00
H457   H     0.40869   0.39244   0.33625   0.00000  Uiso   1.00
H458   H     0.39080   0.43185   0.37851   0.00000  Uiso   1.00
H459   H     0.48112   0.40228   0.36085   0.00000  Uiso   1.00
H460   H     0.44930   0.38932   0.40608   0.00000  Uiso   1.00
H461   H     0.47402   0.61028   0.35979   0.00000  Uiso   1.00
H462   H     0.45808   0.62285   0.19650   0.00000  Uiso   1.00
H463   H     0.47790   0.62770   0.41765   0.00000  Uiso   1.00
H464   H     0.51409   0.65028   0.37737   0.00000  Uiso   1.00
H465   H     0.54758   0.59145   0.42194   0.00000  Uiso   1.00
H466   H     0.54488   0.57290   0.36643   0.00000  Uiso   1.00
H467   H     0.58271   0.50366   0.14448   0.00000  Uiso   1.00
H468   H     0.61997   0.46737   0.11794   0.00000  Uiso   1.00
H469   H     0.59411   0.50948   0.08557   0.00000  Uiso   1.00
H470   H     0.54870   0.42776   0.13150   0.00000  Uiso   1.00
H471   H     0.56788   0.42670   0.07632   0.00000  Uiso   1.00
H472   H     0.37433   0.44797   0.13399   0.00000  Uiso   1.00
H473   H     0.46037   0.37424   0.19416   0.00000  Uiso   1.00
H474   H     0.42119   0.46257   0.16344   0.00000  Uiso   1.00
H475   H     0.41373   0.40595   0.14109   0.00000  Uiso   1.00
H476   H     0.39962   0.40458   0.22414   0.00000  Uiso   1.00
H477   H     0.35888   0.39024   0.19259   0.00000  Uiso   1.00
H478   H     0.58610   0.57515   0.17910   0.00000  Uiso   1.00
H479   H     0.61427   0.62789   0.17317   0.00000  Uiso   1.00
H480   H     0.63944   0.57518   0.16016   0.00000  Uiso   1.00
H481   H     0.60768   0.60090   0.25512   0.00000  Uiso   1.00
H482   H     0.65767   0.61426   0.23399   0.00000  Uiso   1.00
H483   H     0.64681   0.36454   0.24203   0.00000  Uiso   1.00
H484   H     0.54244   0.62556   0.30339   0.00000  Uiso   1.00
H485   H     0.60552   0.39408   0.26866   0.00000  Uiso   1.00
H486   H     0.59446   0.35426   0.22390   0.00000  Uiso   1.00
H487   H     0.58930   0.42790   0.19043   0.00000  Uiso   1.00
H488   H     0.63388   0.40670   0.17004   0.00000  Uiso   1.00
H489   H     0.35904   0.52598   0.34932   0.00000  Uiso   1.00
H490   H     0.41272   0.53249   0.33266   0.00000  Uiso   1.00
H491   H     0.38808   0.57745   0.36261   0.00000  Uiso   1.00
H492   H     0.39447   0.59377   0.27884   0.00000  Uiso   1.00
H493   H     0.34460   0.59583   0.30302   0.00000  Uiso   1.00
H494   H     0.42472   0.53867   0.03693   0.00000  Uiso   1.00
H495   H     0.44966   0.43203   0.46838   0.00000  Uiso   1.00
H496   H     0.50092   0.56652   0.47854   0.00000  Uiso   1.00
H497   H     0.52910   0.45322   0.01924   0.00000  Uiso   1.00
H498   H     0.46012   0.61412   0.11771   0.00000  Uiso   1.00
N499   N     0.50000   0.61907   0.25000   0.00000  Uiso   1.00
N500   N     0.50000   0.38093   0.25000   0.00000  Uiso   1.00
O501   O     0.43892   0.53821   0.24999   0.00000  Uiso   1.00
O502   O     0.56108   0.46179   0.25001   0.00000  Uiso   1.00
O503   O     0.56108   0.53821   0.25001   0.00000  Uiso   1.00
O504   O     0.43892   0.46179   0.24999   0.00000  Uiso   1.00
O505   O     0.50000   0.53822   0.18453   0.00000  Uiso   1.00
O506   O     0.50000   0.46178   0.31547   0.00000  Uiso   1.00
O507   O     0.50000   0.53822   0.31547   0.00000  Uiso   1.00
O508   O     0.50000   0.46178   0.18453   0.00000  Uiso   1.00
Zn509  Zn    0.50000   0.55104   0.25000   0.00000  Uiso   1.00
Zn510  Zn    0.50000   0.44896   0.25000   0.00000  Uiso   1.00
C511   C     0.75298   0.49933   0.24911   0.00000  Uiso   1.00
C512   C     0.98003   0.54132   0.24312   0.00000  Uiso   1.00
C513   C     0.97760   0.46053   0.22077   0.00000  Uiso   1.00
C514   C     0.68638   0.53657   0.25925   0.00000  Uiso   1.00
C515   C     0.78344   0.52055   0.05174   0.00000  Uiso   1.00
C516   C     0.79631   0.46156   0.45157   0.00000  Uiso   1.00
C517   C     0.82499   0.53789   0.45740   0.00000  Uiso   1.00
C518   C     0.84208   0.47143   0.04184   0.00000  Uiso   1.00
C519   C     0.79037   0.52296   0.09759   0.00000  Uiso   1.00
C520   C     0.80378   0.46054   0.40578   0.00000  Uiso   1.00
C521   C     0.83458   0.53831   0.41210   0.00000  Uiso   1.00
C522   C     0.91311   0.50032   0.24421   0.00000  Uiso   1.00
C523   C     0.85062   0.47335   0.08716   0.00000  Uiso   1.00
C524   C     0.82470   0.49935   0.11563   0.00000  Uiso   1.00
C525   C     0.82391   0.49937   0.38523   0.00000  Uiso   1.00
C526   C     0.80938   0.49548   0.02449   0.00000  Uiso   1.00
C527   C     0.80716   0.49953   0.47679   0.00000  Uiso   1.00
C528   C     0.95715   0.50094   0.23441   0.00000  Uiso   1.00
C529   C     0.70843   0.49778   0.24497   0.00000  Uiso   1.00
C530   C     0.75933   0.54970   0.12512   0.00000  Uiso   1.00
C531   C     0.76133   0.60052   0.11394   0.00000  Uiso   1.00
C532   C     0.78963   0.41695   0.38175   0.00000  Uiso   1.00
C533   C     0.83208   0.49988   0.16359   0.00000  Uiso   1.00
C534   C     0.75004   0.42398   0.35535   0.00000  Uiso   1.00
C535   C     0.85848   0.58011   0.39588   0.00000  Uiso   1.00
C536   C     0.82923   0.61938   0.38704   0.00000  Uiso   1.00
C537   C     0.88924   0.44996   0.10272   0.00000  Uiso   1.00
C538   C     0.92351   0.48487   0.11338   0.00000  Uiso   1.00
C539   C     0.71123   0.42050   0.20099   0.00000  Uiso   1.00
C540   C     0.73144   0.43524   0.15722   0.00000  Uiso   1.00
C541   C     0.96507   0.58898   0.23147   0.00000  Uiso   1.00
C542   C     0.95029   0.59167   0.18308   0.00000  Uiso   1.00
C543   C     0.95369   0.41915   0.20184   0.00000  Uiso   1.00
C544   C     0.83171   0.49994   0.33671   0.00000  Uiso   1.00
C545   C     0.95001   0.38074   0.23611   0.00000  Uiso   1.00
C546   C     0.70275   0.57197   0.29319   0.00000  Uiso   1.00
C547   C     0.71646   0.55036   0.33693   0.00000  Uiso   1.00
C548   C     0.85587   0.35809   0.28073   0.00000  Uiso   1.00
C549   C     0.81023   0.64187   0.21989   0.00000  Uiso   1.00
C550   C     0.81094   0.35660   0.21921   0.00000  Uiso   1.00
C551   C     0.85666   0.64334   0.28000   0.00000  Uiso   1.00
C552   C     0.68777   0.46014   0.22294   0.00000  Uiso   1.00
H553   H     0.87371   0.37698   0.30535   0.00000  Uiso   1.00
H554   H     0.75104   0.60641   0.07919   0.00000  Uiso   1.00
H555   H     0.74048   0.61951   0.13675   0.00000  Uiso   1.00
H556   H     0.72764   0.53633   0.11783   0.00000  Uiso   1.00
H557   H     0.76334   0.54574   0.16146   0.00000  Uiso   1.00
H558   H     0.75384   0.45245   0.33171   0.00000  Uiso   1.00
H559   H     0.74202   0.39244   0.33625   0.00000  Uiso   1.00
H560   H     0.72413   0.43185   0.37851   0.00000  Uiso   1.00
H561   H     0.81446   0.40228   0.36085   0.00000  Uiso   1.00
H562   H     0.78263   0.38932   0.40608   0.00000  Uiso   1.00
H563   H     0.80735   0.61028   0.35979   0.00000  Uiso   1.00
H564   H     0.79141   0.62285   0.19650   0.00000  Uiso   1.00
H565   H     0.81123   0.62770   0.41765   0.00000  Uiso   1.00
H566   H     0.84742   0.65028   0.37737   0.00000  Uiso   1.00
H567   H     0.88091   0.59145   0.42194   0.00000  Uiso   1.00
H568   H     0.87821   0.57290   0.36643   0.00000  Uiso   1.00
H569   H     0.91604   0.50366   0.14448   0.00000  Uiso   1.00
H570   H     0.95330   0.46737   0.11794   0.00000  Uiso   1.00
H571   H     0.92744   0.50948   0.08557   0.00000  Uiso   1.00
H572   H     0.88204   0.42776   0.13150   0.00000  Uiso   1.00
H573   H     0.90121   0.42670   0.07632   0.00000  Uiso   1.00
H574   H     0.70766   0.44797   0.13399   0.00000  Uiso   1.00
H575   H     0.79371   0.37424   0.19416   0.00000  Uiso   1.00
H576   H     0.75452   0.46257   0.16344   0.00000  Uiso   1.00
H577   H     0.74706   0.40595   0.14109   0.00000  Uiso   1.00
H578   H     0.73296   0.40458   0.22414   0.00000  Uiso   1.00
H579   H     0.69221   0.39024   0.19259   0.00000  Uiso   1.00
H580   H     0.91943   0.57515   0.17910   0.00000  Uiso   1.00
H581   H     0.94760   0.62789   0.17317   0.00000  Uiso   1.00
H582   H     0.97277   0.57518   0.16016   0.00000  Uiso   1.00
H583   H     0.94101   0.60090   0.25512   0.00000  Uiso   1.00
H584   H     0.99100   0.61426   0.23399   0.00000  Uiso   1.00
H585   H     0.98014   0.36454   0.24203   0.00000  Uiso   1.00
H586   H     0.87578   0.62556   0.30339   0.00000  Uiso   1.00
H587   H     0.93886   0.39408   0.26866   0.00000  Uiso   1.00
H588   H     0.92779   0.35426   0.22390   0.00000  Uiso   1.00
H589   H     0.92263   0.42790   0.19043   0.00000  Uiso   1.00
H590   H     0.96721   0.40670   0.17004   0.00000  Uiso   1.00
H591   H     0.69238   0.52598   0.34932   0.00000  Uiso   1.00
H592   H     0.74605   0.53249   0.33266   0.00000  Uiso   1.00
H593   H     0.72141   0.57745   0.36261   0.00000  Uiso   1.00
H594   H     0.72781   0.59377   0.27884   0.00000  Uiso   1.00
H595   H     0.67793   0.59583   0.30302   0.00000  Uiso   1.00
H596   H     0.75806   0.53867   0.03693   0.00000  Uiso   1.00
H597   H     0.78299   0.43203   0.46838   0.00000  Uiso   1.00
H598   H     0.83426   0.56652   0.47854   0.00000  Uiso   1.00
H599   H     0.86243   0.45322   0.01924   0.00000  Uiso   1.00
H600   H     0.79345   0.61412   0.11771   0.00000  Uiso   1.00
N601   N     0.83333   0.61907   0.25000   0.00000  Uiso   1.00
N602   N     0.83333   0.38093   0.25000   0.00000  Uiso   1.00
O603   O     0.77226   0.53821   0.24999   0.00000  Uiso   1.00
O604   O     0.89441   0.46179   0.25001   0.00000  Uiso   1.00
O605   O     0.89441   0.53821   0.25001   0.00000  Uiso   1.00
O606   O     0.77226   0.46179   0.24999   0.00000  Uiso   1.00
O607   O     0.83333   0.53822   0.18453   0.00000  Uiso   1.00
O608   O     0.83334   0.46178   0.31547   0.00000  Uiso   1.00
O609   O     0.83334   0.53822   0.31547   0.00000  Uiso   1.00
O610   O     0.83333   0.46178   0.18453   0.00000  Uiso   1.00
Zn611  Zn    0.83333   0.55104   0.25000   0.00000  Uiso   1.00
Zn612  Zn    0.83333   0.44896   0.25000   0.00000  Uiso   1.00
C613   C     0.08631   0.83267   0.24911   0.00000  Uiso   1.00
C614   C     0.31337   0.87465   0.24312   0.00000  Uiso   1.00
C615   C     0.31093   0.79386   0.22077   0.00000  Uiso   1.00
C616   C     0.01972   0.86990   0.25925   0.00000  Uiso   1.00
C617   C     0.11677   0.85388   0.05174   0.00000  Uiso   1.00
C618   C     0.12964   0.79489   0.45157   0.00000  Uiso   1.00
C619   C     0.15832   0.87122   0.45740   0.00000  Uiso   1.00
C620   C     0.17542   0.80477   0.04184   0.00000  Uiso   1.00
C621   C     0.12370   0.85629   0.09759   0.00000  Uiso   1.00
C622   C     0.13711   0.79387   0.40578   0.00000  Uiso   1.00
C623   C     0.16791   0.87165   0.41210   0.00000  Uiso   1.00
C624   C     0.24644   0.83365   0.24421   0.00000  Uiso   1.00
C625   C     0.18395   0.80668   0.08716   0.00000  Uiso   1.00
C626   C     0.15804   0.83269   0.11563   0.00000  Uiso   1.00
C627   C     0.15724   0.83270   0.38523   0.00000  Uiso   1.00
C628   C     0.14272   0.82881   0.02449   0.00000  Uiso   1.00
C629   C     0.14050   0.83286   0.47679   0.00000  Uiso   1.00
C630   C     0.29048   0.83427   0.23441   0.00000  Uiso   1.00
C631   C     0.04176   0.83112   0.24497   0.00000  Uiso   1.00
C632   C     0.09267   0.88304   0.12512   0.00000  Uiso   1.00
C633   C     0.09467   0.93386   0.11394   0.00000  Uiso   1.00
C634   C     0.12296   0.75028   0.38175   0.00000  Uiso   1.00
C635   C     0.16541   0.83321   0.16359   0.00000  Uiso   1.00
C636   C     0.08338   0.75732   0.35535   0.00000  Uiso   1.00
C637   C     0.19181   0.91344   0.39588   0.00000  Uiso   1.00
C638   C     0.16257   0.95272   0.38704   0.00000  Uiso   1.00
C639   C     0.22257   0.78329   0.10272   0.00000  Uiso   1.00
C640   C     0.25684   0.81820   0.11338   0.00000  Uiso   1.00
C641   C     0.04456   0.75383   0.20099   0.00000  Uiso   1.00
C642   C     0.06478   0.76857   0.15722   0.00000  Uiso   1.00
C643   C     0.29840   0.92231   0.23147   0.00000  Uiso   1.00
C644   C     0.28362   0.92500   0.18308   0.00000  Uiso   1.00
C645   C     0.28703   0.75248   0.20184   0.00000  Uiso   1.00
C646   C     0.16505   0.83327   0.33671   0.00000  Uiso   1.00
C647   C     0.28335   0.71407   0.23611   0.00000  Uiso   1.00
C648   C     0.03609   0.90530   0.29319   0.00000  Uiso   1.00
C649   C     0.04980   0.88370   0.33693   0.00000  Uiso   1.00
C650   C     0.18920   0.69142   0.28073   0.00000  Uiso   1.00
C651   C     0.14356   0.97521   0.21989   0.00000  Uiso   1.00
C652   C     0.14428   0.68994   0.21921   0.00000  Uiso   1.00
C653   C     0.19000   0.97667   0.28000   0.00000  Uiso   1.00
C654   C     0.02110   0.79347   0.22294   0.00000  Uiso   1.00
H655   H     0.20704   0.71032   0.30535   0.00000  Uiso   1.00
H656   H     0.08437   0.93974   0.07919   0.00000  Uiso   1.00
H657   H     0.07381   0.95285   0.13675   0.00000  Uiso   1.00
H658   H     0.06097   0.86967   0.11783   0.00000  Uiso   1.00
H659   H     0.09667   0.87907   0.16146   0.00000  Uiso   1.00
H660   H     0.08717   0.78579   0.33171   0.00000  Uiso   1.00
H661   H     0.07535   0.72577   0.33625   0.00000  Uiso   1.00
H662   H     0.05746   0.76519   0.37851   0.00000  Uiso   1.00
H663   H     0.14779   0.73561   0.36085   0.00000  Uiso   1.00
H664   H     0.11597   0.72265   0.40608   0.00000  Uiso   1.00
H665   H     0.14068   0.94361   0.35979   0.00000  Uiso   1.00
H666   H     0.12474   0.95618   0.19650   0.00000  Uiso   1.00
H667   H     0.14456   0.96103   0.41765   0.00000  Uiso   1.00
H668   H     0.18076   0.98362   0.37737   0.00000  Uiso   1.00
H669   H     0.21425   0.92479   0.42194   0.00000  Uiso   1.00
H670   H     0.21154   0.90623   0.36643   0.00000  Uiso   1.00
H671   H     0.24937   0.83699   0.14448   0.00000  Uiso   1.00
H672   H     0.28664   0.80070   0.11794   0.00000  Uiso   1.00
H673   H     0.26077   0.84281   0.08557   0.00000  Uiso   1.00
H674   H     0.21537   0.76109   0.13150   0.00000  Uiso   1.00
H675   H     0.23455   0.76003   0.07632   0.00000  Uiso   1.00
H676   H     0.04100   0.78131   0.13399   0.00000  Uiso   1.00
H677   H     0.12704   0.70757   0.19416   0.00000  Uiso   1.00
H678   H     0.08786   0.79590   0.16344   0.00000  Uiso   1.00
H679   H     0.08039   0.73928   0.14109   0.00000  Uiso   1.00
H680   H     0.06629   0.73792   0.22414   0.00000  Uiso   1.00
H681   H     0.02555   0.72357   0.19259   0.00000  Uiso   1.00
H682   H     0.25277   0.90848   0.17910   0.00000  Uiso   1.00
H683   H     0.28093   0.96122   0.17317   0.00000  Uiso   1.00
H684   H     0.30611   0.90851   0.16016   0.00000  Uiso   1.00
H685   H     0.27434   0.93424   0.25512   0.00000  Uiso   1.00
H686   H     0.32434   0.94759   0.23399   0.00000  Uiso   1.00
H687   H     0.31347   0.69787   0.24203   0.00000  Uiso   1.00
H688   H     0.20911   0.95889   0.30339   0.00000  Uiso   1.00
H689   H     0.27219   0.72742   0.26866   0.00000  Uiso   1.00
H690   H     0.26112   0.68760   0.22390   0.00000  Uiso   1.00
H691   H     0.25596   0.76123   0.19043   0.00000  Uiso   1.00
H692   H     0.30054   0.74003   0.17004   0.00000  Uiso   1.00
H693   H     0.02571   0.85932   0.34932   0.00000  Uiso   1.00
H694   H     0.07939   0.86582   0.33266   0.00000  Uiso   1.00
H695   H     0.05474   0.91078   0.36261   0.00000  Uiso   1.00
H696   H     0.06114   0.92710   0.27884   0.00000  Uiso   1.00
H697   H     0.01127   0.92916   0.30302   0.00000  Uiso   1.00
H698   H     0.09139   0.87200   0.03693   0.00000  Uiso   1.00
H699   H     0.11633   0.76537   0.46838   0.00000  Uiso   1.00
H700   H     0.16759   0.89985   0.47854   0.00000  Uiso   1.00
H701   H     0.19576   0.78655   0.01924   0.00000  Uiso   1.00
H702   H     0.12678   0.94745   0.11771   0.00000  Uiso   1.00
N703   N     0.16667   0.95240   0.25000   0.00000  Uiso   1.00
N704   N     0.16667   0.71427   0.25000   0.00000  Uiso   1.00
O705   O     0.10559   0.87154   0.24999   0.00000  Uiso   1.00
O706   O     0.22774   0.79513   0.25001   0.00000  Uiso   1.00
O707   O     0.22774   0.87154   0.25001   0.00000  Uiso   1.00
O708   O     0.10559   0.79513   0.24999   0.00000  Uiso   1.00
O709   O     0.16666   0.87155   0.18453   0.00000  Uiso   1.00
O710   O     0.16667   0.79511   0.31547   0.00000  Uiso   1.00
O711   O     0.16667   0.87155   0.31547   0.00000  Uiso   1.00
O712   O     0.16666   0.79511   0.18453   0.00000  Uiso   1.00
Zn713  Zn    0.16667   0.88437   0.25000   0.00000  Uiso   1.00
Zn714  Zn    0.16667   0.78229   0.25000   0.00000  Uiso   1.00
C715   C     0.41964   0.83267   0.24911   0.00000  Uiso   1.00
C716   C     0.64670   0.87465   0.24312   0.00000  Uiso   1.00
C717   C     0.64427   0.79386   0.22077   0.00000  Uiso   1.00
C718   C     0.35305   0.86990   0.25925   0.00000  Uiso   1.00
C719   C     0.45011   0.85388   0.05174   0.00000  Uiso   1.00
C720   C     0.46297   0.79489   0.45157   0.00000  Uiso   1.00
C721   C     0.49166   0.87122   0.45740   0.00000  Uiso   1.00
C722   C     0.50875   0.80477   0.04184   0.00000  Uiso   1.00
C723   C     0.45703   0.85629   0.09759   0.00000  Uiso   1.00
C724   C     0.47044   0.79387   0.40578   0.00000  Uiso   1.00
C725   C     0.50125   0.87165   0.41210   0.00000  Uiso   1.00
C726   C     0.57978   0.83365   0.24421   0.00000  Uiso   1.00
C727   C     0.51728   0.80668   0.08716   0.00000  Uiso   1.00
C728   C     0.49137   0.83269   0.11563   0.00000  Uiso   1.00
C729   C     0.49058   0.83270   0.38523   0.00000  Uiso   1.00
C730   C     0.47605   0.82881   0.02449   0.00000  Uiso   1.00
C731   C     0.47383   0.83286   0.47679   0.00000  Uiso   1.00
C732   C     0.62382   0.83427   0.23441   0.00000  Uiso   1.00
C733   C     0.37509   0.83112   0.24497   0.00000  Uiso   1.00
C734   C     0.42600   0.88304   0.12512   0.00000  Uiso   1.00
C735   C     0.42800   0.93386   0.11394   0.00000  Uiso   1.00
C736   C     0.45630   0.75028   0.38175   0.00000  Uiso   1.00
C737   C     0.49874   0.83321   0.16359   0.00000  Uiso   1.00
C738   C     0.41671   0.75732   0.35535   0.00000  Uiso   1.00
C739   C     0.52515   0.91344   0.39588   0.00000  Uiso   1.00
C740   C     0.49590   0.95272   0.38704   0.00000  Uiso   1.00
C741   C     0.55590   0.78329   0.10272   0.00000  Uiso   1.00
C742   C     0.59018   0.81820   0.11338   0.00000  Uiso   1.00
C743   C     0.37790   0.75383   0.20099   0.00000  Uiso   1.00
C744   C     0.39811   0.76857   0.15722   0.00000  Uiso   1.00
C745   C     0.63173   0.92231   0.23147   0.00000  Uiso   1.00
C746   C     0.61696   0.92500   0.18308   0.00000  Uiso   1.00
C747   C     0.62036   0.75248   0.20184   0.00000  Uiso   1.00
C748   C     0.49838   0.83327   0.33671   0.00000  Uiso   1.00
C749   C     0.61668   0.71407   0.23611   0.00000  Uiso   1.00
C750   C     0.36942   0.90530   0.29319   0.00000  Uiso   1.00
C751   C     0.38313   0.88370   0.33693   0.00000  Uiso   1.00
C752   C     0.52253   0.69142   0.28073   0.00000  Uiso   1.00
C753   C     0.47689   0.97521   0.21989   0.00000  Uiso   1.00
C754   C     0.47761   0.68994   0.21921   0.00000  Uiso   1.00
C755   C     0.52333   0.97667   0.28000   0.00000  Uiso   1.00
C756   C     0.35444   0.79347   0.22294   0.00000  Uiso   1.00
H757   H     0.54037   0.71032   0.30535   0.00000  Uiso   1.00
H758   H     0.41771   0.93974   0.07919   0.00000  Uiso   1.00
H759   H     0.40714   0.95285   0.13675   0.00000  Uiso   1.00
H760   H     0.39431   0.86967   0.11783   0.00000  Uiso   1.00
H761   H     0.43001   0.87907   0.16146   0.00000  Uiso   1.00
H762   H     0.42051   0.78579   0.33171   0.00000  Uiso   1.00
H763   H     0.40869   0.72577   0.33625   0.00000  Uiso   1.00
H764   H     0.39080   0.76519   0.37851   0.00000  Uiso   1.00
H765   H     0.48112   0.73561   0.36085   0.00000  Uiso   1.00
H766   H     0.44930   0.72265   0.40608   0.00000  Uiso   1.00
H767   H     0.47402   0.94361   0.35979   0.00000  Uiso   1.00
H768   H     0.45808   0.95618   0.19650   0.00000  Uiso   1.00
H769   H     0.47790   0.96103   0.41765   0.00000  Uiso   1.00
H770   H     0.51409   0.98362   0.37737   0.00000  Uiso   1.00
H771   H     0.54758   0.92479   0.42194   0.00000  Uiso   1.00
H772   H     0.54488   0.90623   0.36643   0.00000  Uiso   1.00
H773   H     0.58271   0.83699   0.14448   0.00000  Uiso   1.00
H774   H     0.61997   0.80070   0.11794   0.00000  Uiso   1.00
H775   H     0.59411   0.84281   0.08557   0.00000  Uiso   1.00
H776   H     0.54870   0.76109   0.13150   0.00000  Uiso   1.00
H777   H     0.56788   0.76003   0.07632   0.00000  Uiso   1.00
H778   H     0.37433   0.78131   0.13399   0.00000  Uiso   1.00
H779   H     0.46037   0.70757   0.19416   0.00000  Uiso   1.00
H780   H     0.42119   0.79590   0.16344   0.00000  Uiso   1.00
H781   H     0.41373   0.73928   0.14109   0.00000  Uiso   1.00
H782   H     0.39962   0.73792   0.22414   0.00000  Uiso   1.00
H783   H     0.35888   0.72357   0.19259   0.00000  Uiso   1.00
H784   H     0.58610   0.90848   0.17910   0.00000  Uiso   1.00
H785   H     0.61427   0.96122   0.17317   0.00000  Uiso   1.00
H786   H     0.63944   0.90851   0.16016   0.00000  Uiso   1.00
H787   H     0.60768   0.93424   0.25512   0.00000  Uiso   1.00
H788   H     0.65767   0.94759   0.23399   0.00000  Uiso   1.00
H789   H     0.64681   0.69787   0.24203   0.00000  Uiso   1.00
H790   H     0.54244   0.95889   0.30339   0.00000  Uiso   1.00
H791   H     0.60552   0.72742   0.26866   0.00000  Uiso   1.00
H792   H     0.59446   0.68760   0.22390   0.00000  Uiso   1.00
H793   H     0.58930   0.76123   0.19043   0.00000  Uiso   1.00
H794   H     0.63388   0.74003   0.17004   0.00000  Uiso   1.00
H795   H     0.35904   0.85932   0.34932   0.00000  Uiso   1.00
H796   H     0.41272   0.86582   0.33266   0.00000  Uiso   1.00
H797   H     0.38808   0.91078   0.36261   0.00000  Uiso   1.00
H798   H     0.39447   0.92710   0.27884   0.00000  Uiso   1.00
H799   H     0.34460   0.92916   0.30302   0.00000  Uiso   1.00
H800   H     0.42472   0.87200   0.03693   0.00000  Uiso   1.00
H801   H     0.44966   0.76537   0.46838   0.00000  Uiso   1.00
H802   H     0.50092   0.89985   0.47854   0.00000  Uiso   1.00
H803   H     0.52910   0.78655   0.01924   0.00000  Uiso   1.00
H804   H     0.46012   0.94745   0.11771   0.00000  Uiso   1.00
N805   N     0.50000   0.95240   0.25000   0.00000  Uiso   1.00
N806   N     0.50000   0.71427   0.25000   0.00000  Uiso   1.00
O807   O     0.43892   0.87154   0.24999   0.00000  Uiso   1.00
O808   O     0.56108   0.79513   0.25001   0.00000  Uiso   1.00
O809   O     0.56108   0.87154   0.25001   0.00000  Uiso   1.00
O810   O     0.43892   0.79513   0.24999   0.00000  Uiso   1.00
O811   O     0.50000   0.87155   0.18453   0.00000  Uiso   1.00
O812   O     0.50000   0.79511   0.31547   0.00000  Uiso   1.00
O813   O     0.50000   0.87155   0.31547   0.00000  Uiso   1.00
O814   O     0.50000   0.79511   0.18453   0.00000  Uiso   1.00
Zn815  Zn    0.50000   0.88437   0.25000   0.00000  Uiso   1.00
Zn816  Zn    0.50000   0.78229   0.25000   0.00000  Uiso   1.00
C817   C     0.75298   0.83267   0.24911   0.00000  Uiso   1.00
C818   C     0.98003   0.87465   0.24312   0.00000  Uiso   1.00
C819   C     0.97760   0.79386   0.22077   0.00000  Uiso   1.00
C820   C     0.68638   0.86990   0.25925   0.00000  Uiso   1.00
C821   C     0.78344   0.85388   0.05174   0.00000  Uiso   1.00
C822   C     0.79631   0.79489   0.45157   0.00000  Uiso   1.00
C823   C     0.82499   0.87122   0.45740   0.00000  Uiso   1.00
C824   C     0.84208   0.80477   0.04184   0.00000  Uiso   1.00
C825   C     0.79037   0.85629   0.09759   0.00000  Uiso   1.00
C826   C     0.80378   0.79387   0.40578   0.00000  Uiso   1.00
C827   C     0.83458   0.87165   0.41210   0.00000  Uiso   1.00
C828   C     0.91311   0.83365   0.24421   0.00000  Uiso   1.00
C829   C     0.85062   0.80668   0.08716   0.00000  Uiso   1.00
C830   C     0.82470   0.83269   0.11563   0.00000  Uiso   1.00
C831   C     0.82391   0.83270   0.38523   0.00000  Uiso   1.00
C832   C     0.80938   0.82881   0.02449   0.00000  Uiso   1.00
C833   C     0.80716   0.83286   0.47679   0.00000  Uiso   1.00
C834   C     0.95715   0.83427   0.23441   0.00000  Uiso   1.00
C835   C     0.70843   0.83112   0.24497   0.00000  Uiso   1.00
C836   C     0.75933   0.88304   0.12512   0.00000  Uiso   1.00
C837   C     0.76133   0.93386   0.11394   0.00000  Uiso   1.00
C838   C     0.78963   0.75028   0.38175   0.00000  Uiso   1.00
C839   C     0.83208   0.83321   0.16359   0.00000  Uiso   1.00
C840   C     0.75004   0.75732   0.35535   0.00000  Uiso   1.00
C841   C     0.85848   0.91344   0.39588   0.00000  Uiso   1.00
C842   C     0.82923   0.95272   0.38704   0.00000  Uiso   1.00
C843   C     0.88924   0.78329   0.10272   0.00000  Uiso   1.00
C844   C     0.92351   0.81820   0.11338   0.00000  Uiso   1.00
C845   C     0.71123   0.75383   0.20099   0.00000  Uiso   1.00
C846   C     0.73144   0.76857   0.15722   0.00000  Uiso   1.00
C847   C     0.96507   0.92231   0.23147   0.00000  Uiso   1.00
C848   C     0.95029   0.92500   0.18308   0.00000  Uiso   1.00
C849   C     0.95369   0.75248   0.20184   0.00000  Uiso   1.00
C850   C     0.83171   0.83327   0.33671   0.00000  Uiso   1.00
C851   C     0.95001   0.71407   0.23611   0.00000  Uiso   1.00
C852   C     0.70275   0.90530   0.29319   0.00000  Uiso   1.00
C853   C     0.71646   0.88370   0.33693   0.00000  Uiso   1.00
C854   C     0.85587   0.69142   0.28073   0.00000  Uiso   1.00
C855   C     0.81023   0.97521   0.21989   0.00000  Uiso   1.00
C856   C     0.81094   0.68994   0.21921   0.00000  Uiso   1.00
C857   C     0.85666   0.97667   0.28000   0.00000  Uiso   1.00
C858   C     0.68777   0.79347   0.22294   0.00000  Uiso   1.00
H859   H     0.87371   0.71032   0.30535   0.00000  Uiso   1.00
H860   H     0.75104   0.93974   0.07919   0.00000  Uiso   1.00
H861   H     0.74048   0.95285   0.13675   0.00000  Uiso   1.00
H862   H     0.72764   0.86967   0.11783   0.00000  Uiso   1.00
H863   H     0.76334   0.87907   0.16146   0.00000  Uiso   1.00
H864   H     0.75384   0.78579   0.33171   0.00000  Uiso   1.00
H865   H     0.74202   0.72577   0.33625   0.00000  Uiso   1.00
H866   H     0.72413   0.76519   0.37851   0.00000  Uiso   1.00
H867   H     0.81446   0.73561   0.36085   0.00000  Uiso   1.00
H868   H     0.78263   0.72265   0.40608   0.00000  Uiso   1.00
H869   H     0.80735   0.94361   0.35979   0.00000  Uiso   1.00
H870   H     0.79141   0.95618   0.19650   0.00000  Uiso   1.00
H871   H     0.81123   0.96103   0.41765   0.00000  Uiso   1.00
H872   H     0.84742   0.98362   0.37737   0.00000  Uiso   1.00
H873   H     0.88091   0.92479   0.42194   0.00000  Uiso   1.00
H874   H     0.87821   0.90623   0.36643   0.00000  Uiso   1.00
H875   H     0.91604   0.83699   0.14448   0.00000  Uiso   1.00
H876   H     0.95330   0.80070   0.11794   0.00000  Uiso   1.00
H877   H     0.92744   0.84281   0.08557   0.00000  Uiso   1.00
H878   H     0.88204   0.76109   0.13150   0.00000  Uiso   1.00
H879   H     0.90121   0.76003   0.07632   0.00000  Uiso   1.00
H880   H     0.70766   0.78131   0.13399   0.00000  Uiso   1.00
H881   H     0.79371   0.70757   0.19416   0.00000  Uiso   1.00
H882   H     0.75452   0.79590   0.16344   0.00000  Uiso   1.00
H883   H     0.74706   0.73928   0.14109   0.00000  Uiso   1.00
H884   H     0.73296   0.73792   0.22414   0.00000  Uiso   1.00
H885   H     0.69221   0.72357   0.19259   0.00000  Uiso   1.00
H886   H     0.91943   0.90848   0.17910   0.00000  Uiso   1.00
H887   H     0.94760   0.96122   0.17317   0.00000  Uiso   1.00
H888   H     0.97277   0.90851   0.16016   0.00000  Uiso   1.00
H889   H     0.94101   0.93424   0.25512   0.00000  Uiso   1.00
H890   H     0.99100   0.94759   0.23399   0.00000  Uiso   1.00
H891   H     0.98014   0.69787   0.24203   0.00000  Uiso   1.00
H892   H     0.87578   0.95889   0.30339   0.00000  Uiso   1.00
H893   H     0.93886   0.72742   0.26866   0.00000  Uiso   1.00
H894   H     0.92779   0.68760   0.22390   0.00000  Uiso   1.00
H895   H     0.92263   0.76123   0.19043   0.00000  Uiso   1.00
H896   H     0.96721   0.74003   0.17004   0.00000  Uiso   1.00
H897   H     0.69238   0.85932   0.34932   0.00000  Uiso   1.00
H898   H     0.74605   0.86582   0.33266   0.00000  Uiso   1.00
H899   H     0.72141   0.91078   0.36261   0.00000  Uiso   1.00
H900   H     0.72781   0.92710   0.27884   0.00000  Uiso   1.00
H901   H     0.67793   0.92916   0.30302   0.00000  Uiso   1.00
H902   H     0.75806   0.87200   0.03693   0.00000  Uiso   1.00
H903   H     0.78299   0.76537   0.46838   0.00000  Uiso   1.00
H904   H     0.83426   0.89985   0.47854   0.00000  Uiso   1.00
H905   H     0.86243   0.78655   0.01924   0.00000  Uiso   1.00
H906   H     0.79345   0.94745   0.11771   0.00000  Uiso   1.00
N907   N     0.83333   0.95240   0.25000   0.00000  Uiso   1.00
N908   N     0.83333   0.71427   0.25000   0.00000  Uiso   1.00
O909   O     0.77226   0.87154   0.24999   0.00000  Uiso   1.00
O910   O     0.89441   0.79513   0.25001   0.00000  Uiso   1.00
O911   O     0.89441   0.87154   0.25001   0.00000  Uiso   1.00
O912   O     0.77226   0.79513   0.24999   0.00000  Uiso   1.00
O913   O     0.83333   0.87155   0.18453   0.00000  Uiso   1.00
O914   O     0.83334   0.79511   0.31547   0.00000  Uiso   1.00
O915   O     0.83334   0.87155   0.31547   0.00000  Uiso   1.00
O916   O     0.83333   0.79511   0.18453   0.00000  Uiso   1.00
Zn917  Zn    0.83333   0.88437   0.25000   0.00000  Uiso   1.00
Zn918  Zn    0.83333   0.78229   0.25000   0.00000  Uiso   1.00
C919   C     0.08631   0.16600   0.74911   0.00000  Uiso   1.00
C920   C     0.31337   0.20798   0.74312   0.00000  Uiso   1.00
C921   C     0.31093   0.12719   0.72077   0.00000  Uiso   1.00
C922   C     0.01972   0.20323   0.75925   0.00000  Uiso   1.00
C923   C     0.11677   0.18722   0.55174   0.00000  Uiso   1.00
C924   C     0.12964   0.12822   0.95157   0.00000  Uiso   1.00
C925   C     0.15832   0.20456   0.95740   0.00000  Uiso   1.00
C926   C     0.17542   0.13810   0.54184   0.00000  Uiso   1.00
C927   C     0.12370   0.18963   0.59759   0.00000  Uiso   1.00
C928   C     0.13711   0.12720   0.90578   0.00000  Uiso   1.00
C929   C     0.16791   0.20498   0.91210   0.00000  Uiso   1.00
C930   C     0.24644   0.16699   0.74421   0.00000  Uiso   1.00
C931   C     0.18395   0.14002   0.58716   0.00000  Uiso   1.00
C932   C     0.15804   0.16602   0.61563   0.00000  Uiso   1.00
C933   C     0.15724   0.16604   0.88523   0.00000  Uiso   1.00
C934   C     0.14272   0.16215   0.52449   0.00000  Uiso   1.00
C935   C     0.14050   0.16620   0.97679   0.00000  Uiso   1.00
C936   C     0.29048   0.16760   0.73441   0.00000  Uiso   1.00
C937   C     0.04176   0.16445   0.74497   0.00000  Uiso   1.00
C938   C     0.09267   0.21637   0.62512   0.00000  Uiso   1.00
C939   C     0.09467   0.26719   0.61394   0.00000  Uiso   1.00
C940   C     0.12296   0.08361   0.88175   0.00000  Uiso   1.00
C941   C     0.16541   0.16655   0.66359   0.00000  Uiso   1.00
C942   C     0.08338   0.09065   0.85535   0.00000  Uiso   1.00
C943   C     0.19181   0.24678   0.89588   0.00000  Uiso   1.00
C944   C     0.16257   0.28605   0.88704   0.00000  Uiso   1.00
C945   C     0.22257   0.11663   0.60272   0.00000  Uiso   1.00
C946   C     0.25684   0.15153   0.61338   0.00000  Uiso   1.00
C947   C     0.04456   0.08716   0.70099   0.00000  Uiso   1.00
C948   C     0.06478   0.10190   0.65722   0.00000  Uiso   1.00
C949   C     0.29840   0.25565   0.73147   0.00000  Uiso   1.00
C950   C     0.28362   0.25833   0.68308   0.00000  Uiso   1.00
C951   C     0.28703   0.08581   0.70184   0.00000  Uiso   1.00
C952   C     0.16505   0.16660   0.83671   0.00000  Uiso   1.00
C953   C     0.28335   0.04741   0.73611   0.00000  Uiso   1.00
C954   C     0.03609   0.23864   0.79319   0.00000  Uiso   1.00
C955   C     0.04980   0.21703   0.83693   0.00000  Uiso   1.00
C956   C     0.18920   0.02475   0.78073   0.00000  Uiso   1.00
C957   C     0.14356   0.30854   0.71989   0.00000  Uiso   1.00
C958   C     0.14428   0.02327   0.71921   0.00000  Uiso   1.00
C959   C     0.19000   0.31000   0.78000   0.00000  Uiso   1.00
C960   C     0.02110   0.12680   0.72294   0.00000  Uiso   1.00
H961   H     0.20704   0.04365   0.80535   0.00000  Uiso   1.00
H962   H     0.08437   0.27308   0.57919   0.00000  Uiso   1.00
H963   H     0.07381   0.28618   0.63675   0.00000  Uiso   1.00
H964   H     0.06097   0.20300   0.61783   0.00000  Uiso   1.00
H965   H     0.09667   0.21241   0.66146   0.00000  Uiso   1.00
H966   H     0.08717   0.11912   0.83171   0.00000  Uiso   1.00
H967   H     0.07535   0.05910   0.83625   0.00000  Uiso   1.00
H968   H     0.05746   0.09852   0.87851   0.00000  Uiso   1.00
H969   H     0.14779   0.06894   0.86085   0.00000  Uiso   1.00
H970   H     0.11597   0.05599   0.90608   0.00000  Uiso   1.00
H971   H     0.14068   0.27694   0.85979   0.00000  Uiso   1.00
H972   H     0.12474   0.28951   0.69650   0.00000  Uiso   1.00
H973   H     0.14456   0.29436   0.91765   0.00000  Uiso   1.00
H974   H     0.18076   0.31695   0.87737   0.00000  Uiso   1.00
H975   H     0.21425   0.25812   0.92194   0.00000  Uiso   1.00
H976   H     0.21154   0.23956   0.86643   0.00000  Uiso   1.00
H977   H     0.24937   0.17033   0.64448   0.00000  Uiso   1.00
H978   H     0.28664   0.13403   0.61794   0.00000  Uiso   1.00
H979   H     0.26077   0.17615   0.58557   0.00000  Uiso   1.00
H980   H     0.21537   0.09443   0.63150   0.00000  Uiso   1.00
H981   H     0.23455   0.09337   0.57632   0.00000  Uiso   1.00
H982   H     0.04100   0.11464   0.63399   0.00000  Uiso   1.00
H983   H     0.12704   0.04091   0.69416   0.00000  Uiso   1.00
H984   H     0.08786   0.12924   0.66344   0.00000  Uiso   1.00
H985   H     0.08039   0.07262   0.64109   0.00000  Uiso   1.00
H986   H     0.06629   0.07125   0.72414   0.00000  Uiso   1.00
H987   H     0.02555   0.05691   0.69259   0.00000  Uiso   1.00
H988   H     0.25277   0.24181   0.67910   0.00000  Uiso   1.00
H989   H     0.28093   0.29456   0.67317   0.00000  Uiso   1.00
H990   H     0.30611   0.24184   0.66016   0.00000  Uiso   1.00
H991   H     0.27434   0.26757   0.75512   0.00000  Uiso   1.00
H992   H     0.32434   0.28092   0.73399   0.00000  Uiso   1.00
H993   H     0.31347   0.03121   0.74203   0.00000  Uiso   1.00
H994   H     0.20911   0.29222   0.80339   0.00000  Uiso   1.00
H995   H     0.27219   0.06075   0.76866   0.00000  Uiso   1.00
H996   H     0.26112   0.02093   0.72390   0.00000  Uiso   1.00
H997   H     0.25596   0.09456   0.69043   0.00000  Uiso   1.00
H998   H     0.30054   0.07336   0.67004   0.00000  Uiso   1.00
H999   H     0.02571   0.19265   0.84932   0.00000  Uiso   1.00
H1000  H     0.07939   0.19916   0.83266   0.00000  Uiso   1.00
H1001  H     0.05474   0.24411   0.86261   0.00000  Uiso   1.00
H1002  H     0.06114   0.26043   0.77884   0.00000  Uiso   1.00
H1003  H     0.01127   0.26249   0.80302   0.00000  Uiso   1.00
H1004  H     0.09139   0.20533   0.53693   0.00000  Uiso   1.00
H1005  H     0.11633   0.09870   0.96838   0.00000  Uiso   1.00
H1006  H     0.16759   0.23319   0.97854   0.00000  Uiso   1.00
H1007  H     0.19576   0.11989   0.51924   0.00000  Uiso   1.00
H1008  H     0.12678   0.28078   0.61771   0.00000  Uiso   1.00
N1009  N     0.16667   0.28573   0.75000   0.00000  Uiso   1.00
N1010  N     0.16667   0.04760   0.75000   0.00000  Uiso   1.00
O1011  O     0.10559   0.20487   0.74999   0.00000  Uiso   1.00
O1012  O     0.22774   0.12846   0.75001   0.00000  Uiso   1.00
O1013  O     0.22774   0.20487   0.75001   0.00000  Uiso   1.00
O1014  O     0.10559   0.12846   0.74999   0.00000  Uiso   1.00
O1015  O     0.16666   0.20489   0.68453   0.00000  Uiso   1.00
O1016  O     0.16667   0.12845   0.81547   0.00000  Uiso   1.00
O1017  O     0.16667   0.20489   0.81547   0.00000  Uiso   1.00
O1018  O     0.16666   0.12845   0.68453   0.00000  Uiso   1.00
Zn1019 Zn    0.16667   0.21771   0.75000   0.00000  Uiso   1.00
Zn1020 Zn    0.16667   0.11563   0.75000   0.00000  Uiso   1.00
C1021  C     0.41964   0.16600   0.74911   0.00000  Uiso   1.00
C1022  C     0.64670   0.20798   0.74312   0.00000  Uiso   1.00
C1023  C     0.64427   0.12719   0.72077   0.00000  Uiso   1.00
C1024  C     0.35305   0.20323   0.75925   0.00000  Uiso   1.00
C1025  C     0.45011   0.18722   0.55174   0.00000  Uiso   1.00
C1026  C     0.46297   0.12822   0.95157   0.00000  Uiso   1.00
C1027  C     0.49166   0.20456   0.95740   0.00000  Uiso   1.00
C1028  C     0.50875   0.13810   0.54184   0.00000  Uiso   1.00
C1029  C     0.45703   0.18963   0.59759   0.00000  Uiso   1.00
C1030  C     0.47044   0.12720   0.90578   0.00000  Uiso   1.00
C1031  C     0.50125   0.20498   0.91210   0.00000  Uiso   1.00
C1032  C     0.57978   0.16699   0.74421   0.00000  Uiso   1.00
C1033  C     0.51728   0.14002   0.58716   0.00000  Uiso   1.00
C1034  C     0.49137   0.16602   0.61563   0.00000  Uiso   1.00
C1035  C     0.49058   0.16604   0.88523   0.00000  Uiso   1.00
C1036  C     0.47605   0.16215   0.52449   0.00000  Uiso   1.00
C1037  C     0.47383   0.16620   0.97679   0.00000  Uiso   1.00
C1038  C     0.62382   0.16760   0.73441   0.00000  Uiso   1.00
C1039  C     0.37509   0.16445   0.74497   0.00000  Uiso   1.00
C1040  C     0.42600   0.21637   0.62512   0.00000  Uiso   1.00
C1041  C     0.42800   0.26719   0.61394   0.00000  Uiso   1.00
C1042  C     0.45630   0.08361   0.88175   0.00000  Uiso   1.00
C1043  C     0.49874   0.16655   0.66359   0.00000  Uiso   1.00
C1044  C     0.41671   0.09065   0.85535   0.00000  Uiso   1.00
C1045  C     0.52515   0.24678   0.89588   0.00000  Uiso   1.00
C1046  C     0.49590   0.28605   0.88704   0.00000  Uiso   1.00
C1047  C     0.55590   0.11663   0.60272   0.00000  Uiso   1.00
C1048  C     0.59018   0.15153   0.61338   0.00000  Uiso   1.00
C1049  C     0.37790   0.08716   0.70099   0.00000  Uiso   1.00
C1050  C     0.39811   0.10190   0.65722   0.00000  Uiso   1.00
C1051  C     0.63173   0.25565   0.73147   0.00000  Uiso   1.00
C1052  C     0.61696   0.25833   0.68308   0.00000  Uiso   1.00
C1053  C     0.62036   0.08581   0.70184   0.00000  Uiso   1.00
C1054  C     0.49838   0.16660   0.83671   0.00000  Uiso   1.00
C1055  C     0.61668   0.04741   0.73611   0.00000  Uiso   1.00
C1056  C     0.36942   0.23864   0.79319   0.00000  Uiso   1.00
C1057  C     0.38313   0.21703   0.83693   0.00000  Uiso   1.00
C1058  C     0.52253   0.02475   0.78073   0.00000  Uiso   1.00
C1059  C     0.47689   0.30854   0.71989   0.00000  Uiso   1.00
C1060  C     0.47761   0.02327   0.71921   0.00000  Uiso   1.00
C1061  C     0.52333   0.31000   0.78000   0.00000  Uiso   1.00
C1062  C     0.35444   0.12680   0.72294   0.00000  Uiso   1.00
H1063  H     0.54037   0.04365   0.80535   0.00000  Uiso   1.00
H1064  H     0.41771   0.27308   0.57919   0.00000  Uiso   1.00
H1065  H     0.40714   0.28618   0.63675   0.00000  Uiso   1.00
H1066  H     0.39431   0.20300   0.61783   0.00000  Uiso   1.00
H1067  H     0.43001   0.21241   0.66146   0.00000  Uiso   1.00
H1068  H     0.42051   0.11912   0.83171   0.00000  Uiso   1.00
H1069  H     0.40869   0.05910   0.83625   0.00000  Uiso   1.00
H1070  H     0.39080   0.09852   0.87851   0.00000  Uiso   1.00
H1071  H     0.48112   0.06894   0.86085   0.00000  Uiso   1.00
H1072  H     0.44930   0.05599   0.90608   0.00000  Uiso   1.00
H1073  H     0.47402   0.27694   0.85979   0.00000  Uiso   1.00
H1074  H     0.45808   0.28951   0.69650   0.00000  Uiso   1.00
H1075  H     0.47790   0.29436   0.91765   0.00000  Uiso   1.00
H1076  H     0.51409   0.31695   0.87737   0.00000  Uiso   1.00
H1077  H     0.54758   0.25812   0.92194   0.00000  Uiso   1.00
H1078  H     0.54488   0.23956   0.86643   0.00000  Uiso   1.00
H1079  H     0.58271   0.17033   0.64448   0.00000  Uiso   1.00
H1080  H     0.61997   0.13403   0.61794   0.00000  Uiso   1.00
H1081  H     0.59411   0.17615   0.58557   0.00000  Uiso   1.00
H1082  H     0.54870   0.09443   0.63150   0.00000  Uiso   1.00
H1083  H     0.56788   0.09337   0.57632   0.00000  Uiso   1.00
H1084  H     0.37433   0.11464   0.63399   0.00000  Uiso   1.00
H1085  H     0.46037   0.04091   0.69416   0.00000  Uiso   1.00
H1086  H     0.42119   0.12924   0.66344   0.00000  Uiso   1.00
H1087  H     0.41373   0.07262   0.64109   0.00000  Uiso   1.00
H1088  H     0.39962   0.07125   0.72414   0.00000  Uiso   1.00
H1089  H     0.35888   0.05691   0.69259   0.00000  Uiso   1.00
H1090  H     0.58610   0.24181   0.67910   0.00000  Uiso   1.00
H1091  H     0.61427   0.29456   0.67317   0.00000  Uiso   1.00
H1092  H     0.63944   0.24184   0.66016   0.00000  Uiso   1.00
H1093  H     0.60768   0.26757   0.75512   0.00000  Uiso   1.00
H1094  H     0.65767   0.28092   0.73399   0.00000  Uiso   1.00
H1095  H     0.64681   0.03121   0.74203   0.00000  Uiso   1.00
H1096  H     0.54244   0.29222   0.80339   0.00000  Uiso   1.00
H1097  H     0.60552   0.06075   0.76866   0.00000  Uiso   1.00
H1098  H     0.59446   0.02093   0.72390   0.00000  Uiso   1.00
H1099  H     0.58930   0.09456   0.69043   0.00000  Uiso   1.00
H1100  H     0.63388   0.07336   0.67004   0.00000  Uiso   1.00
H1101  H     0.35904   0.19265   0.84932   0.00000  Uiso   1.00
H1102  H     0.41272   0.19916   0.83266   0.00000  Uiso   1.00
H1103  H     0.38808   0.24411   0.86261   0.00000  Uiso   1.00
H1104  H     0.39447   0.26043   0.77884   0.00000  Uiso   1.00
H1105  H     0.34460   0.26249   0.80302   0.00000  Uiso   1.00
H1106  H     0.42472   0.20533   0.53693   0.00000  Uiso   1.00
H1107  H     0.44966   0.09870   0.96838   0.00000  Uiso   1.00
H1108  H     0.50092   0.23319   0.97854   0.00000  Uiso   1.00
H1109  H     0.52910   0.11989   0.51924   0.00000  Uiso   1.00
H1110  H     0.46012   0.28078   0.61771   0.00000  Uiso   1.00
N1111  N     0.50000   0.28573   0.75000   0.00000  Uiso   1.00
N1112  N     0.50000   0.04760   0.75000   0.00000  Uiso   1.00
O1113  O     0.43892   0.20487   0.74999   0.00000  Uiso   1.00
O1114  O     0.56108   0.12846   0.75001   0.00000  Uiso   1.00
O1115  O     0.56108   0.20487   0.75001   0.00000  Uiso   1.00
O1116  O     0.43892   0.12846   0.74999   0.00000  Uiso   1.00
O1117  O     0.50000   0.20489   0.68453   0.00000  Uiso   1.00
O1118  O     0.50000   0.12845   0.81547   0.00000  Uiso   1.00
O1119  O     0.50000   0.20489   0.81547   0.00000  Uiso   1.00
O1120  O     0.50000   0.12845   0.68453   0.00000  Uiso   1.00
Zn1121 Zn    0.50000   0.21771   0.75000   0.00000  Uiso   1.00
Zn1122 Zn    0.50000   0.11563   0.75000   0.00000  Uiso   1.00
C1123  C     0.75298   0.16600   0.74911   0.00000  Uiso   1.00
C1124  C     0.98003   0.20798   0.74312   0.00000  Uiso   1.00
C1125  C     0.97760   0.12719   0.72077   0.00000  Uiso   1.00
C1126  C     0.68638   0.20323   0.75925   0.00000  Uiso   1.00
C1127  C     0.78344   0.18722   0.55174   0.00000  Uiso   1.00
C1128  C     0.79631   0.12822   0.95157   0.00000  Uiso   1.00
C1129  C     0.82499   0.20456   0.95740   0.00000  Uiso   1.00
C1130  C     0.84208   0.13810   0.54184   0.00000  Uiso   1.00
C1131  C     0.79037   0.18963   0.59759   0.00000  Uiso   1.00
C1132  C     0.80378   0.12720   0.90578   0.00000  Uiso   1.00
C1133  C     0.83458   0.20498   0.91210   0.00000  Uiso   1.00
C1134  C     0.91311   0.16699   0.74421   0.00000  Uiso   1.00
C1135  C     0.85062   0.14002   0.58716   0.00000  Uiso   1.00
C1136  C     0.82470   0.16602   0.61563   0.00000  Uiso   1.00
C1137  C     0.82391   0.16604   0.88523   0.00000  Uiso   1.00
C1138  C     0.80938   0.16215   0.52449   0.00000  Uiso   1.00
C1139  C     0.80716   0.16620   0.97679   0.00000  Uiso   1.00
C1140  C     0.95715   0.16760   0.73441   0.00000  Uiso   1.00
C1141  C     0.70843   0.16445   0.74497   0.00000  Uiso   1.00
C1142  C     0.75933   0.21637   0.62512   0.00000  Uiso   1.00
C1143  C     0.76133   0.26719   0.61394   0.00000  Uiso   1.00
C1144  C     0.78963   0.08361   0.88175   0.00000  Uiso   1.00
C1145  C     0.83208   0.16655   0.66359   0.00000  Uiso   1.00
C1146  C     0.75004   0.09065   0.85535   0.00000  Uiso   1.00
C1147  C     0.85848   0.24678   0.89588   0.00000  Uiso   1.00
C1148  C     0.82923   0.28605   0.88704   0.00000  Uiso   1.00
C1149  C     0.88924   0.11663   0.60272   0.00000  Uiso   1.00
C1150  C     0.92351   0.15153   0.61338   0.00000  Uiso   1.00
C1151  C     0.71123   0.08716   0.70099   0.00000  Uiso   1.00
C1152  C     0.73144   0.10190   0.65722   0.00000  Uiso   1.00
C1153  C     0.96507   0.25565   0.73147   0.00000  Uiso   1.00
C1154  C     0.95029   0.25833   0.68308   0.00000  Uiso   1.00
C1155  C     0.95369   0.08581   0.70184   0.00000  Uiso   1.00
C1156  C     0.83171   0.16660   0.83671   0.00000  Uiso   1.00
C1157  C     0.95001   0.04741   0.73611   0.00000  Uiso   1.00
C1158  C     0.70275   0.23864   0.79319   0.00000  Uiso   1.00
C1159  C     0.71646   0.21703   0.83693   0.00000  Uiso   1.00
C1160  C     0.85587   0.02475   0.78073   0.00000  Uiso   1.00
C1161  C     0.81023   0.30854   0.71989   0.00000  Uiso   1.00
C1162  C     0.81094   0.02327   0.71921   0.00000  Uiso   1.00
C1163  C     0.85666   0.31000   0.78000   0.00000  Uiso   1.00
C1164  C     0.68777   0.12680   0.72294   0.00000  Uiso   1.00
H1165  H     0.87371   0.04365   0.80535   0.00000  Uiso   1.00
H1166  H     0.75104   0.27308   0.57919   0.00000  Uiso   1.00
H1167  H     0.74048   0.28618   0.63675   0.00000  Uiso   1.00
H1168  H     0.72764   0.20300   0.61783   0.00000  Uiso   1.00
H1169  H     0.76334   0.21241   0.66146   0.00000  Uiso   1.00
H1170  H     0.75384   0.11912   0.83171   0.00000  Uiso   1.00
H1171  H     0.74202   0.05910   0.83625   0.00000  Uiso   1.00
H1172  H     0.72413   0.09852   0.87851   0.00000  Uiso   1.00
H1173  H     0.81446   0.06894   0.86085   0.00000  Uiso   1.00
H1174  H     0.78263   0.05599   0.90608   0.00000  Uiso   1.00
H1175  H     0.80735   0.27694   0.85979   0.00000  Uiso   1.00
H1176  H     0.79141   0.28951   0.69650   0.00000  Uiso   1.00
H1177  H     0.81123   0.29436   0.91765   0.00000  Uiso   1.00
H1178  H     0.84742   0.31695   0.87737   0.00000  Uiso   1.00
H1179  H     0.88091   0.25812   0.92194   0.00000  Uiso   1.00
H1180  H     0.87821   0.23956   0.86643   0.00000  Uiso   1.00
H1181  H     0.91604   0.17033   0.64448   0.00000  Uiso   1.00
H1182  H     0.95330   0.13403   0.61794   0.00000  Uiso   1.00
H1183  H     0.92744   0.17615   0.58557   0.00000  Uiso   1.00
H1184  H     0.88204   0.09443   0.63150   0.00000  Uiso   1.00
H1185  H     0.90121   0.09337   0.57632   0.00000  Uiso   1.00
H1186  H     0.70766   0.11464   0.63399   0.00000  Uiso   1.00
H1187  H     0.79371   0.04091   0.69416   0.00000  Uiso   1.00
H1188  H     0.75452   0.12924   0.66344   0.00000  Uiso   1.00
H1189  H     0.74706   0.07262   0.64109   0.00000  Uiso   1.00
H1190  H     0.73296   0.07125   0.72414   0.00000  Uiso   1.00
H1191  H     0.69221   0.05691   0.69259   0.00000  Uiso   1.00
H1192  H     0.91943   0.24181   0.67910   0.00000  Uiso   1.00
H1193  H     0.94760   0.29456   0.67317   0.00000  Uiso   1.00
H1194  H     0.97277   0.24184   0.66016   0.00000  Uiso   1.00
H1195  H     0.94101   0.26757   0.75512   0.00000  Uiso   1.00
H1196  H     0.99100   0.28092   0.73399   0.00000  Uiso   1.00
H1197  H     0.98014   0.03121   0.74203   0.00000  Uiso   1.00
H1198  H     0.87578   0.29222   0.80339   0.00000  Uiso   1.00
H1199  H     0.93886   0.06075   0.76866   0.00000  Uiso   1.00
H1200  H     0.92779   0.02093   0.72390   0.00000  Uiso   1.00
H1201  H     0.92263   0.09456   0.69043   0.00000  Uiso   1.00
H1202  H     0.96721   0.07336   0.67004   0.00000  Uiso   1.00
H1203  H     0.69238   0.19265   0.84932   0.00000  Uiso   1.00
H1204  H     0.74605   0.19916   0.83266   0.00000  Uiso   1.00
H1205  H     0.72141   0.24411   0.86261   0.00000  Uiso   1.00
H1206  H     0.72781   0.26043   0.77884   0.00000  Uiso   1.00
H1207  H     0.67793   0.26249   0.80302   0.00000  Uiso   1.00
H1208  H     0.75806   0.20533   0.53693   0.00000  Uiso   1.00
H1209  H     0.78299   0.09870   0.96838   0.00000  Uiso   1.00
H1210  H     0.83426   0.23319   0.97854   0.00000  Uiso   1.00
H1211  H     0.86243   0.11989   0.51924   0.00000  Uiso   1.00
H1212  H     0.79345   0.28078   0.61771   0.00000  Uiso   1.00
N1213  N     0.83333   0.28573   0.75000   0.00000  Uiso   1.00
N1214  N     0.83333   0.04760   0.75000   0.00000  Uiso   1.00
O1215  O     0.77226   0.20487   0.74999   0.00000  Uiso   1.00
O1216  O     0.89441   0.12846   0.75001   0.00000  Uiso   1.00
O1217  O     0.89441   0.20487   0.75001   0.00000  Uiso   1.00
O1218  O     0.77226   0.12846   0.74999   0.00000  Uiso   1.00
O1219  O     0.83333   0.20489   0.68453   0.00000  Uiso   1.00
O1220  O     0.83334   0.12845   0.81547   0.00000  Uiso   1.00
O1221  O     0.83334   0.20489   0.81547   0.00000  Uiso   1.00
O1222  O     0.83333   0.12845   0.68453   0.00000  Uiso   1.00
Zn1223 Zn    0.83333   0.21771   0.75000   0.00000  Uiso   1.00
Zn1224 Zn    0.83333   0.11563   0.75000   0.00000  Uiso   1.00
C1225  C     0.08631   0.49933   0.74911   0.00000  Uiso   1.00
C1226  C     0.31337   0.54132   0.74312   0.00000  Uiso   1.00
C1227  C     0.31093   0.46053   0.72077   0.00000  Uiso   1.00
C1228  C     0.01972   0.53657   0.75925   0.00000  Uiso   1.00
C1229  C     0.11677   0.52055   0.55174   0.00000  Uiso   1.00
C1230  C     0.12964   0.46156   0.95157   0.00000  Uiso   1.00
C1231  C     0.15832   0.53789   0.95740   0.00000  Uiso   1.00
C1232  C     0.17542   0.47143   0.54184   0.00000  Uiso   1.00
C1233  C     0.12370   0.52296   0.59759   0.00000  Uiso   1.00
C1234  C     0.13711   0.46054   0.90578   0.00000  Uiso   1.00
C1235  C     0.16791   0.53831   0.91210   0.00000  Uiso   1.00
C1236  C     0.24644   0.50032   0.74421   0.00000  Uiso   1.00
C1237  C     0.18395   0.47335   0.58716   0.00000  Uiso   1.00
C1238  C     0.15804   0.49935   0.61563   0.00000  Uiso   1.00
C1239  C     0.15724   0.49937   0.88523   0.00000  Uiso   1.00
C1240  C     0.14272   0.49548   0.52449   0.00000  Uiso   1.00
C1241  C     0.14050   0.49953   0.97679   0.00000  Uiso   1.00
C1242  C     0.29048   0.50094   0.73441   0.00000  Uiso   1.00
C1243  C     0.04176   0.49778   0.74497   0.00000  Uiso   1.00
C1244  C     0.09267   0.54970   0.62512   0.00000  Uiso   1.00
C1245  C     0.09467   0.60052   0.61394   0.00000  Uiso   1.00
C1246  C     0.12296   0.41695   0.88175   0.00000  Uiso   1.00
C1247  C     0.16541   0.49988   0.66359   0.00000  Uiso   1.00
C1248  C     0.08338   0.42398   0.85535   0.00000  Uiso   1.00
C1249  C     0.19181   0.58011   0.89588   0.00000  Uiso   1.00
C1250  C     0.16257   0.61938   0.88704   0.00000  Uiso   1.00
C1251  C     0.22257   0.44996   0.60272   0.00000  Uiso   1.00
C1252  C     0.25684   0.48487   0.61338   0.00000  Uiso   1.00
C1253  C     0.04456   0.42050   0.70099   0.00000  Uiso   1.00
C1254  C     0.06478   0.43524   0.65722   0.00000  Uiso   1.00
C1255  C     0.29840   0.58898   0.73147   0.00000  Uiso   1.00
C1256  C     0.28362   0.59167   0.68308   0.00000  Uiso   1.00
C1257  C     0.28703   0.41915   0.70184   0.00000  Uiso   1.00
C1258  C     0.16505   0.49994   0.83671   0.00000  Uiso   1.00
C1259  C     0.28335   0.38074   0.73611   0.00000  Uiso   1.00
C1260  C     0.03609   0.57197   0.79319   0.00000  Uiso   1.00
C1261  C     0.04980   0.55036   0.83693   0.00000  Uiso   1.00
C1262  C     0.18920   0.35809   0.78073   0.00000  Uiso   1.00
C1263  C     0.14356   0.64187   0.71989   0.00000  Uiso   1.00
C1264  C     0.14428   0.35660   0.71921   0.00000  Uiso   1.00
C1265  C     0.19000   0.64334   0.78000   0.00000  Uiso   1.00
C1266  C     0.02110   0.46014   0.72294   0.00000  Uiso   1.00
H1267  H     0.20704   0.37698   0.80535   0.00000  Uiso   1.00
H1268  H     0.08437   0.60641   0.57919   0.00000  Uiso   1.00
H1269  H     0.07381   0.61951   0.63675   0.00000  Uiso   1.00
H1270  H     0.06097   0.53633   0.61783   0.00000  Uiso   1.00
H1271  H     0.09667   0.54574   0.66146   0.00000  Uiso   1.00
H1272  H     0.08717   0.45245   0.83171   0.00000  Uiso   1.00
H1273  H     0.07535   0.39244   0.83625   0.00000  Uiso   1.00
H1274  H     0.05746   0.43185   0.87851   0.00000  Uiso   1.00
H1275  H     0.14779   0.40228   0.86085   0.00000  Uiso   1.00
H1276  H     0.11597   0.38932   0.90608   0.00000  Uiso   1.00
H1277  H     0.14068   0.61028   0.85979   0.00000  Uiso   1.00
H1278  H     0.12474   0.62285   0.69650   0.00000  Uiso   1.00
H1279  H     0.14456   0.62770   0.91765   0.00000  Uiso   1.00
H1280  H     0.18076   0.65028   0.87737   0.00000  Uiso   1.00
H1281  H     0.21425   0.59145   0.92194   0.00000  Uiso   1.00
H1282  H     0.21154   0.57290   0.86643   0.00000  Uiso   1.00
H1283  H     0.24937   0.50366   0.64448   0.00000  Uiso   1.00
H1284  H     0.28664   0.46737   0.61794   0.00000  Uiso   1.00
H1285  H     0.26077   0.50948   0.58557   0.00000  Uiso   1.00
H1286  H     0.21537   0.42776   0.63150   0.00000  Uiso   1.00
H1287  H     0.23455   0.42670   0.57632   0.00000  Uiso   1.00
H1288  H     0.04100   0.44797   0.63399   0.00000  Uiso   1.00
H1289  H     0.12704   0.37424   0.69416   0.00000  Uiso   1.00
H1290  H     0.08786   0.46257   0.66344   0.00000  Uiso   1.00
H1291  H     0.08039   0.40595   0.64109   0.00000  Uiso   1.00
H1292  H     0.06629   0.40458   0.72414   0.00000  Uiso   1.00
H1293  H     0.02555   0.39024   0.69259   0.00000  Uiso   1.00
H1294  H     0.25277   0.57515   0.67910   0.00000  Uiso   1.00
H1295  H     0.28093   0.62789   0.67317   0.00000  Uiso   1.00
H1296  H     0.30611   0.57518   0.66016   0.00000  Uiso   1.00
H1297  H     0.27434   0.60090   0.75512   0.00000  Uiso   1.00
H1298  H     0.32434   0.61426   0.73399   0.00000  Uiso   1.00
H1299  H     0.31347   0.36454   0.74203   0.00000  Uiso   1.00
H1300  H     0.20911   0.62556   0.80339   0.00000  Uiso   1.00
H1301  H     0.27219   0.39408   0.76866   0.00000  Uiso   1.00
H1302  H     0.26112   0.35426   0.72390   0.00000  Uiso   1.00
H1303  H     0.25596   0.42790   0.69043   0.00000  Uiso   1.00
H1304  H     0.30054   0.40670   0.67004   0.00000  Uiso   1.00
H1305  H     0.02571   0.52598   0.84932   0.00000  Uiso   1.00
H1306  H     0.07939   0.53249   0.83266   0.00000  Uiso   1.00
H1307  H     0.05474   0.57745   0.86261   0.00000  Uiso   1.00
H1308  H     0.06114   0.59377   0.77884   0.00000  Uiso   1.00
H1309  H     0.01127   0.59583   0.80302   0.00000  Uiso   1.00
H1310  H     0.09139   0.53867   0.53693   0.00000  Uiso   1.00
H1311  H     0.11633   0.43203   0.96838   0.00000  Uiso   1.00
H1312  H     0.16759   0.56652   0.97854   0.00000  Uiso   1.00
H1313  H     0.19576   0.45322   0.51924   0.00000  Uiso   1.00
H1314  H     0.12678   0.61412   0.61771   0.00000  Uiso   1.00
N1315  N     0.16667   0.61907   0.75000   0.00000  Uiso   1.00
N1316  N     0.16667   0.38093   0.75000   0.00000  Uiso   1.00
O1317  O     0.10559   0.53821   0.74999   0.00000  Uiso   1.00
O1318  O     0.22774   0.46179   0.75001   0.00000  Uiso   1.00
O1319  O     0.22774   0.53821   0.75001   0.00000  Uiso   1.00
O1320  O     0.10559   0.46179   0.74999   0.00000  Uiso   1.00
O1321  O     0.16666   0.53822   0.68453   0.00000  Uiso   1.00
O1322  O     0.16667   0.46178   0.81547   0.00000  Uiso   1.00
O1323  O     0.16667   0.53822   0.81547   0.00000  Uiso   1.00
O1324  O     0.16666   0.46178   0.68453   0.00000  Uiso   1.00
Zn1325 Zn    0.16667   0.55104   0.75000   0.00000  Uiso   1.00
Zn1326 Zn    0.16667   0.44896   0.75000   0.00000  Uiso   1.00
C1327  C     0.41964   0.49933   0.74911   0.00000  Uiso   1.00
C1328  C     0.64670   0.54132   0.74312   0.00000  Uiso   1.00
C1329  C     0.64427   0.46053   0.72077   0.00000  Uiso   1.00
C1330  C     0.35305   0.53657   0.75925   0.00000  Uiso   1.00
C1331  C     0.45011   0.52055   0.55174   0.00000  Uiso   1.00
C1332  C     0.46297   0.46156   0.95157   0.00000  Uiso   1.00
C1333  C     0.49166   0.53789   0.95740   0.00000  Uiso   1.00
C1334  C     0.50875   0.47143   0.54184   0.00000  Uiso   1.00
C1335  C     0.45703   0.52296   0.59759   0.00000  Uiso   1.00
C1336  C     0.47044   0.46054   0.90578   0.00000  Uiso   1.00
C1337  C     0.50125   0.53831   0.91210   0.00000  Uiso   1.00
C1338  C     0.57978   0.50032   0.74421   0.00000  Uiso   1.00
C1339  C     0.51728   0.47335   0.58716   0.00000  Uiso   1.00
C1340  C     0.49137   0.49935   0.61563   0.00000  Uiso   1.00
C1341  C     0.49058   0.49937   0.88523   0.00000  Uiso   1.00
C1342  C     0.47605   0.49548   0.52449   0.00000  Uiso   1.00
C1343  C     0.47383   0.49953   0.97679   0.00000  Uiso   1.00
C1344  C     0.62382   0.50094   0.73441   0.00000  Uiso   1.00
C1345  C     0.37509   0.49778   0.74497   0.00000  Uiso   1.00
C1346  C     0.42600   0.54970   0.62512   0.00000  Uiso   1.00
C1347  C     0.42800   0.60052   0.61394   0.00000  Uiso   1.00
C1348  C     0.45630   0.41695   0.88175   0.00000  Uiso   1.00
C1349  C     0.49874   0.49988   0.66359   0.00000  Uiso   1.00
C1350  C     0.41671   0.42398   0.85535   0.00000  Uiso   1.00
C1351  C     0.52515   0.58011   0.89588   0.00000  Uiso   1.00
C1352  C     0.49590   0.61938   0.88704   0.00000  Uiso   1.00
C1353  C     0.55590   0.44996   0.60272   0.00000  Uiso   1.00
C1354  C     0.59018   0.48487   0.61338   0.00000  Uiso   1.00
C1355  C     0.37790   0.42050   0.70099   0.00000  Uiso   1.00
C1356  C     0.39811   0.43524   0.65722   0.00000  Uiso   1.00
C1357  C     0.63173   0.58898   0.73147   0.00000  Uiso   1.00
C1358  C     0.61696   0.59167   0.68308   0.00000  Uiso   1.00
C1359  C     0.62036   0.41915   0.70184   0.00000  Uiso   1.00
C1360  C     0.49838   0.49994   0.83671   0.00000  Uiso   1.00
C1361  C     0.61668   0.38074   0.73611   0.00000  Uiso   1.00
C1362  C     0.36942   0.57197   0.79319   0.00000  Uiso   1.00
C1363  C     0.38313   0.55036   0.83693   0.00000  Uiso   1.00
C1364  C     0.52253   0.35809   0.78073   0.00000  Uiso   1.00
C1365  C     0.47689   0.64187   0.71989   0.00000  Uiso   1.00
C1366  C     0.47761   0.35660   0.71921   0.00000  Uiso   1.00
C1367  C     0.52333   0.64334   0.78000   0.00000  Uiso   1.00
C1368  C     0.35444   0.46014   0.72294   0.00000  Uiso   1.00
H1369  H     0.54037   0.37698   0.80535   0.00000  Uiso   1.00
H1370  H     0.41771   0.60641   0.57919   0.00000  Uiso   1.00
H1371  H     0.40714   0.61951   0.63675   0.00000  Uiso   1.00
H1372  H     0.39431   0.53633   0.61783   0.00000  Uiso   1.00
H1373  H     0.43001   0.54574   0.66146   0.00000  Uiso   1.00
H1374  H     0.42051   0.45245   0.83171   0.00000  Uiso   1.00
H1375  H     0.40869   0.39244   0.83625   0.00000  Uiso   1.00
H1376  H     0.39080   0.43185   0.87851   0.00000  Uiso   1.00
H1377  H     0.48112   0.40228   0.86085   0.00000  Uiso   1.00
H1378  H     0.44930   0.38932   0.90608   0.00000  Uiso   1.00
H1379  H     0.47402   0.61028   0.85979   0.00000  Uiso   1.00
H1380  H     0.45808   0.62285   0.69650   0.00000  Uiso   1.00
H1381  H     0.47790   0.62770   0.91765   0.00000  Uiso   1.00
H1382  H     0.51409   0.65028   0.87737   0.00000  Uiso   1.00
H1383  H     0.54758   0.59145   0.92194   0.00000  Uiso   1.00
H1384  H     0.54488   0.57290   0.86643   0.00000  Uiso   1.00
H1385  H     0.58271   0.50366   0.64448   0.00000  Uiso   1.00
H1386  H     0.61997   0.46737   0.61794   0.00000  Uiso   1.00
H1387  H     0.59411   0.50948   0.58557   0.00000  Uiso   1.00
H1388  H     0.54870   0.42776   0.63150   0.00000  Uiso   1.00
H1389  H     0.56788   0.42670   0.57632   0.00000  Uiso   1.00
H1390  H     0.37433   0.44797   0.63399   0.00000  Uiso   1.00
H1391  H     0.46037   0.37424   0.69416   0.00000  Uiso   1.00
H1392  H     0.42119   0.46257   0.66344   0.00000  Uiso   1.00
H1393  H     0.41373   0.40595   0.64109   0.00000  Uiso   1.00
H1394  H     0.39962   0.40458   0.72414   0.00000  Uiso   1.00
H1395  H     0.35888   0.39024   0.69259   0.00000  Uiso   1.00
H1396  H     0.58610   0.57515   0.67910   0.00000  Uiso   1.00
H1397  H     0.61427   0.62789   0.67317   0.00000  Uiso   1.00
H1398  H     0.63944   0.57518   0.66016   0.00000  Uiso   1.00
H1399  H     0.60768   0.60090   0.75512   0.00000  Uiso   1.00
H1400  H     0.65767   0.61426   0.73399   0.00000  Uiso   1.00
H1401  H     0.64681   0.36454   0.74203   0.00000  Uiso   1.00
H1402  H     0.54244   0.62556   0.80339   0.00000  Uiso   1.00
H1403  H     0.60552   0.39408   0.76866   0.00000  Uiso   1.00
H1404  H     0.59446   0.35426   0.72390   0.00000  Uiso   1.00
H1405  H     0.58930   0.42790   0.69043   0.00000  Uiso   1.00
H1406  H     0.63388   0.40670   0.67004   0.00000  Uiso   1.00
H1407  H     0.35904   0.52598   0.84932   0.00000  Uiso   1.00
H1408  H     0.41272   0.53249   0.83266   0.00000  Uiso   1.00
H1409  H     0.38808   0.57745   0.86261   0.00000  Uiso   1.00
H1410  H     0.39447   0.59377   0.77884   0.00000  Uiso   1.00
H1411  H     0.34460   0.59583   0.80302   0.00000  Uiso   1.00
H1412  H     0.42472   0.53867   0.53693   0.00000  Uiso   1.00
H1413  H     0.44966   0.43203   0.96838   0.00000  Uiso   1.00
H1414  H     0.50092   0.56652   0.97854   0.00000  Uiso   1.00
H1415  H     0.52910   0.45322   0.51924   0.00000  Uiso   1.00
H1416  H     0.46012   0.61412   0.61771   0.00000  Uiso   1.00
N1417  N     0.50000   0.61907   0.75000   0.00000  Uiso   1.00
N1418  N     0.50000   0.38093   0.75000   0.00000  Uiso   1.00
O1419  O     0.43892   0.53821   0.74999   0.00000  Uiso   1.00
O1420  O     0.56108   0.46179   0.75001   0.00000  Uiso   1.00
O1421  O     0.56108   0.53821   0.75001   0.00000  Uiso   1.00
O1422  O     0.43892   0.46179   0.74999   0.00000  Uiso   1.00
O1423  O     0.50000   0.53822   0.68453   0.00000  Uiso   1.00
O1424  O     0.50000   0.46178   0.81547   0.00000  Uiso   1.00
O1425  O     0.50000   0.53822   0.81547   0.00000  Uiso   1.00
O1426  O     0.50000   0.46178   0.68453   0.00000  Uiso   1.00
Zn1427 Zn    0.50000   0.55104   0.75000   0.00000  Uiso   1.00
Zn1428 Zn    0.50000   0.44896   0.75000   0.00000  Uiso   1.00
C1429  C     0.75298   0.49933   0.74911   0.00000  Uiso   1.00
C1430  C     0.98003   0.54132   0.74312   0.00000  Uiso   1.00
C1431  C     0.97760   0.46053   0.72077   0.00000  Uiso   1.00
C1432  C     0.68638   0.53657   0.75925   0.00000  Uiso   1.00
C1433  C     0.78344   0.52055   0.55174   0.00000  Uiso   1.00
C1434  C     0.79631   0.46156   0.95157   0.00000  Uiso   1.00
C1435  C     0.82499   0.53789   0.95740   0.00000  Uiso   1.00
C1436  C     0.84208   0.47143   0.54184   0.00000  Uiso   1.00
C1437  C     0.79037   0.52296   0.59759   0.00000  Uiso   1.00
C1438  C     0.80378   0.46054   0.90578   0.00000  Uiso   1.00
C1439  C     0.83458   0.53831   0.91210   0.00000  Uiso   1.00
C1440  C     0.91311   0.50032   0.74421   0.00000  Uiso   1.00
C1441  C     0.85062   0.47335   0.58716   0.00000  Uiso   1.00
C1442  C     0.82470   0.49935   0.61563   0.00000  Uiso   1.00
C1443  C     0.82391   0.49937   0.88523   0.00000  Uiso   1.00
C1444  C     0.80938   0.49548   0.52449   0.00000  Uiso   1.00
C1445  C     0.80716   0.49953   0.97679   0.00000  Uiso   1.00
C1446  C     0.95715   0.50094   0.73441   0.00000  Uiso   1.00
C1447  C     0.70843   0.49778   0.74497   0.00000  Uiso   1.00
C1448  C     0.75933   0.54970   0.62512   0.00000  Uiso   1.00
C1449  C     0.76133   0.60052   0.61394   0.00000  Uiso   1.00
C1450  C     0.78963   0.41695   0.88175   0.00000  Uiso   1.00
C1451  C     0.83208   0.49988   0.66359   0.00000  Uiso   1.00
C1452  C     0.75004   0.42398   0.85535   0.00000  Uiso   1.00
C1453  C     0.85848   0.58011   0.89588   0.00000  Uiso   1.00
C1454  C     0.82923   0.61938   0.88704   0.00000  Uiso   1.00
C1455  C     0.88924   0.44996   0.60272   0.00000  Uiso   1.00
C1456  C     0.92351   0.48487   0.61338   0.00000  Uiso   1.00
C1457  C     0.71123   0.42050   0.70099   0.00000  Uiso   1.00
C1458  C     0.73144   0.43524   0.65722   0.00000  Uiso   1.00
C1459  C     0.96507   0.58898   0.73147   0.00000  Uiso   1.00
C1460  C     0.95029   0.59167   0.68308   0.00000  Uiso   1.00
C1461  C     0.95369   0.41915   0.70184   0.00000  Uiso   1.00
C1462  C     0.83171   0.49994   0.83671   0.00000  Uiso   1.00
C1463  C     0.95001   0.38074   0.73611   0.00000  Uiso   1.00
C1464  C     0.70275   0.57197   0.79319   0.00000  Uiso   1.00
C1465  C     0.71646   0.55036   0.83693   0.00000  Uiso   1.00
C1466  C     0.85587   0.35809   0.78073   0.00000  Uiso   1.00
C1467  C     0.81023   0.64187   0.71989   0.00000  Uiso   1.00
C1468  C     0.81094   0.35660   0.71921   0.00000  Uiso   1.00
C1469  C     0.85666   0.64334   0.78000   0.00000  Uiso   1.00
C1470  C     0.68777   0.46014   0.72294   0.00000  Uiso   1.00
H1471  H     0.87371   0.37698   0.80535   0.00000  Uiso   1.00
H1472  H     0.75104   0.60641   0.57919   0.00000  Uiso   1.00
H1473  H     0.74048   0.61951   0.63675   0.00000  Uiso   1.00
H1474  H     0.72764   0.53633   0.61783   0.00000  Uiso   1.00
H1475  H     0.76334   0.54574   0.66146   0.00000  Uiso   1.00
H1476  H     0.75384   0.45245   0.83171   0.00000  Uiso   1.00
H1477  H     0.74202   0.39244   0.83625   0.00000  Uiso   1.00
H1478  H     0.72413   0.43185   0.87851   0.00000  Uiso   1.00
H1479  H     0.81446   0.40228   0.86085   0.00000  Uiso   1.00
H1480  H     0.78263   0.38932   0.90608   0.00000  Uiso   1.00
H1481  H     0.80735   0.61028   0.85979   0.00000  Uiso   1.00
H1482  H     0.79141   0.62285   0.69650   0.00000  Uiso   1.00
H1483  H     0.81123   0.62770   0.91765   0.00000  Uiso   1.00
H1484  H     0.84742   0.65028   0.87737   0.00000  Uiso   1.00
H1485  H     0.88091   0.59145   0.92194   0.00000  Uiso   1.00
H1486  H     0.87821   0.57290   0.86643   0.00000  Uiso   1.00
H1487  H     0.91604   0.50366   0.64448   0.00000  Uiso   1.00
H1488  H     0.95330   0.46737   0.61794   0.00000  Uiso   1.00
H1489  H     0.92744   0.50948   0.58557   0.00000  Uiso   1.00
H1490  H     0.88204   0.42776   0.63150   0.00000  Uiso   1.00
H1491  H     0.90121   0.42670   0.57632   0.00000  Uiso   1.00
H1492  H     0.70766   0.44797   0.63399   0.00000  Uiso   1.00
H1493  H     0.79371   0.37424   0.69416   0.00000  Uiso   1.00
H1494  H     0.75452   0.46257   0.66344   0.00000  Uiso   1.00
H1495  H     0.74706   0.40595   0.64109   0.00000  Uiso   1.00
H1496  H     0.73296   0.40458   0.72414   0.00000  Uiso   1.00
H1497  H     0.69221   0.39024   0.69259   0.00000  Uiso   1.00
H1498  H     0.91943   0.57515   0.67910   0.00000  Uiso   1.00
H1499  H     0.94760   0.62789   0.67317   0.00000  Uiso   1.00
H1500  H     0.97277   0.57518   0.66016   0.00000  Uiso   1.00
H1501  H     0.94101   0.60090   0.75512   0.00000  Uiso   1.00
H1502  H     0.99100   0.61426   0.73399   0.00000  Uiso   1.00
H1503  H     0.98014   0.36454   0.74203   0.00000  Uiso   1.00
H1504  H     0.87578   0.62556   0.80339   0.00000  Uiso   1.00
H1505  H     0.93886   0.39408   0.76866   0.00000  Uiso   1.00
H1506  H     0.92779   0.35426   0.72390   0.00000  Uiso   1.00
H1507  H     0.92263   0.42790   0.69043   0.00000  Uiso   1.00
H1508  H     0.96721   0.40670   0.67004   0.00000  Uiso   1.00
H1509  H     0.69238   0.52598   0.84932   0.00000  Uiso   1.00
H1510  H     0.74605   0.53249   0.83266   0.00000  Uiso   1.00
H1511  H     0.72141   0.57745   0.86261   0.00000  Uiso   1.00
H1512  H     0.72781   0.59377   0.77884   0.00000  Uiso   1.00
H1513  H     0.67793   0.59583   0.80302   0.00000  Uiso   1.00
H1514  H     0.75806   0.53867   0.53693   0.00000  Uiso   1.00
H1515  H     0.78299   0.43203   0.96838   0.00000  Uiso   1.00
H1516  H     0.83426   0.56652   0.97854   0.00000  Uiso   1.00
H1517  H     0.86243   0.45322   0.51924   0.00000  Uiso   1.00
H1518  H     0.79345   0.61412   0.61771   0.00000  Uiso   1.00
N1519  N     0.83333   0.61907   0.75000   0.00000  Uiso   1.00
N1520  N     0.83333   0.38093   0.75000   0.00000  Uiso   1.00
O1521  O     0.77226   0.53821   0.74999   0.00000  Uiso   1.00
O1522  O     0.89441   0.46179   0.75001   0.00000  Uiso   1.00
O1523  O     0.89441   0.53821   0.75001   0.00000  Uiso   1.00
O1524  O     0.77226   0.46179   0.74999   0.00000  Uiso   1.00
O1525  O     0.83333   0.53822   0.68453   0.00000  Uiso   1.00
O1526  O     0.83334   0.46178   0.81547   0.00000  Uiso   1.00
O1527  O     0.83334   0.53822   0.81547   0.00000  Uiso   1.00
O1528  O     0.83333   0.46178   0.68453   0.00000  Uiso   1.00
Zn1529 Zn    0.83333   0.55104   0.75000   0.00000  Uiso   1.00
Zn1530 Zn    0.83333   0.44896   0.75000   0.00000  Uiso   1.00
C1531  C     0.08631   0.83267   0.74911   0.00000  Uiso   1.00
C1532  C     0.31337   0.87465   0.74312   0.00000  Uiso   1.00
C1533  C     0.31093   0.79386   0.72077   0.00000  Uiso   1.00
C1534  C     0.01972   0.86990   0.75925   0.00000  Uiso   1.00
C1535  C     0.11677   0.85388   0.55174   0.00000  Uiso   1.00
C1536  C     0.12964   0.79489   0.95157   0.00000  Uiso   1.00
C1537  C     0.15832   0.87122   0.95740   0.00000  Uiso   1.00
C1538  C     0.17542   0.80477   0.54184   0.00000  Uiso   1.00
C1539  C     0.12370   0.85629   0.59759   0.00000  Uiso   1.00
C1540  C     0.13711   0.79387   0.90578   0.00000  Uiso   1.00
C1541  C     0.16791   0.87165   0.91210   0.00000  Uiso   1.00
C1542  C     0.24644   0.83365   0.74421   0.00000  Uiso   1.00
C1543  C     0.18395   0.80668   0.58716   0.00000  Uiso   1.00
C1544  C     0.15804   0.83269   0.61563   0.00000  Uiso   1.00
C1545  C     0.15724   0.83270   0.88523   0.00000  Uiso   1.00
C1546  C     0.14272   0.82881   0.52449   0.00000  Uiso   1.00
C1547  C     0.14050   0.83286   0.97679   0.00000  Uiso   1.00
C1548  C     0.29048   0.83427   0.73441   0.00000  Uiso   1.00
C1549  C     0.04176   0.83112   0.74497   0.00000  Uiso   1.00
C1550  C     0.09267   0.88304   0.62512   0.00000  Uiso   1.00
C1551  C     0.09467   0.93386   0.61394   0.00000  Uiso   1.00
C1552  C     0.12296   0.75028   0.88175   0.00000  Uiso   1.00
C1553  C     0.16541   0.83321   0.66359   0.00000  Uiso   1.00
C1554  C     0.08338   0.75732   0.85535   0.00000  Uiso   1.00
C1555  C     0.19181   0.91344   0.89588   0.00000  Uiso   1.00
C1556  C     0.16257   0.95272   0.88704   0.00000  Uiso   1.00
C1557  C     0.22257   0.78329   0.60272   0.00000  Uiso   1.00
C1558  C     0.25684   0.81820   0.61338   0.00000  Uiso   1.00
C1559  C     0.04456   0.75383   0.70099   0.00000  Uiso   1.00
C1560  C     0.06478   0.76857   0.65722   0.00000  Uiso   1.00
C1561  C     0.29840   0.92231   0.73147   0.00000  Uiso   1.00
C1562  C     0.28362   0.92500   0.68308   0.00000  Uiso   1.00
C1563  C     0.28703   0.75248   0.70184   0.00000  Uiso   1.00
C1564  C     0.16505   0.83327   0.83671   0.00000  Uiso   1.00
C1565  C     0.28335   0.71407   0.73611   0.00000  Uiso   1.00
C1566  C     0.03609   0.90530   0.79319   0.00000  Uiso   1.00
C1567  C     0.04980   0.88370   0.83693   0.00000  Uiso   1.00
C1568  C     0.18920   0.69142   0.78073   0.00000  Uiso   1.00
C1569  C     0.14356   0.97521   0.71989   0.00000  Uiso   1.00
C1570  C     0.14428   0.68994   0.71921   0.00000  Uiso   1.00
C1571  C     0.19000   0.97667   0.78000   0.00000  Uiso   1.00
C1572  C     0.02110   0.79347   0.72294   0.00000  Uiso   1.00
H1573  H     0.20704   0.71032   0.80535   0.00000  Uiso   1.00
H1574  H     0.08437   0.93974   0.57919   0.00000  Uiso   1.00
H1575  H     0.07381   0.95285   0.63675   0.00000  Uiso   1.00
H1576  H     0.06097   0.86967   0.61783   0.00000  Uiso   1.00
H1577  H     0.09667   0.87907   0.66146   0.00000  Uiso   1.00
H1578  H     0.08717   0.78579   0.83171   0.00000  Uiso   1.00
H1579  H     0.07535   0.72577   0.83625   0.00000  Uiso   1.00
H1580  H     0.05746   0.76519   0.87851   0.00000  Uiso   1.00
H1581  H     0.14779   0.73561   0.86085   0.00000  Uiso   1.00
H1582  H     0.11597   0.72265   0.90608   0.00000  Uiso   1.00
H1583  H     0.14068   0.94361   0.85979   0.00000  Uiso   1.00
H1584  H     0.12474   0.95618   0.69650   0.00000  Uiso   1.00
H1585  H     0.14456   0.96103   0.91765   0.00000  Uiso   1.00
H1586  H     0.18076   0.98362   0.87737   0.00000  Uiso   1.00
H1587  H     0.21425   0.92479   0.92194   0.00000  Uiso   1.00
H1588  H     0.21154   0.90623   0.86643   0.00000  Uiso   1.00
H1589  H     0.24937   0.83699   0.64448   0.00000  Uiso   1.00
H1590  H     0.28664   0.80070   0.61794   0.00000  Uiso   1.00
H1591  H     0.26077   0.84281   0.58557   0.00000  Uiso   1.00
H1592  H     0.21537   0.76109   0.63150   0.00000  Uiso   1.00
H1593  H     0.23455   0.76003   0.57632   0.00000  Uiso   1.00
H1594  H     0.04100   0.78131   0.63399   0.00000  Uiso   1.00
H1595  H     0.12704   0.70757   0.69416   0.00000  Uiso   1.00
H1596  H     0.08786   0.79590   0.66344   0.00000  Uiso   1.00
H1597  H     0.08039   0.73928   0.64109   0.00000  Uiso   1.00
H1598  H     0.06629   0.73792   0.72414   0.00000  Uiso   1.00
H1599  H     0.02555   0.72357   0.69259   0.00000  Uiso   1.00
H1600  H     0.25277   0.90848   0.67910   0.00000  Uiso   1.00
H1601  H     0.28093   0.96122   0.67317   0.00000  Uiso   1.00
H1602  H     0.30611   0.90851   0.66016   0.00000  Uiso   1.00
H1603  H     0.27434   0.93424   0.75512   0.00000  Uiso   1.00
H1604  H     0.32434   0.94759   0.73399   0.00000  Uiso   1.00
H1605  H     0.31347   0.69787   0.74203   0.00000  Uiso   1.00
H1606  H     0.20911   0.95889   0.80339   0.00000  Uiso   1.00
H1607  H     0.27219   0.72742   0.76866   0.00000  Uiso   1.00
H1608  H     0.26112   0.68760   0.72390   0.00000  Uiso   1.00
H1609  H     0.25596   0.76123   0.69043   0.00000  Uiso   1.00
H1610  H     0.30054   0.74003   0.67004   0.00000  Uiso   1.00
H1611  H     0.02571   0.85932   0.84932   0.00000  Uiso   1.00
H1612  H     0.07939   0.86582   0.83266   0.00000  Uiso   1.00
H1613  H     0.05474   0.91078   0.86261   0.00000  Uiso   1.00
H1614  H     0.06114   0.92710   0.77884   0.00000  Uiso   1.00
H1615  H     0.01127   0.92916   0.80302   0.00000  Uiso   1.00
H1616  H     0.09139   0.87200   0.53693   0.00000  Uiso   1.00
H1617  H     0.11633   0.76537   0.96838   0.00000  Uiso   1.00
H1618  H     0.16759   0.89985   0.97854   0.00000  Uiso   1.00
H1619  H     0.19576   0.78655   0.51924   0.00000  Uiso   1.00
H1620  H     0.12678   0.94745   0.61771   0.00000  Uiso   1.00
N1621  N     0.16667   0.95240   0.75000   0.00000  Uiso   1.00
N1622  N     0.16667   0.71427   0.75000   0.00000  Uiso   1.00
O1623  O     0.10559   0.87154   0.74999   0.00000  Uiso   1.00
O1624  O     0.22774   0.79513   0.75001   0.00000  Uiso   1.00
O1625  O     0.22774   0.87154   0.75001   0.00000  Uiso   1.00
O1626  O     0.10559   0.79513   0.74999   0.00000  Uiso   1.00
O1627  O     0.16666   0.87155   0.68453   0.00000  Uiso   1.00
O1628  O     0.16667   0.79511   0.81547   0.00000  Uiso   1.00
O1629  O     0.16667   0.87155   0.81547   0.00000  Uiso   1.00
O1630  O     0.16666   0.79511   0.68453   0.00000  Uiso   1.00
Zn1631 Zn    0.16667   0.88437   0.75000   0.00000  Uiso   1.00
Zn1632 Zn    0.16667   0.78229   0.75000   0.00000  Uiso   1.00
C1633  C     0.41964   0.83267   0.74911   0.00000  Uiso   1.00
C1634  C     0.64670   0.87465   0.74312   0.00000  Uiso   1.00
C1635  C     0.64427   0.79386   0.72077   0.00000  Uiso   1.00
C1636  C     0.35305   0.86990   0.75925   0.00000  Uiso   1.00
C1637  C     0.45011   0.85388   0.55174   0.00000  Uiso   1.00
C1638  C     0.46297   0.79489   0.95157   0.00000  Uiso   1.00
C1639  C     0.49166   0.87122   0.95740   0.00000  Uiso   1.00
C1640  C     0.50875   0.80477   0.54184   0.00000  Uiso   1.00
C1641  C     0.45703   0.85629   0.59759   0.00000  Uiso   1.00
C1642  C     0.47044   0.79387   0.90578   0.00000  Uiso   1.00
C1643  C     0.50125   0.87165   0.91210   0.00000  Uiso   1.00
C1644  C     0.57978   0.83365   0.74421   0.00000  Uiso   1.00
C1645  C     0.51728   0.80668   0.58716   0.00000  Uiso   1.00
C1646  C     0.49137   0.83269   0.61563   0.00000  Uiso   1.00
C1647  C     0.49058   0.83270   0.88523   0.00000  Uiso   1.00
C1648  C     0.47605   0.82881   0.52449   0.00000  Uiso   1.00
C1649  C     0.47383   0.83286   0.97679   0.00000  Uiso   1.00
C1650  C     0.62382   0.83427   0.73441   0.00000  Uiso   1.00
C1651  C     0.37509   0.83112   0.74497   0.00000  Uiso   1.00
C1652  C     0.42600   0.88304   0.62512   0.00000  Uiso   1.00
C1653  C     0.42800   0.93386   0.61394   0.00000  Uiso   1.00
C1654  C     0.45630   0.75028   0.88175   0.00000  Uiso   1.00
C1655  C     0.49874   0.83321   0.66359   0.00000  Uiso   1.00
C1656  C     0.41671   0.75732   0.85535   0.00000  Uiso   1.00
C1657  C     0.52515   0.91344   0.89588   0.00000  Uiso   1.00
C1658  C     0.49590   0.95272   0.88704   0.00000  Uiso   1.00
C1659  C     0.55590   0.78329   0.60272   0.00000  Uiso   1.00
C1660  C     0.59018   0.81820   0.61338   0.00000  Uiso   1.00
C1661  C     0.37790   0.75383   0.70099   0.00000  Uiso   1.00
C1662  C     0.39811   0.76857   0.65722   0.00000  Uiso   1.00
C1663  C     0.63173   0.92231   0.73147   0.00000  Uiso   1.00
C1664  C     0.61696   0.92500   0.68308   0.00000  Uiso   1.00
C1665  C     0.62036   0.75248   0.70184   0.00000  Uiso   1.00
C1666  C     0.49838   0.83327   0.83671   0.00000  Uiso   1.00
C1667  C     0.61668   0.71407   0.73611   0.00000  Uiso   1.00
C1668  C     0.36942   0.90530   0.79319   0.00000  Uiso   1.00
C1669  C     0.38313   0.88370   0.83693   0.00000  Uiso   1.00
C1670  C     0.52253   0.69142   0.78073   0.00000  Uiso   1.00
C1671  C     0.47689   0.97521   0.71989   0.00000  Uiso   1.00
C1672  C     0.47761   0.68994   0.71921   0.00000  Uiso   1.00
C1673  C     0.52333   0.97667   0.78000   0.00000  Uiso   1.00
C1674  C     0.35444   0.79347   0.72294   0.00000  Uiso   1.00
H1675  H     0.54037   0.71032   0.80535   0.00000  Uiso   1.00
H1676  H     0.41771   0.93974   0.57919   0.00000  Uiso   1.00
H1677  H     0.40714   0.95285   0.63675   0.00000  Uiso   1.00
H1678  H     0.39431   0.86967   0.61783   0.00000  Uiso   1.00
H1679  H     0.43001   0.87907   0.66146   0.00000  Uiso   1.00
H1680  H     0.42051   0.78579   0.83171   0.00000  Uiso   1.00
H1681  H     0.40869   0.72577   0.83625   0.00000  Uiso   1.00
H1682  H     0.39080   0.76519   0.87851   0.00000  Uiso   1.00
H1683  H     0.48112   0.73561   0.86085   0.00000  Uiso   1.00
H1684  H     0.44930   0.72265   0.90608   0.00000  Uiso   1.00
H1685  H     0.47402   0.94361   0.85979   0.00000  Uiso   1.00
H1686  H     0.45808   0.95618   0.69650   0.00000  Uiso   1.00
H1687  H     0.47790   0.96103   0.91765   0.00000  Uiso   1.00
H1688  H     0.51409   0.98362   0.87737   0.00000  Uiso   1.00
H1689  H     0.54758   0.92479   0.92194   0.00000  Uiso   1.00
H1690  H     0.54488   0.90623   0.86643   0.00000  Uiso   1.00
H1691  H     0.58271   0.83699   0.64448   0.00000  Uiso   1.00
H1692  H     0.61997   0.80070   0.61794   0.00000  Uiso   1.00
H1693  H     0.59411   0.84281   0.58557   0.00000  Uiso   1.00
H1694  H     0.54870   0.76109   0.63150   0.00000  Uiso   1.00
H1695  H     0.56788   0.76003   0.57632   0.00000  Uiso   1.00
H1696  H     0.37433   0.78131   0.63399   0.00000  Uiso   1.00
H1697  H     0.46037   0.70757   0.69416   0.00000  Uiso   1.00
H1698  H     0.42119   0.79590   0.66344   0.00000  Uiso   1.00
H1699  H     0.41373   0.73928   0.64109   0.00000  Uiso   1.00
H1700  H     0.39962   0.73792   0.72414   0.00000  Uiso   1.00
H1701  H     0.35888   0.72357   0.69259   0.00000  Uiso   1.00
H1702  H     0.58610   0.90848   0.67910   0.00000  Uiso   1.00
H1703  H     0.61427   0.96122   0.67317   0.00000  Uiso   1.00
H1704  H     0.63944   0.90851   0.66016   0.00000  Uiso   1.00
H1705  H     0.60768   0.93424   0.75512   0.00000  Uiso   1.00
H1706  H     0.65767   0.94759   0.73399   0.00000  Uiso   1.00
H1707  H     0.64681   0.69787   0.74203   0.00000  Uiso   1.00
H1708  H     0.54244   0.95889   0.80339   0.00000  Uiso   1.00
H1709  H     0.60552   0.72742   0.76866   0.00000  Uiso   1.00
H1710  H     0.59446   0.68760   0.72390   0.00000  Uiso   1.00
H1711  H     0.58930   0.76123   0.69043   0.00000  Uiso   1.00
H1712  H     0.63388   0.74003   0.67004   0.00000  Uiso   1.00
H1713  H     0.35904   0.85932   0.84932   0.00000  Uiso   1.00
H1714  H     0.41272   0.86582   0.83266   0.00000  Uiso   1.00
H1715  H     0.38808   0.91078   0.86261   0.00000  Uiso   1.00
H1716  H     0.39447   0.92710   0.77884   0.00000  Uiso   1.00
H1717  H     0.34460   0.92916   0.80302   0.00000  Uiso   1.00
H1718  H     0.42472   0.87200   0.53693   0.00000  Uiso   1.00
H1719  H     0.44966   0.76537   0.96838   0.00000  Uiso   1.00
H1720  H     0.50092   0.89985   0.97854   0.00000  Uiso   1.00
H1721  H     0.52910   0.78655   0.51924   0.00000  Uiso   1.00
H1722  H     0.46012   0.94745   0.61771   0.00000  Uiso   1.00
N1723  N     0.50000   0.95240   0.75000   0.00000  Uiso   1.00
N1724  N     0.50000   0.71427   0.75000   0.00000  Uiso   1.00
O1725  O     0.43892   0.87154   0.74999   0.00000  Uiso   1.00
O1726  O     0.56108   0.79513   0.75001   0.00000  Uiso   1.00
O1727  O     0.56108   0.87154   0.75001   0.00000  Uiso   1.00
O1728  O     0.43892   0.79513   0.74999   0.00000  Uiso   1.00
O1729  O     0.50000   0.87155   0.68453   0.00000  Uiso   1.00
O1730  O     0.50000   0.79511   0.81547   0.00000  Uiso   1.00
O1731  O     0.50000   0.87155   0.81547   0.00000  Uiso   1.00
O1732  O     0.50000   0.79511   0.68453   0.00000  Uiso   1.00
Zn1733 Zn    0.50000   0.88437   0.75000   0.00000  Uiso   1.00
Zn1734 Zn    0.50000   0.78229   0.75000   0.00000  Uiso   1.00
C1735  C     0.75298   0.83267   0.74911   0.00000  Uiso   1.00
C1736  C     0.98003   0.87465   0.74312   0.00000  Uiso   1.00
C1737  C     0.97760   0.79386   0.72077   0.00000  Uiso   1.00
C1738  C     0.68638   0.86990   0.75925   0.00000  Uiso   1.00
C1739  C     0.78344   0.85388   0.55174   0.00000  Uiso   1.00
C1740  C     0.79631   0.79489   0.95157   0.00000  Uiso   1.00
C1741  C     0.82499   0.87122   0.95740   0.00000  Uiso   1.00
C1742  C     0.84208   0.80477   0.54184   0.00000  Uiso   1.00
C1743  C     0.79037   0.85629   0.59759   0.00000  Uiso   1.00
C1744  C     0.80378   0.79387   0.90578   0.00000  Uiso   1.00
C1745  C     0.83458   0.87165   0.91210   0.00000  Uiso   1.00
C1746  C     0.91311   0.83365   0.74421   0.00000  Uiso   1.00
C1747  C     0.85062   0.80668   0.58716   0.00000  Uiso   1.00
C1748  C     0.82470   0.83269   0.61563   0.00000  Uiso   1.00
C1749  C     0.82391   0.83270   0.88523   0.00000  Uiso   1.00
C1750  C     0.80938   0.82881   0.52449   0.00000  Uiso   1.00
C1751  C     0.80716   0.83286   0.97679   0.00000  Uiso   1.00
C1752  C     0.95715   0.83427   0.73441   0.00000  Uiso   1.00
C1753  C     0.70843   0.83112   0.74497   0.00000  Uiso   1.00
C1754  C     0.75933   0.88304   0.62512   0.00000  Uiso   1.00
C1755  C     0.76133   0.93386   0.61394   0.00000  Uiso   1.00
C1756  C     0.78963   0.75028   0.88175   0.00000  Uiso   1.00
C1757  C     0.83208   0.83321   0.66359   0.00000  Uiso   1.00
C1758  C     0.75004   0.75732   0.85535   0.00000  Uiso   1.00
C1759  C     0.85848   0.91344   0.89588   0.00000  Uiso   1.00
C1760  C     0.82923   0.95272   0.88704   0.00000  Uiso   1.00
C1761  C     0.88924   0.78329   0.60272   0.00000  Uiso   1.00
C1762  C     0.92351   0.81820   0.61338   0.00000  Uiso   1.00
C1763  C     0.71123   0.75383   0.70099   0.00000  Uiso   1.00
C1764  C     0.73144   0.76857   0.65722   0.00000  Uiso   1.00
C1765  C     0.96507   0.92231   0.73147   0.00000  Uiso   1.00
C1766  C     0.95029   0.92500   0.68308   0.00000  Uiso   1.00
C1767  C     0.95369   0.75248   0.70184   0.00000  Uiso   1.00
C1768  C     0.83171   0.83327   0.83671   0.00000  Uiso   1.00
C1769  C     0.95001   0.71407   0.73611   0.00000  Uiso   1.00
C1770  C     0.70275   0.90530   0.79319   0.00000  Uiso   1.00
C1771  C     0.71646   0.88370   0.83693   0.00000  Uiso   1.00
C1772  C     0.85587   0.69142   0.78073   0.00000  Uiso   1.00
C1773  C     0.81023   0.97521   0.71989   0.00000  Uiso   1.00
C1774  C     0.81094   0.68994   0.71921   0.00000  Uiso   1.00
C1775  C     0.85666   0.97667   0.78000   0.00000  Uiso   1.00
C1776  C     0.68777   0.79347   0.72294   0.00000  Uiso   1.00
H1777  H     0.87371   0.71032   0.80535   0.00000  Uiso   1.00
H1778  H     0.75104   0.93974   0.57919   0.00000  Uiso   1.00
H1779  H     0.74048   0.95285   0.63675   0.00000  Uiso   1.00
H1780  H     0.72764   0.86967   0.61783   0.00000  Uiso   1.00
H1781  H     0.76334   0.87907   0.66146   0.00000  Uiso   1.00
H1782  H     0.75384   0.78579   0.83171   0.00000  Uiso   1.00
H1783  H     0.74202   0.72577   0.83625   0.00000  Uiso   1.00
H1784  H     0.72413   0.76519   0.87851   0.00000  Uiso   1.00
H1785  H     0.81446   0.73561   0.86085   0.00000  Uiso   1.00
H1786  H     0.78263   0.72265   0.90608   0.00000  Uiso   1.00
H1787  H     0.80735   0.94361   0.85979   0.00000  Uiso   1.00
H1788  H     0.79141   0.95618   0.69650   0.00000  Uiso   1.00
H1789  H     0.81123   0.96103   0.91765   0.00000  Uiso   1.00
H1790  H     0.84742   0.98362   0.87737   0.00000  Uiso   1.00
H1791  H     0.88091   0.92479   0.92194   0.00000  Uiso   1.00
H1792  H     0.87821   0.90623   0.86643   0.00000  Uiso   1.00
H1793  H     0.91604   0.83699   0.64448   0.00000  Uiso   1.00
H1794  H     0.95330   0.80070   0.61794   0.00000  Uiso   1.00
H1795  H     0.92744   0.84281   0.58557   0.00000  Uiso   1.00
H1796  H     0.88204   0.76109   0.63150   0.00000  Uiso   1.00
H1797  H     0.90121   0.76003   0.57632   0.00000  Uiso   1.00
H1798  H     0.70766   0.78131   0.63399   0.00000  Uiso   1.00
H1799  H     0.79371   0.70757   0.69416   0.00000  Uiso   1.00
H1800  H     0.75452   0.79590   0.66344   0.00000  Uiso   1.00
H1801  H     0.74706   0.73928   0.64109   0.00000  Uiso   1.00
H1802  H     0.73296   0.73792   0.72414   0.00000  Uiso   1.00
H1803  H     0.69221   0.72357   0.69259   0.00000  Uiso   1.00
H1804  H     0.91943   0.90848   0.67910   0.00000  Uiso   1.00
H1805  H     0.94760   0.96122   0.67317   0.00000  Uiso   1.00
H1806  H     0.97277   0.90851   0.66016   0.00000  Uiso   1.00
H1807  H     0.94101   0.93424   0.75512   0.00000  Uiso   1.00
H1808  H     0.99100   0.94759   0.73399   0.00000  Uiso   1.00
H1809  H     0.98014   0.69787   0.74203   0.00000  Uiso   1.00
H1810  H     0.87578   0.95889   0.80339   0.00000  Uiso   1.00
H1811  H     0.93886   0.72742   0.76866   0.00000  Uiso   1.00
H1812  H     0.92779   0.68760   0.72390   0.00000  Uiso   1.00
H1813  H     0.92263   0.76123   0.69043   0.00000  Uiso   1.00
H1814  H     0.96721   0.74003   0.67004   0.00000  Uiso   1.00
H1815  H     0.69238   0.85932   0.84932   0.00000  Uiso   1.00
H1816  H     0.74605   0.86582   0.83266   0.00000  Uiso   1.00
H1817  H     0.72141   0.91078   0.86261   0.00000  Uiso   1.00
H1818  H     0.72781   0.92710   0.77884   0.00000  Uiso   1.00
H1819  H     0.67793   0.92916   0.80302   0.00000  Uiso   1.00
H1820  H     0.75806   0.87200   0.53693   0.00000  Uiso   1.00
H1821  H     0.78299   0.76537   0.96838   0.00000  Uiso   1.00
H1822  H     0.83426   0.89985   0.97854   0.00000  Uiso   1.00
H1823  H     0.86243   0.78655   0.51924   0.00000  Uiso   1.00
H1824  H     0.79345   0.94745   0.61771   0.00000  Uiso   1.00
N1825  N     0.83333   0.95240   0.75000   0.00000  Uiso   1.00
N1826  N     0.83333   0.71427   0.75000   0.00000  Uiso   1.00
O1827  O     0.77226   0.87154   0.74999   0.00000  Uiso   1.00
O1828  O     0.89441   0.79513   0.75001   0.00000  Uiso   1.00
O1829  O     0.89441   0.87154   0.75001   0.00000  Uiso   1.00
O1830  O     0.77226   0.79513   0.74999   0.00000  Uiso   1.00
O1831  O     0.83333   0.87155   0.68453   0.00000  Uiso   1.00
O1832  O     0.83334   0.79511   0.81547   0.00000  Uiso   1.00
O1833  O     0.83334   0.87155   0.81547   0.00000  Uiso   1.00
O1834  O     0.83333   0.79511   0.68453   0.00000  Uiso   1.00
Zn1835 Zn    0.83333   0.88437   0.75000   0.00000  Uiso   1.00
Zn1836 Zn    0.83333   0.78229   0.75000   0.00000  Uiso   1.00
loop_
_geom_bond_atom_site_label_1
_geom_bond_atom_site_label_2
_geom_bond_distance
_geom_bond_site_symmetry_2
_ccdc_geom_bond_type
C1     C19     1.446   .     S
C1     O96     1.275   .     A
C1     O93     1.288   .     A
C2     C18     1.407   .     A
C2     C31     1.530   .     S
C2     C106    1.383   .     S
C3     C33     1.532   .     S
C3     C18     1.423   .     A
C3     C144    1.408   .     S
C4     C36     1.535   .     S
C4     C19     1.415   .     A
C4     C206    1.383   1_455 S
C5     C16     1.384   .     A
C5     C9      1.393   .     A
C5     H86     1.084   .     S
C6     H87     1.085   .     S
C6     C17     1.381   .     A
C6     C10     1.391   .     A
C7     C11     1.389   .     A
C7     H88     1.086   .     S
C7     C17     1.384   .     A
C8     C13     1.386   .     A
C8     C16     1.387   .     A
C8     H89     1.085   .     S
C9     C14     1.429   .     A
C9     C20     1.520   .     S
C10    C22     1.525   .     S
C10    C15     1.441   .     A
C11    C15     1.429   .     A
C11    C25     1.517   .     S
C12    O95     1.284   .     A
C12    O94     1.283   .     A
C12    C18     1.452   .     S
C13    C14     1.420   .     A
C13    C27     1.513   .     S
C14    C23     1.457   .     S
C15    C34     1.473   .     S
C16    C935    1.436   1_554 S
C17    C934    1.436   .     S
C19    C42     1.437   .     A
C20    H46     1.112   .     S
C20    H47     1.104   .     S
C20    C21     1.529   .     S
C21    H45     1.111   .     S
C21    H90     1.111   .     S
C21    H44     1.110   .     S
C22    C24     1.526   .     S
C22    H52     1.113   .     S
C22    H51     1.106   .     S
C23    O100    1.286   .     A
C23    O97     1.282   .     A
C24    H50     1.111   .     S
C24    H48     1.103   .     S
C24    H49     1.111   .     S
C25    H57     1.113   .     S
C25    C26     1.529   .     S
C25    H58     1.107   .     S
C26    H55     1.111   .     S
C26    H53     1.110   .     S
C26    H56     1.110   .     S
C27    H62     1.105   .     S
C27    H63     1.112   .     S
C27    C28     1.527   .     S
C28    H61     1.111   .     S
C28    H60     1.109   .     S
C28    H59     1.106   .     S
C29    C42     1.540   .     S
C29    H68     1.102   .     S
C29    H69     1.098   .     S
C29    C30     1.523   .     S
C30    H64     1.111   .     S
C30    H67     1.110   .     S
C30    H66     1.100   .     S
C31    H73     1.108   .     S
C31    H74     1.111   .     S
C31    C32     1.531   .     S
C32    H72     1.111   .     S
C32    H71     1.110   .     S
C32    H70     1.107   .     S
C33    C35     1.531   .     S
C33    H79     1.098   .     S
C33    H80     1.107   .     S
C34    O99     1.294   .     A
C34    O98     1.284   .     A
C35    H75     1.107   .     S
C35    H77     1.108   .     S
C35    H78     1.109   .     S
C36    C37     1.530   .     S
C36    H85     1.111   .     S
C36    H84     1.109   .     S
C37    H81     1.111   .     S
C37    H82     1.105   .     S
C37    H83     1.111   .     S
C38    N92     1.364   .     A
C38    H43     1.081   .     S
C38    C653    1.410   1_545 S
C39    H54     1.076   .     S
C39    N91     1.361   .     A
C39    C346    1.409   .     S
C40    N92     1.363   .     A
C40    H65     1.078   .     S
C40    C651    1.409   1_545 S
C41    N91     1.363   .     A
C41    H76     1.080   .     S
C41    C344    1.410   .     S
C42    C207    1.408   1_455 S
N91    Zn101   1.994   .     S
N92    Zn102   1.994   .     S
O93    Zn101   2.002   .     S
O94    Zn102   2.002   .     S
O95    Zn101   2.016   .     S
O96    Zn102   2.016   .     S
O97    Zn101   1.993   .     S
O98    Zn102   1.993   .     S
O99    Zn101   1.998   .     S
O100   Zn102   1.998   .     S
C103   C121    1.446   .     S
C103   O198    1.275   .     A
C103   O195    1.288   .     A
C104   C120    1.407   .     A
C104   C133    1.530   .     S
C104   C208    1.383   .     S
C105   C135    1.532   .     S
C105   C120    1.423   .     A
C105   C246    1.408   .     S
C106   C138    1.535   .     S
C106   C121    1.415   .     A
C107   C118    1.384   .     A
C107   C111    1.393   .     A
C107   H188    1.084   .     S
C108   H189    1.085   .     S
C108   C119    1.381   .     A
C108   C112    1.391   .     A
C109   C113    1.389   .     A
C109   H190    1.086   .     S
C109   C119    1.384   .     A
C110   C115    1.386   .     A
C110   C118    1.387   .     A
C110   H191    1.085   .     S
C111   C116    1.429   .     A
C111   C122    1.520   .     S
C112   C124    1.525   .     S
C112   C117    1.441   .     A
C113   C117    1.429   .     A
C113   C127    1.517   .     S
C114   O197    1.284   .     A
C114   O196    1.283   .     A
C114   C120    1.452   .     S
C115   C116    1.420   .     A
C115   C129    1.513   .     S
C116   C125    1.457   .     S
C117   C136    1.473   .     S
C118   C1037   1.436   1_554 S
C119   C1036   1.436   .     S
C121   C144    1.437   .     A
C122   H148    1.112   .     S
C122   H149    1.104   .     S
C122   C123    1.529   .     S
C123   H147    1.111   .     S
C123   H192    1.111   .     S
C123   H146    1.110   .     S
C124   C126    1.526   .     S
C124   H154    1.113   .     S
C124   H153    1.106   .     S
C125   O202    1.286   .     A
C125   O199    1.282   .     A
C126   H152    1.111   .     S
C126   H150    1.103   .     S
C126   H151    1.111   .     S
C127   H159    1.113   .     S
C127   C128    1.529   .     S
C127   H160    1.107   .     S
C128   H157    1.111   .     S
C128   H155    1.110   .     S
C128   H158    1.110   .     S
C129   H164    1.105   .     S
C129   H165    1.112   .     S
C129   C130    1.527   .     S
C130   H163    1.111   .     S
C130   H162    1.109   .     S
C130   H161    1.106   .     S
C131   C144    1.540   .     S
C131   H170    1.102   .     S
C131   H171    1.098   .     S
C131   C132    1.523   .     S
C132   H166    1.111   .     S
C132   H169    1.110   .     S
C132   H168    1.100   .     S
C133   H175    1.108   .     S
C133   H176    1.111   .     S
C133   C134    1.531   .     S
C134   H174    1.111   .     S
C134   H173    1.110   .     S
C134   H172    1.107   .     S
C135   C137    1.531   .     S
C135   H181    1.098   .     S
C135   H182    1.107   .     S
C136   O201    1.294   .     A
C136   O200    1.284   .     A
C137   H177    1.107   .     S
C137   H179    1.108   .     S
C137   H180    1.109   .     S
C138   C139    1.530   .     S
C138   H187    1.111   .     S
C138   H186    1.109   .     S
C139   H183    1.111   .     S
C139   H184    1.105   .     S
C139   H185    1.111   .     S
C140   N194    1.364   .     A
C140   H145    1.081   .     S
C140   C755    1.410   1_545 S
C141   H156    1.076   .     S
C141   N193    1.361   .     A
C141   C448    1.409   .     S
C142   N194    1.363   .     A
C142   H167    1.078   .     S
C142   C753    1.409   1_545 S
C143   N193    1.363   .     A
C143   H178    1.080   .     S
C143   C446    1.410   .     S
N193   Zn203   1.994   .     S
N194   Zn204   1.994   .     S
O195   Zn203   2.002   .     S
O196   Zn204   2.002   .     S
O197   Zn203   2.016   .     S
O198   Zn204   2.016   .     S
O199   Zn203   1.993   .     S
O200   Zn204   1.993   .     S
O201   Zn203   1.998   .     S
O202   Zn204   1.998   .     S
C205   C223    1.446   .     S
C205   O300    1.275   .     A
C205   O297    1.288   .     A
C206   C222    1.407   .     A
C206   C235    1.530   .     S
C206   C4      1.383   1_655 S
C207   C237    1.532   .     S
C207   C222    1.423   .     A
C207   C42     1.408   1_655 S
C208   C240    1.535   .     S
C208   C223    1.415   .     A
C209   C220    1.384   .     A
C209   C213    1.393   .     A
C209   H290    1.084   .     S
C210   H291    1.085   .     S
C210   C221    1.381   .     A
C210   C214    1.391   .     A
C211   C215    1.389   .     A
C211   H292    1.086   .     S
C211   C221    1.384   .     A
C212   C217    1.386   .     A
C212   C220    1.387   .     A
C212   H293    1.085   .     S
C213   C218    1.429   .     A
C213   C224    1.520   .     S
C214   C226    1.525   .     S
C214   C219    1.441   .     A
C215   C219    1.429   .     A
C215   C229    1.517   .     S
C216   O299    1.284   .     A
C216   O298    1.283   .     A
C216   C222    1.452   .     S
C217   C218    1.420   .     A
C217   C231    1.513   .     S
C218   C227    1.457   .     S
C219   C238    1.473   .     S
C220   C1139   1.436   1_554 S
C221   C1138   1.436   .     S
C223   C246    1.437   .     A
C224   H250    1.112   .     S
C224   H251    1.104   .     S
C224   C225    1.529   .     S
C225   H249    1.111   .     S
C225   H294    1.111   .     S
C225   H248    1.110   .     S
C226   C228    1.526   .     S
C226   H256    1.113   .     S
C226   H255    1.106   .     S
C227   O304    1.286   .     A
C227   O301    1.282   .     A
C228   H254    1.111   .     S
C228   H252    1.103   .     S
C228   H253    1.111   .     S
C229   H261    1.113   .     S
C229   C230    1.529   .     S
C229   H262    1.107   .     S
C230   H259    1.111   .     S
C230   H257    1.110   .     S
C230   H260    1.110   .     S
C231   H266    1.105   .     S
C231   H267    1.112   .     S
C231   C232    1.527   .     S
C232   H265    1.111   .     S
C232   H264    1.109   .     S
C232   H263    1.106   .     S
C233   C246    1.540   .     S
C233   H272    1.102   .     S
C233   H273    1.098   .     S
C233   C234    1.523   .     S
C234   H268    1.111   .     S
C234   H271    1.110   .     S
C234   H270    1.100   .     S
C235   H277    1.108   .     S
C235   H278    1.111   .     S
C235   C236    1.531   .     S
C236   H276    1.111   .     S
C236   H275    1.110   .     S
C236   H274    1.107   .     S
C237   C239    1.531   .     S
C237   H283    1.098   .     S
C237   H284    1.107   .     S
C238   O303    1.294   .     A
C238   O302    1.284   .     A
C239   H279    1.107   .     S
C239   H281    1.108   .     S
C239   H282    1.109   .     S
C240   C241    1.530   .     S
C240   H289    1.111   .     S
C240   H288    1.109   .     S
C241   H285    1.111   .     S
C241   H286    1.105   .     S
C241   H287    1.111   .     S
C242   N296    1.364   .     A
C242   H247    1.081   .     S
C242   C857    1.410   1_545 S
C243   H258    1.076   .     S
C243   N295    1.361   .     A
C243   C550    1.409   .     S
C244   N296    1.363   .     A
C244   H269    1.078   .     S
C244   C855    1.409   1_545 S
C245   N295    1.363   .     A
C245   H280    1.080   .     S
C245   C548    1.410   .     S
N295   Zn305   1.994   .     S
N296   Zn306   1.994   .     S
O297   Zn305   2.002   .     S
O298   Zn306   2.002   .     S
O299   Zn305   2.016   .     S
O300   Zn306   2.016   .     S
O301   Zn305   1.993   .     S
O302   Zn306   1.993   .     S
O303   Zn305   1.998   .     S
O304   Zn306   1.998   .     S
C307   C325    1.446   .     S
C307   O402    1.275   .     A
C307   O399    1.288   .     A
C308   C324    1.407   .     A
C308   C337    1.530   .     S
C308   C412    1.383   .     S
C309   C339    1.532   .     S
C309   C324    1.423   .     A
C309   C450    1.408   .     S
C310   C342    1.535   .     S
C310   C325    1.415   .     A
C310   C512    1.383   1_455 S
C311   C322    1.384   .     A
C311   C315    1.393   .     A
C311   H392    1.084   .     S
C312   H393    1.085   .     S
C312   C323    1.381   .     A
C312   C316    1.391   .     A
C313   C317    1.389   .     A
C313   H394    1.086   .     S
C313   C323    1.384   .     A
C314   C319    1.386   .     A
C314   C322    1.387   .     A
C314   H395    1.085   .     S
C315   C320    1.429   .     A
C315   C326    1.520   .     S
C316   C328    1.525   .     S
C316   C321    1.441   .     A
C317   C321    1.429   .     A
C317   C331    1.517   .     S
C318   O401    1.284   .     A
C318   O400    1.283   .     A
C318   C324    1.452   .     S
C319   C320    1.420   .     A
C319   C333    1.513   .     S
C320   C329    1.457   .     S
C321   C340    1.473   .     S
C322   C1241   1.436   1_554 S
C323   C1240   1.436   .     S
C325   C348    1.437   .     A
C326   H352    1.112   .     S
C326   H353    1.104   .     S
C326   C327    1.529   .     S
C327   H351    1.111   .     S
C327   H396    1.111   .     S
C327   H350    1.110   .     S
C328   C330    1.526   .     S
C328   H358    1.113   .     S
C328   H357    1.106   .     S
C329   O406    1.286   .     A
C329   O403    1.282   .     A
C330   H356    1.111   .     S
C330   H354    1.103   .     S
C330   H355    1.111   .     S
C331   H363    1.113   .     S
C331   C332    1.529   .     S
C331   H364    1.107   .     S
C332   H361    1.111   .     S
C332   H359    1.110   .     S
C332   H362    1.110   .     S
C333   H368    1.105   .     S
C333   H369    1.112   .     S
C333   C334    1.527   .     S
C334   H367    1.111   .     S
C334   H366    1.109   .     S
C334   H365    1.106   .     S
C335   C348    1.540   .     S
C335   H374    1.102   .     S
C335   H375    1.098   .     S
C335   C336    1.523   .     S
C336   H370    1.111   .     S
C336   H373    1.110   .     S
C336   H372    1.100   .     S
C337   H379    1.108   .     S
C337   H380    1.111   .     S
C337   C338    1.531   .     S
C338   H378    1.111   .     S
C338   H377    1.110   .     S
C338   H376    1.107   .     S
C339   C341    1.531   .     S
C339   H385    1.098   .     S
C339   H386    1.107   .     S
C340   O405    1.294   .     A
C340   O404    1.284   .     A
C341   H381    1.107   .     S
C341   H383    1.108   .     S
C341   H384    1.109   .     S
C342   C343    1.530   .     S
C342   H391    1.111   .     S
C342   H390    1.109   .     S
C343   H387    1.111   .     S
C343   H388    1.105   .     S
C343   H389    1.111   .     S
C344   N398    1.364   .     A
C344   H349    1.081   .     S
C345   H360    1.076   .     S
C345   N397    1.361   .     A
C345   C652    1.409   .     S
C346   N398    1.363   .     A
C346   H371    1.078   .     S
C347   N397    1.363   .     A
C347   H382    1.080   .     S
C347   C650    1.410   .     S
C348   C513    1.408   1_455 S
N397   Zn407   1.994   .     S
N398   Zn408   1.994   .     S
O399   Zn407   2.002   .     S
O400   Zn408   2.002   .     S
O401   Zn407   2.016   .     S
O402   Zn408   2.016   .     S
O403   Zn407   1.993   .     S
O404   Zn408   1.993   .     S
O405   Zn407   1.998   .     S
O406   Zn408   1.998   .     S
C409   C427    1.446   .     S
C409   O504    1.275   .     A
C409   O501    1.288   .     A
C410   C426    1.407   .     A
C410   C439    1.530   .     S
C410   C514    1.383   .     S
C411   C441    1.532   .     S
C411   C426    1.423   .     A
C411   C552    1.408   .     S
C412   C444    1.535   .     S
C412   C427    1.415   .     A
C413   C424    1.384   .     A
C413   C417    1.393   .     A
C413   H494    1.084   .     S
C414   H495    1.085   .     S
C414   C425    1.381   .     A
C414   C418    1.391   .     A
C415   C419    1.389   .     A
C415   H496    1.086   .     S
C415   C425    1.384   .     A
C416   C421    1.386   .     A
C416   C424    1.387   .     A
C416   H497    1.085   .     S
C417   C422    1.429   .     A
C417   C428    1.520   .     S
C418   C430    1.525   .     S
C418   C423    1.441   .     A
C419   C423    1.429   .     A
C419   C433    1.517   .     S
C420   O503    1.284   .     A
C420   O502    1.283   .     A
C420   C426    1.452   .     S
C421   C422    1.420   .     A
C421   C435    1.513   .     S
C422   C431    1.457   .     S
C423   C442    1.473   .     S
C424   C1343   1.436   1_554 S
C425   C1342   1.436   .     S
C427   C450    1.437   .     A
C428   H454    1.112   .     S
C428   H455    1.104   .     S
C428   C429    1.529   .     S
C429   H453    1.111   .     S
C429   H498    1.111   .     S
C429   H452    1.110   .     S
C430   C432    1.526   .     S
C430   H460    1.113   .     S
C430   H459    1.106   .     S
C431   O508    1.286   .     A
C431   O505    1.282   .     A
C432   H458    1.111   .     S
C432   H456    1.103   .     S
C432   H457    1.111   .     S
C433   H465    1.113   .     S
C433   C434    1.529   .     S
C433   H466    1.107   .     S
C434   H463    1.111   .     S
C434   H461    1.110   .     S
C434   H464    1.110   .     S
C435   H470    1.105   .     S
C435   H471    1.112   .     S
C435   C436    1.527   .     S
C436   H469    1.111   .     S
C436   H468    1.109   .     S
C436   H467    1.106   .     S
C437   C450    1.540   .     S
C437   H476    1.102   .     S
C437   H477    1.098   .     S
C437   C438    1.523   .     S
C438   H472    1.111   .     S
C438   H475    1.110   .     S
C438   H474    1.100   .     S
C439   H481    1.108   .     S
C439   H482    1.111   .     S
C439   C440    1.531   .     S
C440   H480    1.111   .     S
C440   H479    1.110   .     S
C440   H478    1.107   .     S
C441   C443    1.531   .     S
C441   H487    1.098   .     S
C441   H488    1.107   .     S
C442   O507    1.294   .     A
C442   O506    1.284   .     A
C443   H483    1.107   .     S
C443   H485    1.108   .     S
C443   H486    1.109   .     S
C444   C445    1.530   .     S
C444   H493    1.111   .     S
C444   H492    1.109   .     S
C445   H489    1.111   .     S
C445   H490    1.105   .     S
C445   H491    1.111   .     S
C446   N500    1.364   .     A
C446   H451    1.081   .     S
C447   H462    1.076   .     S
C447   N499    1.361   .     A
C447   C754    1.409   .     S
C448   N500    1.363   .     A
C448   H473    1.078   .     S
C449   N499    1.363   .     A
C449   H484    1.080   .     S
C449   C752    1.410   .     S
N499   Zn509   1.994   .     S
N500   Zn510   1.994   .     S
O501   Zn509   2.002   .     S
O502   Zn510   2.002   .     S
O503   Zn509   2.016   .     S
O504   Zn510   2.016   .     S
O505   Zn509   1.993   .     S
O506   Zn510   1.993   .     S
O507   Zn509   1.998   .     S
O508   Zn510   1.998   .     S
C511   C529    1.446   .     S
C511   O606    1.275   .     A
C511   O603    1.288   .     A
C512   C528    1.407   .     A
C512   C541    1.530   .     S
C512   C310    1.383   1_655 S
C513   C543    1.532   .     S
C513   C528    1.423   .     A
C513   C348    1.408   1_655 S
C514   C546    1.535   .     S
C514   C529    1.415   .     A
C515   C526    1.384   .     A
C515   C519    1.393   .     A
C515   H596    1.084   .     S
C516   H597    1.085   .     S
C516   C527    1.381   .     A
C516   C520    1.391   .     A
C517   C521    1.389   .     A
C517   H598    1.086   .     S
C517   C527    1.384   .     A
C518   C523    1.386   .     A
C518   C526    1.387   .     A
C518   H599    1.085   .     S
C519   C524    1.429   .     A
C519   C530    1.520   .     S
C520   C532    1.525   .     S
C520   C525    1.441   .     A
C521   C525    1.429   .     A
C521   C535    1.517   .     S
C522   O605    1.284   .     A
C522   O604    1.283   .     A
C522   C528    1.452   .     S
C523   C524    1.420   .     A
C523   C537    1.513   .     S
C524   C533    1.457   .     S
C525   C544    1.473   .     S
C526   C1445   1.436   1_554 S
C527   C1444   1.436   .     S
C529   C552    1.437   .     A
C530   H556    1.112   .     S
C530   H557    1.104   .     S
C530   C531    1.529   .     S
C531   H555    1.111   .     S
C531   H600    1.111   .     S
C531   H554    1.110   .     S
C532   C534    1.526   .     S
C532   H562    1.113   .     S
C532   H561    1.106   .     S
C533   O610    1.286   .     A
C533   O607    1.282   .     A
C534   H560    1.111   .     S
C534   H558    1.103   .     S
C534   H559    1.111   .     S
C535   H567    1.113   .     S
C535   C536    1.529   .     S
C535   H568    1.107   .     S
C536   H565    1.111   .     S
C536   H563    1.110   .     S
C536   H566    1.110   .     S
C537   H572    1.105   .     S
C537   H573    1.112   .     S
C537   C538    1.527   .     S
C538   H571    1.111   .     S
C538   H570    1.109   .     S
C538   H569    1.106   .     S
C539   C552    1.540   .     S
C539   H578    1.102   .     S
C539   H579    1.098   .     S
C539   C540    1.523   .     S
C540   H574    1.111   .     S
C540   H577    1.110   .     S
C540   H576    1.100   .     S
C541   H583    1.108   .     S
C541   H584    1.111   .     S
C541   C542    1.531   .     S
C542   H582    1.111   .     S
C542   H581    1.110   .     S
C542   H580    1.107   .     S
C543   C545    1.531   .     S
C543   H589    1.098   .     S
C543   H590    1.107   .     S
C544   O609    1.294   .     A
C544   O608    1.284   .     A
C545   H585    1.107   .     S
C545   H587    1.108   .     S
C545   H588    1.109   .     S
C546   C547    1.530   .     S
C546   H595    1.111   .     S
C546   H594    1.109   .     S
C547   H591    1.111   .     S
C547   H592    1.105   .     S
C547   H593    1.111   .     S
C548   N602    1.364   .     A
C548   H553    1.081   .     S
C549   H564    1.076   .     S
C549   N601    1.361   .     A
C549   C856    1.409   .     S
C550   N602    1.363   .     A
C550   H575    1.078   .     S
C551   N601    1.363   .     A
C551   H586    1.080   .     S
C551   C854    1.410   .     S
N601   Zn611   1.994   .     S
N602   Zn612   1.994   .     S
O603   Zn611   2.002   .     S
O604   Zn612   2.002   .     S
O605   Zn611   2.016   .     S
O606   Zn612   2.016   .     S
O607   Zn611   1.993   .     S
O608   Zn612   1.993   .     S
O609   Zn611   1.998   .     S
O610   Zn612   1.998   .     S
C613   C631    1.446   .     S
C613   O708    1.275   .     A
C613   O705    1.288   .     A
C614   C630    1.407   .     A
C614   C643    1.530   .     S
C614   C718    1.383   .     S
C615   C645    1.532   .     S
C615   C630    1.423   .     A
C615   C756    1.408   .     S
C616   C648    1.535   .     S
C616   C631    1.415   .     A
C616   C818    1.383   1_455 S
C617   C628    1.384   .     A
C617   C621    1.393   .     A
C617   H698    1.084   .     S
C618   H699    1.085   .     S
C618   C629    1.381   .     A
C618   C622    1.391   .     A
C619   C623    1.389   .     A
C619   H700    1.086   .     S
C619   C629    1.384   .     A
C620   C625    1.386   .     A
C620   C628    1.387   .     A
C620   H701    1.085   .     S
C621   C626    1.429   .     A
C621   C632    1.520   .     S
C622   C634    1.525   .     S
C622   C627    1.441   .     A
C623   C627    1.429   .     A
C623   C637    1.517   .     S
C624   O707    1.284   .     A
C624   O706    1.283   .     A
C624   C630    1.452   .     S
C625   C626    1.420   .     A
C625   C639    1.513   .     S
C626   C635    1.457   .     S
C627   C646    1.473   .     S
C628   C1547   1.436   1_554 S
C629   C1546   1.436   .     S
C631   C654    1.437   .     A
C632   H658    1.112   .     S
C632   H659    1.104   .     S
C632   C633    1.529   .     S
C633   H657    1.111   .     S
C633   H702    1.111   .     S
C633   H656    1.110   .     S
C634   C636    1.526   .     S
C634   H664    1.113   .     S
C634   H663    1.106   .     S
C635   O712    1.286   .     A
C635   O709    1.282   .     A
C636   H662    1.111   .     S
C636   H660    1.103   .     S
C636   H661    1.111   .     S
C637   H669    1.113   .     S
C637   C638    1.529   .     S
C637   H670    1.107   .     S
C638   H667    1.111   .     S
C638   H665    1.110   .     S
C638   H668    1.110   .     S
C639   H674    1.105   .     S
C639   H675    1.112   .     S
C639   C640    1.527   .     S
C640   H673    1.111   .     S
C640   H672    1.109   .     S
C640   H671    1.106   .     S
C641   C654    1.540   .     S
C641   H680    1.102   .     S
C641   H681    1.098   .     S
C641   C642    1.523   .     S
C642   H676    1.111   .     S
C642   H679    1.110   .     S
C642   H678    1.100   .     S
C643   H685    1.108   .     S
C643   H686    1.111   .     S
C643   C644    1.531   .     S
C644   H684    1.111   .     S
C644   H683    1.110   .     S
C644   H682    1.107   .     S
C645   C647    1.531   .     S
C645   H691    1.098   .     S
C645   H692    1.107   .     S
C646   O711    1.294   .     A
C646   O710    1.284   .     A
C647   H687    1.107   .     S
C647   H689    1.108   .     S
C647   H690    1.109   .     S
C648   C649    1.530   .     S
C648   H697    1.111   .     S
C648   H696    1.109   .     S
C649   H693    1.111   .     S
C649   H694    1.105   .     S
C649   H695    1.111   .     S
C650   N704    1.364   .     A
C650   H655    1.081   .     S
C651   H666    1.076   .     S
C651   N703    1.361   .     A
C651   C40     1.409   1_565 S
C652   N704    1.363   .     A
C652   H677    1.078   .     S
C653   N703    1.363   .     A
C653   H688    1.080   .     S
C653   C38     1.410   1_565 S
C654   C819    1.408   1_455 S
N703   Zn713   1.994   .     S
N704   Zn714   1.994   .     S
O705   Zn713   2.002   .     S
O706   Zn714   2.002   .     S
O707   Zn713   2.016   .     S
O708   Zn714   2.016   .     S
O709   Zn713   1.993   .     S
O710   Zn714   1.993   .     S
O711   Zn713   1.998   .     S
O712   Zn714   1.998   .     S
C715   C733    1.446   .     S
C715   O810    1.275   .     A
C715   O807    1.288   .     A
C716   C732    1.407   .     A
C716   C745    1.530   .     S
C716   C820    1.383   .     S
C717   C747    1.532   .     S
C717   C732    1.423   .     A
C717   C858    1.408   .     S
C718   C750    1.535   .     S
C718   C733    1.415   .     A
C719   C730    1.384   .     A
C719   C723    1.393   .     A
C719   H800    1.084   .     S
C720   H801    1.085   .     S
C720   C731    1.381   .     A
C720   C724    1.391   .     A
C721   C725    1.389   .     A
C721   H802    1.086   .     S
C721   C731    1.384   .     A
C722   C727    1.386   .     A
C722   C730    1.387   .     A
C722   H803    1.085   .     S
C723   C728    1.429   .     A
C723   C734    1.520   .     S
C724   C736    1.525   .     S
C724   C729    1.441   .     A
C725   C729    1.429   .     A
C725   C739    1.517   .     S
C726   O809    1.284   .     A
C726   O808    1.283   .     A
C726   C732    1.452   .     S
C727   C728    1.420   .     A
C727   C741    1.513   .     S
C728   C737    1.457   .     S
C729   C748    1.473   .     S
C730   C1649   1.436   1_554 S
C731   C1648   1.436   .     S
C733   C756    1.437   .     A
C734   H760    1.112   .     S
C734   H761    1.104   .     S
C734   C735    1.529   .     S
C735   H759    1.111   .     S
C735   H804    1.111   .     S
C735   H758    1.110   .     S
C736   C738    1.526   .     S
C736   H766    1.113   .     S
C736   H765    1.106   .     S
C737   O814    1.286   .     A
C737   O811    1.282   .     A
C738   H764    1.111   .     S
C738   H762    1.103   .     S
C738   H763    1.111   .     S
C739   H771    1.113   .     S
C739   C740    1.529   .     S
C739   H772    1.107   .     S
C740   H769    1.111   .     S
C740   H767    1.110   .     S
C740   H770    1.110   .     S
C741   H776    1.105   .     S
C741   H777    1.112   .     S
C741   C742    1.527   .     S
C742   H775    1.111   .     S
C742   H774    1.109   .     S
C742   H773    1.106   .     S
C743   C756    1.540   .     S
C743   H782    1.102   .     S
C743   H783    1.098   .     S
C743   C744    1.523   .     S
C744   H778    1.111   .     S
C744   H781    1.110   .     S
C744   H780    1.100   .     S
C745   H787    1.108   .     S
C745   H788    1.111   .     S
C745   C746    1.531   .     S
C746   H786    1.111   .     S
C746   H785    1.110   .     S
C746   H784    1.107   .     S
C747   C749    1.531   .     S
C747   H793    1.098   .     S
C747   H794    1.107   .     S
C748   O813    1.294   .     A
C748   O812    1.284   .     A
C749   H789    1.107   .     S
C749   H791    1.108   .     S
C749   H792    1.109   .     S
C750   C751    1.530   .     S
C750   H799    1.111   .     S
C750   H798    1.109   .     S
C751   H795    1.111   .     S
C751   H796    1.105   .     S
C751   H797    1.111   .     S
C752   N806    1.364   .     A
C752   H757    1.081   .     S
C753   H768    1.076   .     S
C753   N805    1.361   .     A
C753   C142    1.409   1_565 S
C754   N806    1.363   .     A
C754   H779    1.078   .     S
C755   N805    1.363   .     A
C755   H790    1.080   .     S
C755   C140    1.410   1_565 S
N805   Zn815   1.994   .     S
N806   Zn816   1.994   .     S
O807   Zn815   2.002   .     S
O808   Zn816   2.002   .     S
O809   Zn815   2.016   .     S
O810   Zn816   2.016   .     S
O811   Zn815   1.993   .     S
O812   Zn816   1.993   .     S
O813   Zn815   1.998   .     S
O814   Zn816   1.998   .     S
C817   C835    1.446   .     S
C817   O912    1.275   .     A
C817   O909    1.288   .     A
C818   C834    1.407   .     A
C818   C847    1.530   .     S
C818   C616    1.383   1_655 S
C819   C849    1.532   .     S
C819   C834    1.423   .     A
C819   C654    1.408   1_655 S
C820   C852    1.535   .     S
C820   C835    1.415   .     A
C821   C832    1.384   .     A
C821   C825    1.393   .     A
C821   H902    1.084   .     S
C822   H903    1.085   .     S
C822   C833    1.381   .     A
C822   C826    1.391   .     A
C823   C827    1.389   .     A
C823   H904    1.086   .     S
C823   C833    1.384   .     A
C824   C829    1.386   .     A
C824   C832    1.387   .     A
C824   H905    1.085   .     S
C825   C830    1.429   .     A
C825   C836    1.520   .     S
C826   C838    1.525   .     S
C826   C831    1.441   .     A
C827   C831    1.429   .     A
C827   C841    1.517   .     S
C828   O911    1.284   .     A
C828   O910    1.283   .     A
C828   C834    1.452   .     S
C829   C830    1.420   .     A
C829   C843    1.513   .     S
C830   C839    1.457   .     S
C831   C850    1.473   .     S
C832   C1751   1.436   1_554 S
C833   C1750   1.436   .     S
C835   C858    1.437   .     A
C836   H862    1.112   .     S
C836   H863    1.104   .     S
C836   C837    1.529   .     S
C837   H861    1.111   .     S
C837   H906    1.111   .     S
C837   H860    1.110   .     S
C838   C840    1.526   .     S
C838   H868    1.113   .     S
C838   H867    1.106   .     S
C839   O916    1.286   .     A
C839   O913    1.282   .     A
C840   H866    1.111   .     S
C840   H864    1.103   .     S
C840   H865    1.111   .     S
C841   H873    1.113   .     S
C841   C842    1.529   .     S
C841   H874    1.107   .     S
C842   H871    1.111   .     S
C842   H869    1.110   .     S
C842   H872    1.110   .     S
C843   H878    1.105   .     S
C843   H879    1.112   .     S
C843   C844    1.527   .     S
C844   H877    1.111   .     S
C844   H876    1.109   .     S
C844   H875    1.106   .     S
C845   C858    1.540   .     S
C845   H884    1.102   .     S
C845   H885    1.098   .     S
C845   C846    1.523   .     S
C846   H880    1.111   .     S
C846   H883    1.110   .     S
C846   H882    1.100   .     S
C847   H889    1.108   .     S
C847   H890    1.111   .     S
C847   C848    1.531   .     S
C848   H888    1.111   .     S
C848   H887    1.110   .     S
C848   H886    1.107   .     S
C849   C851    1.531   .     S
C849   H895    1.098   .     S
C849   H896    1.107   .     S
C850   O915    1.294   .     A
C850   O914    1.284   .     A
C851   H891    1.107   .     S
C851   H893    1.108   .     S
C851   H894    1.109   .     S
C852   C853    1.530   .     S
C852   H901    1.111   .     S
C852   H900    1.109   .     S
C853   H897    1.111   .     S
C853   H898    1.105   .     S
C853   H899    1.111   .     S
C854   N908    1.364   .     A
C854   H859    1.081   .     S
C855   H870    1.076   .     S
C855   N907    1.361   .     A
C855   C244    1.409   1_565 S
C856   N908    1.363   .     A
C856   H881    1.078   .     S
C857   N907    1.363   .     A
C857   H892    1.080   .     S
C857   C242    1.410   1_565 S
N907   Zn917   1.994   .     S
N908   Zn918   1.994   .     S
O909   Zn917   2.002   .     S
O910   Zn918   2.002   .     S
O911   Zn917   2.016   .     S
O912   Zn918   2.016   .     S
O913   Zn917   1.993   .     S
O914   Zn918   1.993   .     S
O915   Zn917   1.998   .     S
O916   Zn918   1.998   .     S
C919   C937    1.446   .     S
C919   O1014   1.275   .     A
C919   O1011   1.288   .     A
C920   C936    1.407   .     A
C920   C949    1.530   .     S
C920   C1024   1.383   .     S
C921   C951    1.532   .     S
C921   C936    1.423   .     A
C921   C1062   1.408   .     S
C922   C954    1.535   .     S
C922   C937    1.415   .     A
C922   C1124   1.383   1_455 S
C923   C934    1.384   .     A
C923   C927    1.393   .     A
C923   H1004   1.084   .     S
C924   H1005   1.085   .     S
C924   C935    1.381   .     A
C924   C928    1.391   .     A
C925   C929    1.389   .     A
C925   H1006   1.086   .     S
C925   C935    1.384   .     A
C926   C931    1.386   .     A
C926   C934    1.387   .     A
C926   H1007   1.085   .     S
C927   C932    1.429   .     A
C927   C938    1.520   .     S
C928   C940    1.525   .     S
C928   C933    1.441   .     A
C929   C933    1.429   .     A
C929   C943    1.517   .     S
C930   O1013   1.284   .     A
C930   O1012   1.283   .     A
C930   C936    1.452   .     S
C931   C932    1.420   .     A
C931   C945    1.513   .     S
C932   C941    1.457   .     S
C933   C952    1.473   .     S
C935   C16     1.436   1_556 S
C937   C960    1.437   .     A
C938   H964    1.112   .     S
C938   H965    1.104   .     S
C938   C939    1.529   .     S
C939   H963    1.111   .     S
C939   H1008   1.111   .     S
C939   H962    1.110   .     S
C940   C942    1.526   .     S
C940   H970    1.113   .     S
C940   H969    1.106   .     S
C941   O1018   1.286   .     A
C941   O1015   1.282   .     A
C942   H968    1.111   .     S
C942   H966    1.103   .     S
C942   H967    1.111   .     S
C943   H975    1.113   .     S
C943   C944    1.529   .     S
C943   H976    1.107   .     S
C944   H973    1.111   .     S
C944   H971    1.110   .     S
C944   H974    1.110   .     S
C945   H980    1.105   .     S
C945   H981    1.112   .     S
C945   C946    1.527   .     S
C946   H979    1.111   .     S
C946   H978    1.109   .     S
C946   H977    1.106   .     S
C947   C960    1.540   .     S
C947   H986    1.102   .     S
C947   H987    1.098   .     S
C947   C948    1.523   .     S
C948   H982    1.111   .     S
C948   H985    1.110   .     S
C948   H984    1.100   .     S
C949   H991    1.108   .     S
C949   H992    1.111   .     S
C949   C950    1.531   .     S
C950   H990    1.111   .     S
C950   H989    1.110   .     S
C950   H988    1.107   .     S
C951   C953    1.531   .     S
C951   H997    1.098   .     S
C951   H998    1.107   .     S
C952   O1017   1.294   .     A
C952   O1016   1.284   .     A
C953   H993    1.107   .     S
C953   H995    1.108   .     S
C953   H996    1.109   .     S
C954   C955    1.530   .     S
C954   H1003   1.111   .     S
C954   H1002   1.109   .     S
C955   H999    1.111   .     S
C955   H1000   1.105   .     S
C955   H1001   1.111   .     S
C956   N1010   1.364   .     A
C956   H961    1.081   .     S
C956   C1571   1.410   1_545 S
C957   H972    1.076   .     S
C957   N1009   1.361   .     A
C957   C1264   1.409   .     S
C958   N1010   1.363   .     A
C958   H983    1.078   .     S
C958   C1569   1.409   1_545 S
C959   N1009   1.363   .     A
C959   H994    1.080   .     S
C959   C1262   1.410   .     S
C960   C1125   1.408   1_455 S
N1009  Zn1019  1.994   .     S
N1010  Zn1020  1.994   .     S
O1011  Zn1019  2.002   .     S
O1012  Zn1020  2.002   .     S
O1013  Zn1019  2.016   .     S
O1014  Zn1020  2.016   .     S
O1015  Zn1019  1.993   .     S
O1016  Zn1020  1.993   .     S
O1017  Zn1019  1.998   .     S
O1018  Zn1020  1.998   .     S
C1021  C1039   1.446   .     S
C1021  O1116   1.275   .     A
C1021  O1113   1.288   .     A
C1022  C1038   1.407   .     A
C1022  C1051   1.530   .     S
C1022  C1126   1.383   .     S
C1023  C1053   1.532   .     S
C1023  C1038   1.423   .     A
C1023  C1164   1.408   .     S
C1024  C1056   1.535   .     S
C1024  C1039   1.415   .     A
C1025  C1036   1.384   .     A
C1025  C1029   1.393   .     A
C1025  H1106   1.084   .     S
C1026  H1107   1.085   .     S
C1026  C1037   1.381   .     A
C1026  C1030   1.391   .     A
C1027  C1031   1.389   .     A
C1027  H1108   1.086   .     S
C1027  C1037   1.384   .     A
C1028  C1033   1.386   .     A
C1028  C1036   1.387   .     A
C1028  H1109   1.085   .     S
C1029  C1034   1.429   .     A
C1029  C1040   1.520   .     S
C1030  C1042   1.525   .     S
C1030  C1035   1.441   .     A
C1031  C1035   1.429   .     A
C1031  C1045   1.517   .     S
C1032  O1115   1.284   .     A
C1032  O1114   1.283   .     A
C1032  C1038   1.452   .     S
C1033  C1034   1.420   .     A
C1033  C1047   1.513   .     S
C1034  C1043   1.457   .     S
C1035  C1054   1.473   .     S
C1037  C118    1.436   1_556 S
C1039  C1062   1.437   .     A
C1040  H1066   1.112   .     S
C1040  H1067   1.104   .     S
C1040  C1041   1.529   .     S
C1041  H1065   1.111   .     S
C1041  H1110   1.111   .     S
C1041  H1064   1.110   .     S
C1042  C1044   1.526   .     S
C1042  H1072   1.113   .     S
C1042  H1071   1.106   .     S
C1043  O1120   1.286   .     A
C1043  O1117   1.282   .     A
C1044  H1070   1.111   .     S
C1044  H1068   1.103   .     S
C1044  H1069   1.111   .     S
C1045  H1077   1.113   .     S
C1045  C1046   1.529   .     S
C1045  H1078   1.107   .     S
C1046  H1075   1.111   .     S
C1046  H1073   1.110   .     S
C1046  H1076   1.110   .     S
C1047  H1082   1.105   .     S
C1047  H1083   1.112   .     S
C1047  C1048   1.527   .     S
C1048  H1081   1.111   .     S
C1048  H1080   1.109   .     S
C1048  H1079   1.106   .     S
C1049  C1062   1.540   .     S
C1049  H1088   1.102   .     S
C1049  H1089   1.098   .     S
C1049  C1050   1.523   .     S
C1050  H1084   1.111   .     S
C1050  H1087   1.110   .     S
C1050  H1086   1.100   .     S
C1051  H1093   1.108   .     S
C1051  H1094   1.111   .     S
C1051  C1052   1.531   .     S
C1052  H1092   1.111   .     S
C1052  H1091   1.110   .     S
C1052  H1090   1.107   .     S
C1053  C1055   1.531   .     S
C1053  H1099   1.098   .     S
C1053  H1100   1.107   .     S
C1054  O1119   1.294   .     A
C1054  O1118   1.284   .     A
C1055  H1095   1.107   .     S
C1055  H1097   1.108   .     S
C1055  H1098   1.109   .     S
C1056  C1057   1.530   .     S
C1056  H1105   1.111   .     S
C1056  H1104   1.109   .     S
C1057  H1101   1.111   .     S
C1057  H1102   1.105   .     S
C1057  H1103   1.111   .     S
C1058  N1112   1.364   .     A
C1058  H1063   1.081   .     S
C1058  C1673   1.410   1_545 S
C1059  H1074   1.076   .     S
C1059  N1111   1.361   .     A
C1059  C1366   1.409   .     S
C1060  N1112   1.363   .     A
C1060  H1085   1.078   .     S
C1060  C1671   1.409   1_545 S
C1061  N1111   1.363   .     A
C1061  H1096   1.080   .     S
C1061  C1364   1.410   .     S
N1111  Zn1121  1.994   .     S
N1112  Zn1122  1.994   .     S
O1113  Zn1121  2.002   .     S
O1114  Zn1122  2.002   .     S
O1115  Zn1121  2.016   .     S
O1116  Zn1122  2.016   .     S
O1117  Zn1121  1.993   .     S
O1118  Zn1122  1.993   .     S
O1119  Zn1121  1.998   .     S
O1120  Zn1122  1.998   .     S
C1123  C1141   1.446   .     S
C1123  O1218   1.275   .     A
C1123  O1215   1.288   .     A
C1124  C1140   1.407   .     A
C1124  C1153   1.530   .     S
C1124  C922    1.383   1_655 S
C1125  C1155   1.532   .     S
C1125  C1140   1.423   .     A
C1125  C960    1.408   1_655 S
C1126  C1158   1.535   .     S
C1126  C1141   1.415   .     A
C1127  C1138   1.384   .     A
C1127  C1131   1.393   .     A
C1127  H1208   1.084   .     S
C1128  H1209   1.085   .     S
C1128  C1139   1.381   .     A
C1128  C1132   1.391   .     A
C1129  C1133   1.389   .     A
C1129  H1210   1.086   .     S
C1129  C1139   1.384   .     A
C1130  C1135   1.386   .     A
C1130  C1138   1.387   .     A
C1130  H1211   1.085   .     S
C1131  C1136   1.429   .     A
C1131  C1142   1.520   .     S
C1132  C1144   1.525   .     S
C1132  C1137   1.441   .     A
C1133  C1137   1.429   .     A
C1133  C1147   1.517   .     S
C1134  O1217   1.284   .     A
C1134  O1216   1.283   .     A
C1134  C1140   1.452   .     S
C1135  C1136   1.420   .     A
C1135  C1149   1.513   .     S
C1136  C1145   1.457   .     S
C1137  C1156   1.473   .     S
C1139  C220    1.436   1_556 S
C1141  C1164   1.437   .     A
C1142  H1168   1.112   .     S
C1142  H1169   1.104   .     S
C1142  C1143   1.529   .     S
C1143  H1167   1.111   .     S
C1143  H1212   1.111   .     S
C1143  H1166   1.110   .     S
C1144  C1146   1.526   .     S
C1144  H1174   1.113   .     S
C1144  H1173   1.106   .     S
C1145  O1222   1.286   .     A
C1145  O1219   1.282   .     A
C1146  H1172   1.111   .     S
C1146  H1170   1.103   .     S
C1146  H1171   1.111   .     S
C1147  H1179   1.113   .     S
C1147  C1148   1.529   .     S
C1147  H1180   1.107   .     S
C1148  H1177   1.111   .     S
C1148  H1175   1.110   .     S
C1148  H1178   1.110   .     S
C1149  H1184   1.105   .     S
C1149  H1185   1.112   .     S
C1149  C1150   1.527   .     S
C1150  H1183   1.111   .     S
C1150  H1182   1.109   .     S
C1150  H1181   1.106   .     S
C1151  C1164   1.540   .     S
C1151  H1190   1.102   .     S
C1151  H1191   1.098   .     S
C1151  C1152   1.523   .     S
C1152  H1186   1.111   .     S
C1152  H1189   1.110   .     S
C1152  H1188   1.100   .     S
C1153  H1195   1.108   .     S
C1153  H1196   1.111   .     S
C1153  C1154   1.531   .     S
C1154  H1194   1.111   .     S
C1154  H1193   1.110   .     S
C1154  H1192   1.107   .     S
C1155  C1157   1.531   .     S
C1155  H1201   1.098   .     S
C1155  H1202   1.107   .     S
C1156  O1221   1.294   .     A
C1156  O1220   1.284   .     A
C1157  H1197   1.107   .     S
C1157  H1199   1.108   .     S
C1157  H1200   1.109   .     S
C1158  C1159   1.530   .     S
C1158  H1207   1.111   .     S
C1158  H1206   1.109   .     S
C1159  H1203   1.111   .     S
C1159  H1204   1.105   .     S
C1159  H1205   1.111   .     S
C1160  N1214   1.364   .     A
C1160  H1165   1.081   .     S
C1160  C1775   1.410   1_545 S
C1161  H1176   1.076   .     S
C1161  N1213   1.361   .     A
C1161  C1468   1.409   .     S
C1162  N1214   1.363   .     A
C1162  H1187   1.078   .     S
C1162  C1773   1.409   1_545 S
C1163  N1213   1.363   .     A
C1163  H1198   1.080   .     S
C1163  C1466   1.410   .     S
N1213  Zn1223  1.994   .     S
N1214  Zn1224  1.994   .     S
O1215  Zn1223  2.002   .     S
O1216  Zn1224  2.002   .     S
O1217  Zn1223  2.016   .     S
O1218  Zn1224  2.016   .     S
O1219  Zn1223  1.993   .     S
O1220  Zn1224  1.993   .     S
O1221  Zn1223  1.998   .     S
O1222  Zn1224  1.998   .     S
C1225  C1243   1.446   .     S
C1225  O1320   1.275   .     A
C1225  O1317   1.288   .     A
C1226  C1242   1.407   .     A
C1226  C1255   1.530   .     S
C1226  C1330   1.383   .     S
C1227  C1257   1.532   .     S
C1227  C1242   1.423   .     A
C1227  C1368   1.408   .     S
C1228  C1260   1.535   .     S
C1228  C1243   1.415   .     A
C1228  C1430   1.383   1_455 S
C1229  C1240   1.384   .     A
C1229  C1233   1.393   .     A
C1229  H1310   1.084   .     S
C1230  H1311   1.085   .     S
C1230  C1241   1.381   .     A
C1230  C1234   1.391   .     A
C1231  C1235   1.389   .     A
C1231  H1312   1.086   .     S
C1231  C1241   1.384   .     A
C1232  C1237   1.386   .     A
C1232  C1240   1.387   .     A
C1232  H1313   1.085   .     S
C1233  C1238   1.429   .     A
C1233  C1244   1.520   .     S
C1234  C1246   1.525   .     S
C1234  C1239   1.441   .     A
C1235  C1239   1.429   .     A
C1235  C1249   1.517   .     S
C1236  O1319   1.284   .     A
C1236  O1318   1.283   .     A
C1236  C1242   1.452   .     S
C1237  C1238   1.420   .     A
C1237  C1251   1.513   .     S
C1238  C1247   1.457   .     S
C1239  C1258   1.473   .     S
C1241  C322    1.436   1_556 S
C1243  C1266   1.437   .     A
C1244  H1270   1.112   .     S
C1244  H1271   1.104   .     S
C1244  C1245   1.529   .     S
C1245  H1269   1.111   .     S
C1245  H1314   1.111   .     S
C1245  H1268   1.110   .     S
C1246  C1248   1.526   .     S
C1246  H1276   1.113   .     S
C1246  H1275   1.106   .     S
C1247  O1324   1.286   .     A
C1247  O1321   1.282   .     A
C1248  H1274   1.111   .     S
C1248  H1272   1.103   .     S
C1248  H1273   1.111   .     S
C1249  H1281   1.113   .     S
C1249  C1250   1.529   .     S
C1249  H1282   1.107   .     S
C1250  H1279   1.111   .     S
C1250  H1277   1.110   .     S
C1250  H1280   1.110   .     S
C1251  H1286   1.105   .     S
C1251  H1287   1.112   .     S
C1251  C1252   1.527   .     S
C1252  H1285   1.111   .     S
C1252  H1284   1.109   .     S
C1252  H1283   1.106   .     S
C1253  C1266   1.540   .     S
C1253  H1292   1.102   .     S
C1253  H1293   1.098   .     S
C1253  C1254   1.523   .     S
C1254  H1288   1.111   .     S
C1254  H1291   1.110   .     S
C1254  H1290   1.100   .     S
C1255  H1297   1.108   .     S
C1255  H1298   1.111   .     S
C1255  C1256   1.531   .     S
C1256  H1296   1.111   .     S
C1256  H1295   1.110   .     S
C1256  H1294   1.107   .     S
C1257  C1259   1.531   .     S
C1257  H1303   1.098   .     S
C1257  H1304   1.107   .     S
C1258  O1323   1.294   .     A
C1258  O1322   1.284   .     A
C1259  H1299   1.107   .     S
C1259  H1301   1.108   .     S
C1259  H1302   1.109   .     S
C1260  C1261   1.530   .     S
C1260  H1309   1.111   .     S
C1260  H1308   1.109   .     S
C1261  H1305   1.111   .     S
C1261  H1306   1.105   .     S
C1261  H1307   1.111   .     S
C1262  N1316   1.364   .     A
C1262  H1267   1.081   .     S
C1263  H1278   1.076   .     S
C1263  N1315   1.361   .     A
C1263  C1570   1.409   .     S
C1264  N1316   1.363   .     A
C1264  H1289   1.078   .     S
C1265  N1315   1.363   .     A
C1265  H1300   1.080   .     S
C1265  C1568   1.410   .     S
C1266  C1431   1.408   1_455 S
N1315  Zn1325  1.994   .     S
N1316  Zn1326  1.994   .     S
O1317  Zn1325  2.002   .     S
O1318  Zn1326  2.002   .     S
O1319  Zn1325  2.016   .     S
O1320  Zn1326  2.016   .     S
O1321  Zn1325  1.993   .     S
O1322  Zn1326  1.993   .     S
O1323  Zn1325  1.998   .     S
O1324  Zn1326  1.998   .     S
C1327  C1345   1.446   .     S
C1327  O1422   1.275   .     A
C1327  O1419   1.288   .     A
C1328  C1344   1.407   .     A
C1328  C1357   1.530   .     S
C1328  C1432   1.383   .     S
C1329  C1359   1.532   .     S
C1329  C1344   1.423   .     A
C1329  C1470   1.408   .     S
C1330  C1362   1.535   .     S
C1330  C1345   1.415   .     A
C1331  C1342   1.384   .     A
C1331  C1335   1.393   .     A
C1331  H1412   1.084   .     S
C1332  H1413   1.085   .     S
C1332  C1343   1.381   .     A
C1332  C1336   1.391   .     A
C1333  C1337   1.389   .     A
C1333  H1414   1.086   .     S
C1333  C1343   1.384   .     A
C1334  C1339   1.386   .     A
C1334  C1342   1.387   .     A
C1334  H1415   1.085   .     S
C1335  C1340   1.429   .     A
C1335  C1346   1.520   .     S
C1336  C1348   1.525   .     S
C1336  C1341   1.441   .     A
C1337  C1341   1.429   .     A
C1337  C1351   1.517   .     S
C1338  O1421   1.284   .     A
C1338  O1420   1.283   .     A
C1338  C1344   1.452   .     S
C1339  C1340   1.420   .     A
C1339  C1353   1.513   .     S
C1340  C1349   1.457   .     S
C1341  C1360   1.473   .     S
C1343  C424    1.436   1_556 S
C1345  C1368   1.437   .     A
C1346  H1372   1.112   .     S
C1346  H1373   1.104   .     S
C1346  C1347   1.529   .     S
C1347  H1371   1.111   .     S
C1347  H1416   1.111   .     S
C1347  H1370   1.110   .     S
C1348  C1350   1.526   .     S
C1348  H1378   1.113   .     S
C1348  H1377   1.106   .     S
C1349  O1426   1.286   .     A
C1349  O1423   1.282   .     A
C1350  H1376   1.111   .     S
C1350  H1374   1.103   .     S
C1350  H1375   1.111   .     S
C1351  H1383   1.113   .     S
C1351  C1352   1.529   .     S
C1351  H1384   1.107   .     S
C1352  H1381   1.111   .     S
C1352  H1379   1.110   .     S
C1352  H1382   1.110   .     S
C1353  H1388   1.105   .     S
C1353  H1389   1.112   .     S
C1353  C1354   1.527   .     S
C1354  H1387   1.111   .     S
C1354  H1386   1.109   .     S
C1354  H1385   1.106   .     S
C1355  C1368   1.540   .     S
C1355  H1394   1.102   .     S
C1355  H1395   1.098   .     S
C1355  C1356   1.523   .     S
C1356  H1390   1.111   .     S
C1356  H1393   1.110   .     S
C1356  H1392   1.100   .     S
C1357  H1399   1.108   .     S
C1357  H1400   1.111   .     S
C1357  C1358   1.531   .     S
C1358  H1398   1.111   .     S
C1358  H1397   1.110   .     S
C1358  H1396   1.107   .     S
C1359  C1361   1.531   .     S
C1359  H1405   1.098   .     S
C1359  H1406   1.107   .     S
C1360  O1425   1.294   .     A
C1360  O1424   1.284   .     A
C1361  H1401   1.107   .     S
C1361  H1403   1.108   .     S
C1361  H1404   1.109   .     S
C1362  C1363   1.530   .     S
C1362  H1411   1.111   .     S
C1362  H1410   1.109   .     S
C1363  H1407   1.111   .     S
C1363  H1408   1.105   .     S
C1363  H1409   1.111   .     S
C1364  N1418   1.364   .     A
C1364  H1369   1.081   .     S
C1365  H1380   1.076   .     S
C1365  N1417   1.361   .     A
C1365  C1672   1.409   .     S
C1366  N1418   1.363   .     A
C1366  H1391   1.078   .     S
C1367  N1417   1.363   .     A
C1367  H1402   1.080   .     S
C1367  C1670   1.410   .     S
N1417  Zn1427  1.994   .     S
N1418  Zn1428  1.994   .     S
O1419  Zn1427  2.002   .     S
O1420  Zn1428  2.002   .     S
O1421  Zn1427  2.016   .     S
O1422  Zn1428  2.016   .     S
O1423  Zn1427  1.993   .     S
O1424  Zn1428  1.993   .     S
O1425  Zn1427  1.998   .     S
O1426  Zn1428  1.998   .     S
C1429  C1447   1.446   .     S
C1429  O1524   1.275   .     A
C1429  O1521   1.288   .     A
C1430  C1446   1.407   .     A
C1430  C1459   1.530   .     S
C1430  C1228   1.383   1_655 S
C1431  C1461   1.532   .     S
C1431  C1446   1.423   .     A
C1431  C1266   1.408   1_655 S
C1432  C1464   1.535   .     S
C1432  C1447   1.415   .     A
C1433  C1444   1.384   .     A
C1433  C1437   1.393   .     A
C1433  H1514   1.084   .     S
C1434  H1515   1.085   .     S
C1434  C1445   1.381   .     A
C1434  C1438   1.391   .     A
C1435  C1439   1.389   .     A
C1435  H1516   1.086   .     S
C1435  C1445   1.384   .     A
C1436  C1441   1.386   .     A
C1436  C1444   1.387   .     A
C1436  H1517   1.085   .     S
C1437  C1442   1.429   .     A
C1437  C1448   1.520   .     S
C1438  C1450   1.525   .     S
C1438  C1443   1.441   .     A
C1439  C1443   1.429   .     A
C1439  C1453   1.517   .     S
C1440  O1523   1.284   .     A
C1440  O1522   1.283   .     A
C1440  C1446   1.452   .     S
C1441  C1442   1.420   .     A
C1441  C1455   1.513   .     S
C1442  C1451   1.457   .     S
C1443  C1462   1.473   .     S
C1445  C526    1.436   1_556 S
C1447  C1470   1.437   .     A
C1448  H1474   1.112   .     S
C1448  H1475   1.104   .     S
C1448  C1449   1.529   .     S
C1449  H1473   1.111   .     S
C1449  H1518   1.111   .     S
C1449  H1472   1.110   .     S
C1450  C1452   1.526   .     S
C1450  H1480   1.113   .     S
C1450  H1479   1.106   .     S
C1451  O1528   1.286   .     A
C1451  O1525   1.282   .     A
C1452  H1478   1.111   .     S
C1452  H1476   1.103   .     S
C1452  H1477   1.111   .     S
C1453  H1485   1.113   .     S
C1453  C1454   1.529   .     S
C1453  H1486   1.107   .     S
C1454  H1483   1.111   .     S
C1454  H1481   1.110   .     S
C1454  H1484   1.110   .     S
C1455  H1490   1.105   .     S
C1455  H1491   1.112   .     S
C1455  C1456   1.527   .     S
C1456  H1489   1.111   .     S
C1456  H1488   1.109   .     S
C1456  H1487   1.106   .     S
C1457  C1470   1.540   .     S
C1457  H1496   1.102   .     S
C1457  H1497   1.098   .     S
C1457  C1458   1.523   .     S
C1458  H1492   1.111   .     S
C1458  H1495   1.110   .     S
C1458  H1494   1.100   .     S
C1459  H1501   1.108   .     S
C1459  H1502   1.111   .     S
C1459  C1460   1.531   .     S
C1460  H1500   1.111   .     S
C1460  H1499   1.110   .     S
C1460  H1498   1.107   .     S
C1461  C1463   1.531   .     S
C1461  H1507   1.098   .     S
C1461  H1508   1.107   .     S
C1462  O1527   1.294   .     A
C1462  O1526   1.284   .     A
C1463  H1503   1.107   .     S
C1463  H1505   1.108   .     S
C1463  H1506   1.109   .     S
C1464  C1465   1.530   .     S
C1464  H1513   1.111   .     S
C1464  H1512   1.109   .     S
C1465  H1509   1.111   .     S
C1465  H1510   1.105   .     S
C1465  H1511   1.111   .     S
C1466  N1520   1.364   .     A
C1466  H1471   1.081   .     S
C1467  H1482   1.076   .     S
C1467  N1519   1.361   .     A
C1467  C1774   1.409   .     S
C1468  N1520   1.363   .     A
C1468  H1493   1.078   .     S
C1469  N1519   1.363   .     A
C1469  H1504   1.080   .     S
C1469  C1772   1.410   .     S
N1519  Zn1529  1.994   .     S
N1520  Zn1530  1.994   .     S
O1521  Zn1529  2.002   .     S
O1522  Zn1530  2.002   .     S
O1523  Zn1529  2.016   .     S
O1524  Zn1530  2.016   .     S
O1525  Zn1529  1.993   .     S
O1526  Zn1530  1.993   .     S
O1527  Zn1529  1.998   .     S
O1528  Zn1530  1.998   .     S
C1531  C1549   1.446   .     S
C1531  O1626   1.275   .     A
C1531  O1623   1.288   .     A
C1532  C1548   1.407   .     A
C1532  C1561   1.530   .     S
C1532  C1636   1.383   .     S
C1533  C1563   1.532   .     S
C1533  C1548   1.423   .     A
C1533  C1674   1.408   .     S
C1534  C1566   1.535   .     S
C1534  C1549   1.415   .     A
C1534  C1736   1.383   1_455 S
C1535  C1546   1.384   .     A
C1535  C1539   1.393   .     A
C1535  H1616   1.084   .     S
C1536  H1617   1.085   .     S
C1536  C1547   1.381   .     A
C1536  C1540   1.391   .     A
C1537  C1541   1.389   .     A
C1537  H1618   1.086   .     S
C1537  C1547   1.384   .     A
C1538  C1543   1.386   .     A
C1538  C1546   1.387   .     A
C1538  H1619   1.085   .     S
C1539  C1544   1.429   .     A
C1539  C1550   1.520   .     S
C1540  C1552   1.525   .     S
C1540  C1545   1.441   .     A
C1541  C1545   1.429   .     A
C1541  C1555   1.517   .     S
C1542  O1625   1.284   .     A
C1542  O1624   1.283   .     A
C1542  C1548   1.452   .     S
C1543  C1544   1.420   .     A
C1543  C1557   1.513   .     S
C1544  C1553   1.457   .     S
C1545  C1564   1.473   .     S
C1547  C628    1.436   1_556 S
C1549  C1572   1.437   .     A
C1550  H1576   1.112   .     S
C1550  H1577   1.104   .     S
C1550  C1551   1.529   .     S
C1551  H1575   1.111   .     S
C1551  H1620   1.111   .     S
C1551  H1574   1.110   .     S
C1552  C1554   1.526   .     S
C1552  H1582   1.113   .     S
C1552  H1581   1.106   .     S
C1553  O1630   1.286   .     A
C1553  O1627   1.282   .     A
C1554  H1580   1.111   .     S
C1554  H1578   1.103   .     S
C1554  H1579   1.111   .     S
C1555  H1587   1.113   .     S
C1555  C1556   1.529   .     S
C1555  H1588   1.107   .     S
C1556  H1585   1.111   .     S
C1556  H1583   1.110   .     S
C1556  H1586   1.110   .     S
C1557  H1592   1.105   .     S
C1557  H1593   1.112   .     S
C1557  C1558   1.527   .     S
C1558  H1591   1.111   .     S
C1558  H1590   1.109   .     S
C1558  H1589   1.106   .     S
C1559  C1572   1.540   .     S
C1559  H1598   1.102   .     S
C1559  H1599   1.098   .     S
C1559  C1560   1.523   .     S
C1560  H1594   1.111   .     S
C1560  H1597   1.110   .     S
C1560  H1596   1.100   .     S
C1561  H1603   1.108   .     S
C1561  H1604   1.111   .     S
C1561  C1562   1.531   .     S
C1562  H1602   1.111   .     S
C1562  H1601   1.110   .     S
C1562  H1600   1.107   .     S
C1563  C1565   1.531   .     S
C1563  H1609   1.098   .     S
C1563  H1610   1.107   .     S
C1564  O1629   1.294   .     A
C1564  O1628   1.284   .     A
C1565  H1605   1.107   .     S
C1565  H1607   1.108   .     S
C1565  H1608   1.109   .     S
C1566  C1567   1.530   .     S
C1566  H1615   1.111   .     S
C1566  H1614   1.109   .     S
C1567  H1611   1.111   .     S
C1567  H1612   1.105   .     S
C1567  H1613   1.111   .     S
C1568  N1622   1.364   .     A
C1568  H1573   1.081   .     S
C1569  H1584   1.076   .     S
C1569  N1621   1.361   .     A
C1569  C958    1.409   1_565 S
C1570  N1622   1.363   .     A
C1570  H1595   1.078   .     S
C1571  N1621   1.363   .     A
C1571  H1606   1.080   .     S
C1571  C956    1.410   1_565 S
C1572  C1737   1.408   1_455 S
N1621  Zn1631  1.994   .     S
N1622  Zn1632  1.994   .     S
O1623  Zn1631  2.002   .     S
O1624  Zn1632  2.002   .     S
O1625  Zn1631  2.016   .     S
O1626  Zn1632  2.016   .     S
O1627  Zn1631  1.993   .     S
O1628  Zn1632  1.993   .     S
O1629  Zn1631  1.998   .     S
O1630  Zn1632  1.998   .     S
C1633  C1651   1.446   .     S
C1633  O1728   1.275   .     A
C1633  O1725   1.288   .     A
C1634  C1650   1.407   .     A
C1634  C1663   1.530   .     S
C1634  C1738   1.383   .     S
C1635  C1665   1.532   .     S
C1635  C1650   1.423   .     A
C1635  C1776   1.408   .     S
C1636  C1668   1.535   .     S
C1636  C1651   1.415   .     A
C1637  C1648   1.384   .     A
C1637  C1641   1.393   .     A
C1637  H1718   1.084   .     S
C1638  H1719   1.085   .     S
C1638  C1649   1.381   .     A
C1638  C1642   1.391   .     A
C1639  C1643   1.389   .     A
C1639  H1720   1.086   .     S
C1639  C1649   1.384   .     A
C1640  C1645   1.386   .     A
C1640  C1648   1.387   .     A
C1640  H1721   1.085   .     S
C1641  C1646   1.429   .     A
C1641  C1652   1.520   .     S
C1642  C1654   1.525   .     S
C1642  C1647   1.441   .     A
C1643  C1647   1.429   .     A
C1643  C1657   1.517   .     S
C1644  O1727   1.284   .     A
C1644  O1726   1.283   .     A
C1644  C1650   1.452   .     S
C1645  C1646   1.420   .     A
C1645  C1659   1.513   .     S
C1646  C1655   1.457   .     S
C1647  C1666   1.473   .     S
C1649  C730    1.436   1_556 S
C1651  C1674   1.437   .     A
C1652  H1678   1.112   .     S
C1652  H1679   1.104   .     S
C1652  C1653   1.529   .     S
C1653  H1677   1.111   .     S
C1653  H1722   1.111   .     S
C1653  H1676   1.110   .     S
C1654  C1656   1.526   .     S
C1654  H1684   1.113   .     S
C1654  H1683   1.106   .     S
C1655  O1732   1.286   .     A
C1655  O1729   1.282   .     A
C1656  H1682   1.111   .     S
C1656  H1680   1.103   .     S
C1656  H1681   1.111   .     S
C1657  H1689   1.113   .     S
C1657  C1658   1.529   .     S
C1657  H1690   1.107   .     S
C1658  H1687   1.111   .     S
C1658  H1685   1.110   .     S
C1658  H1688   1.110   .     S
C1659  H1694   1.105   .     S
C1659  H1695   1.112   .     S
C1659  C1660   1.527   .     S
C1660  H1693   1.111   .     S
C1660  H1692   1.109   .     S
C1660  H1691   1.106   .     S
C1661  C1674   1.540   .     S
C1661  H1700   1.102   .     S
C1661  H1701   1.098   .     S
C1661  C1662   1.523   .     S
C1662  H1696   1.111   .     S
C1662  H1699   1.110   .     S
C1662  H1698   1.100   .     S
C1663  H1705   1.108   .     S
C1663  H1706   1.111   .     S
C1663  C1664   1.531   .     S
C1664  H1704   1.111   .     S
C1664  H1703   1.110   .     S
C1664  H1702   1.107   .     S
C1665  C1667   1.531   .     S
C1665  H1711   1.098   .     S
C1665  H1712   1.107   .     S
C1666  O1731   1.294   .     A
C1666  O1730   1.284   .     A
C1667  H1707   1.107   .     S
C1667  H1709   1.108   .     S
C1667  H1710   1.109   .     S
C1668  C1669   1.530   .     S
C1668  H1717   1.111   .     S
C1668  H1716   1.109   .     S
C1669  H1713   1.111   .     S
C1669  H1714   1.105   .     S
C1669  H1715   1.111   .     S
C1670  N1724   1.364   .     A
C1670  H1675   1.081   .     S
C1671  H1686   1.076   .     S
C1671  N1723   1.361   .     A
C1671  C1060   1.409   1_565 S
C1672  N1724   1.363   .     A
C1672  H1697   1.078   .     S
C1673  N1723   1.363   .     A
C1673  H1708   1.080   .     S
C1673  C1058   1.410   1_565 S
N1723  Zn1733  1.994   .     S
N1724  Zn1734  1.994   .     S
O1725  Zn1733  2.002   .     S
O1726  Zn1734  2.002   .     S
O1727  Zn1733  2.016   .     S
O1728  Zn1734  2.016   .     S
O1729  Zn1733  1.993   .     S
O1730  Zn1734  1.993   .     S
O1731  Zn1733  1.998   .     S
O1732  Zn1734  1.998   .     S
C1735  C1753   1.446   .     S
C1735  O1830   1.275   .     A
C1735  O1827   1.288   .     A
C1736  C1752   1.407   .     A
C1736  C1765   1.530   .     S
C1736  C1534   1.383   1_655 S
C1737  C1767   1.532   .     S
C1737  C1752   1.423   .     A
C1737  C1572   1.408   1_655 S
C1738  C1770   1.535   .     S
C1738  C1753   1.415   .     A
C1739  C1750   1.384   .     A
C1739  C1743   1.393   .     A
C1739  H1820   1.084   .     S
C1740  H1821   1.085   .     S
C1740  C1751   1.381   .     A
C1740  C1744   1.391   .     A
C1741  C1745   1.389   .     A
C1741  H1822   1.086   .     S
C1741  C1751   1.384   .     A
C1742  C1747   1.386   .     A
C1742  C1750   1.387   .     A
C1742  H1823   1.085   .     S
C1743  C1748   1.429   .     A
C1743  C1754   1.520   .     S
C1744  C1756   1.525   .     S
C1744  C1749   1.441   .     A
C1745  C1749   1.429   .     A
C1745  C1759   1.517   .     S
C1746  O1829   1.284   .     A
C1746  O1828   1.283   .     A
C1746  C1752   1.452   .     S
C1747  C1748   1.420   .     A
C1747  C1761   1.513   .     S
C1748  C1757   1.457   .     S
C1749  C1768   1.473   .     S
C1751  C832    1.436   1_556 S
C1753  C1776   1.437   .     A
C1754  H1780   1.112   .     S
C1754  H1781   1.104   .     S
C1754  C1755   1.529   .     S
C1755  H1779   1.111   .     S
C1755  H1824   1.111   .     S
C1755  H1778   1.110   .     S
C1756  C1758   1.526   .     S
C1756  H1786   1.113   .     S
C1756  H1785   1.106   .     S
C1757  O1834   1.286   .     A
C1757  O1831   1.282   .     A
C1758  H1784   1.111   .     S
C1758  H1782   1.103   .     S
C1758  H1783   1.111   .     S
C1759  H1791   1.113   .     S
C1759  C1760   1.529   .     S
C1759  H1792   1.107   .     S
C1760  H1789   1.111   .     S
C1760  H1787   1.110   .     S
C1760  H1790   1.110   .     S
C1761  H1796   1.105   .     S
C1761  H1797   1.112   .     S
C1761  C1762   1.527   .     S
C1762  H1795   1.111   .     S
C1762  H1794   1.109   .     S
C1762  H1793   1.106   .     S
C1763  C1776   1.540   .     S
C1763  H1802   1.102   .     S
C1763  H1803   1.098   .     S
C1763  C1764   1.523   .     S
C1764  H1798   1.111   .     S
C1764  H1801   1.110   .     S
C1764  H1800   1.100   .     S
C1765  H1807   1.108   .     S
C1765  H1808   1.111   .     S
C1765  C1766   1.531   .     S
C1766  H1806   1.111   .     S
C1766  H1805   1.110   .     S
C1766  H1804   1.107   .     S
C1767  C1769   1.531   .     S
C1767  H1813   1.098   .     S
C1767  H1814   1.107   .     S
C1768  O1833   1.294   .     A
C1768  O1832   1.284   .     A
C1769  H1809   1.107   .     S
C1769  H1811   1.108   .     S
C1769  H1812   1.109   .     S
C1770  C1771   1.530   .     S
C1770  H1819   1.111   .     S
C1770  H1818   1.109   .     S
C1771  H1815   1.111   .     S
C1771  H1816   1.105   .     S
C1771  H1817   1.111   .     S
C1772  N1826   1.364   .     A
C1772  H1777   1.081   .     S
C1773  H1788   1.076   .     S
C1773  N1825   1.361   .     A
C1773  C1162   1.409   1_565 S
C1774  N1826   1.363   .     A
C1774  H1799   1.078   .     S
C1775  N1825   1.363   .     A
C1775  H1810   1.080   .     S
C1775  C1160   1.410   1_565 S
N1825  Zn1835  1.994   .     S
N1826  Zn1836  1.994   .     S
O1827  Zn1835  2.002   .     S
O1828  Zn1836  2.002   .     S
O1829  Zn1835  2.016   .     S
O1830  Zn1836  2.016   .     S
O1831  Zn1835  1.993   .     S
O1832  Zn1836  1.993   .     S
O1833  Zn1835  1.998   .     S
O1834  Zn1836  1.998   .     S
