data_str_m2_o10_o17_pcu_sym.65
_audit_creation_date              2020-01-03
_audit_creation_method            'Materials Studio'
_symmetry_space_group_name_H-M    'P1'
_symmetry_Int_Tables_number       1
_symmetry_cell_setting            triclinic
loop_
_symmetry_equiv_pos_as_xyz
  x,y,z
_cell_length_a                    30.0695
_cell_length_b                    26.1186
_cell_length_c                    22.2711
_cell_angle_alpha                 101.9088
_cell_angle_beta                  94.7021
_cell_angle_gamma                 92.4986
loop_
_atom_site_label
_atom_site_type_symbol
_atom_site_fract_x
_atom_site_fract_y
_atom_site_fract_z
_atom_site_U_iso_or_equiv
_atom_site_adp_type
_atom_site_occupancy
C1     C     0.24729   0.06690   0.15200   0.00000  Uiso   1.00
C2     C     0.08889   0.14472   0.11342   0.00000  Uiso   1.00
C3     C     0.38397   0.16765   0.16553   0.00000  Uiso   1.00
C4     C     0.11603   0.16561   0.16780   0.00000  Uiso   1.00
C5     C     0.40295   0.14669   0.11120   0.00000  Uiso   1.00
C6     C     0.09705   0.18653   0.22214   0.00000  Uiso   1.00
C7     C     0.44938   0.14566   0.11083   0.00000  Uiso   1.00
C8     C     0.05062   0.18752   0.22251   0.00000  Uiso   1.00
C9     C     0.47668   0.16683   0.16616   0.00000  Uiso   1.00
C10    C     0.02332   0.16634   0.16719   0.00000  Uiso   1.00
C11    C     0.45734   0.18843   0.22061   0.00000  Uiso   1.00
C12    C     0.25272   0.26644   0.18132   0.00000  Uiso   1.00
C13    C     0.04266   0.14475   0.11274   0.00000  Uiso   1.00
C14    C     0.46925   0.12380   0.05691   0.00000  Uiso   1.00
C15    C     0.03075   0.20937   0.27644   0.00000  Uiso   1.00
C16    C     0.01565   0.12364   0.05827   0.00000  Uiso   1.00
C17    C     0.48435   0.20953   0.27509   0.00000  Uiso   1.00
C18    C     0.23821   0.01226   0.14726   0.00000  Uiso   1.00
C19    C     0.26190   0.32108   0.18600   0.00000  Uiso   1.00
C20    C     0.16436   0.16620   0.16716   0.00000  Uiso   1.00
C21    C     0.33564   0.16711   0.16617   0.00000  Uiso   1.00
C22    C     0.41111   0.18851   0.21992   0.00000  Uiso   1.00
Cl23   Cl    0.43757   0.09559   0.32005   0.00000  Uiso   1.00
Cl24   Cl    0.06242   0.23757   0.01331   0.00000  Uiso   1.00
Cu25   Cu    0.25500   0.17246   0.22813   0.00000  Uiso   1.00
Cu26   Cu    0.24499   0.16087   0.10521   0.00000  Uiso   1.00
H27    H     0.39625   0.20504   0.26184   0.00000  Uiso   1.00
H28    H     0.27735   0.02891   0.31803   0.00000  Uiso   1.00
H29    H     0.10375   0.12822   0.07149   0.00000  Uiso   1.00
H30    H     0.38124   0.13054   0.06979   0.00000  Uiso   1.00
H31    H     0.11876   0.20269   0.26355   0.00000  Uiso   1.00
H32    H     0.03065   0.10700   0.01652   0.00000  Uiso   1.00
H33    H     0.46935   0.22616   0.31684   0.00000  Uiso   1.00
H34    H     0.21531   0.12588   0.31612   0.00000  Uiso   1.00
H35    H     0.28469   0.20745   0.01721   0.00000  Uiso   1.00
H36    H     0.13192   0.01364   0.05440   0.00000  Uiso   1.00
N37    N     0.23744   0.15214   0.01284   0.00000  Uiso   1.00
N38    N     0.26255   0.18119   0.32049   0.00000  Uiso   1.00
O39    O     0.25325   0.09538   0.20659   0.00000  Uiso   1.00
O40    O     0.16187   0.28334   0.13021   0.00000  Uiso   1.00
O41    O     0.15782   0.03209   0.08190   0.00000  Uiso   1.00
O42    O     0.33926   0.30701   0.25034   0.00000  Uiso   1.00
O43    O     0.33831   0.04971   0.20242   0.00000  Uiso   1.00
O44    O     0.29622   0.05293   0.30024   0.00000  Uiso   1.00
O45    O     0.24674   0.23796   0.12674   0.00000  Uiso   1.00
O46    O     0.24480   0.08559   0.10279   0.00000  Uiso   1.00
O47    O     0.25520   0.24774   0.23055   0.00000  Uiso   1.00
O48    O     0.18935   0.17155   0.21857   0.00000  Uiso   1.00
O49    O     0.31064   0.16179   0.11476   0.00000  Uiso   1.00
O50    O     0.18090   0.16176   0.11477   0.00000  Uiso   1.00
O51    O     0.31910   0.17157   0.21857   0.00000  Uiso   1.00
O52    O     0.20274   0.28537   0.03958   0.00000  Uiso   1.00
S53    S     0.18923   0.31754   0.09859   0.00000  Uiso   1.00
S54    S     0.31095   0.01598   0.23457   0.00000  Uiso   1.00
C55    C     0.74729   0.06690   0.15200   0.00000  Uiso   1.00
C56    C     0.58889   0.14472   0.11342   0.00000  Uiso   1.00
C57    C     0.88397   0.16765   0.16553   0.00000  Uiso   1.00
C58    C     0.61603   0.16561   0.16780   0.00000  Uiso   1.00
C59    C     0.90295   0.14669   0.11120   0.00000  Uiso   1.00
C60    C     0.59705   0.18653   0.22214   0.00000  Uiso   1.00
C61    C     0.94938   0.14566   0.11083   0.00000  Uiso   1.00
C62    C     0.55062   0.18752   0.22251   0.00000  Uiso   1.00
C63    C     0.97668   0.16683   0.16616   0.00000  Uiso   1.00
C64    C     0.52332   0.16634   0.16719   0.00000  Uiso   1.00
C65    C     0.95734   0.18843   0.22061   0.00000  Uiso   1.00
C66    C     0.75272   0.26644   0.18132   0.00000  Uiso   1.00
C67    C     0.54266   0.14475   0.11274   0.00000  Uiso   1.00
C68    C     0.96925   0.12380   0.05691   0.00000  Uiso   1.00
C69    C     0.53075   0.20937   0.27644   0.00000  Uiso   1.00
C70    C     0.51565   0.12364   0.05827   0.00000  Uiso   1.00
C71    C     0.98435   0.20953   0.27509   0.00000  Uiso   1.00
C72    C     0.73821   0.01226   0.14726   0.00000  Uiso   1.00
C73    C     0.76190   0.32108   0.18600   0.00000  Uiso   1.00
C74    C     0.66436   0.16620   0.16716   0.00000  Uiso   1.00
C75    C     0.83564   0.16711   0.16617   0.00000  Uiso   1.00
C76    C     0.91111   0.18851   0.21992   0.00000  Uiso   1.00
Cl77   Cl    0.93757   0.09559   0.32005   0.00000  Uiso   1.00
Cl78   Cl    0.56242   0.23757   0.01331   0.00000  Uiso   1.00
Cu79   Cu    0.75500   0.17246   0.22813   0.00000  Uiso   1.00
Cu80   Cu    0.74499   0.16087   0.10521   0.00000  Uiso   1.00
H81    H     0.89625   0.20504   0.26184   0.00000  Uiso   1.00
H82    H     0.77735   0.02891   0.31803   0.00000  Uiso   1.00
H83    H     0.60375   0.12822   0.07149   0.00000  Uiso   1.00
H84    H     0.88124   0.13054   0.06979   0.00000  Uiso   1.00
H85    H     0.61876   0.20269   0.26355   0.00000  Uiso   1.00
H86    H     0.53065   0.10700   0.01652   0.00000  Uiso   1.00
H87    H     0.96935   0.22616   0.31684   0.00000  Uiso   1.00
H88    H     0.71531   0.12588   0.31612   0.00000  Uiso   1.00
H89    H     0.78469   0.20745   0.01721   0.00000  Uiso   1.00
H90    H     0.63192   0.01364   0.05440   0.00000  Uiso   1.00
N91    N     0.73744   0.15214   0.01284   0.00000  Uiso   1.00
N92    N     0.76255   0.18119   0.32049   0.00000  Uiso   1.00
O93    O     0.75325   0.09538   0.20659   0.00000  Uiso   1.00
O94    O     0.66187   0.28334   0.13021   0.00000  Uiso   1.00
O95    O     0.65782   0.03209   0.08190   0.00000  Uiso   1.00
O96    O     0.83926   0.30701   0.25034   0.00000  Uiso   1.00
O97    O     0.83831   0.04971   0.20242   0.00000  Uiso   1.00
O98    O     0.79622   0.05293   0.30024   0.00000  Uiso   1.00
O99    O     0.74674   0.23796   0.12674   0.00000  Uiso   1.00
O100   O     0.74480   0.08559   0.10279   0.00000  Uiso   1.00
O101   O     0.75520   0.24774   0.23055   0.00000  Uiso   1.00
O102   O     0.68935   0.17155   0.21857   0.00000  Uiso   1.00
O103   O     0.81064   0.16179   0.11476   0.00000  Uiso   1.00
O104   O     0.68090   0.16176   0.11477   0.00000  Uiso   1.00
O105   O     0.81910   0.17157   0.21857   0.00000  Uiso   1.00
O106   O     0.70274   0.28537   0.03958   0.00000  Uiso   1.00
S107   S     0.68923   0.31754   0.09859   0.00000  Uiso   1.00
S108   S     0.81095   0.01598   0.23457   0.00000  Uiso   1.00
C109   C     0.24729   0.40023   0.15200   0.00000  Uiso   1.00
C110   C     0.08889   0.47806   0.11342   0.00000  Uiso   1.00
C111   C     0.38397   0.50098   0.16553   0.00000  Uiso   1.00
C112   C     0.11603   0.49895   0.16780   0.00000  Uiso   1.00
C113   C     0.40295   0.48002   0.11120   0.00000  Uiso   1.00
C114   C     0.09705   0.51987   0.22214   0.00000  Uiso   1.00
C115   C     0.44938   0.47899   0.11083   0.00000  Uiso   1.00
C116   C     0.05062   0.52086   0.22251   0.00000  Uiso   1.00
C117   C     0.47668   0.50016   0.16616   0.00000  Uiso   1.00
C118   C     0.02332   0.49967   0.16719   0.00000  Uiso   1.00
C119   C     0.45734   0.52176   0.22061   0.00000  Uiso   1.00
C120   C     0.25272   0.59977   0.18132   0.00000  Uiso   1.00
C121   C     0.04266   0.47809   0.11274   0.00000  Uiso   1.00
C122   C     0.46925   0.45713   0.05691   0.00000  Uiso   1.00
C123   C     0.03075   0.54270   0.27644   0.00000  Uiso   1.00
C124   C     0.01565   0.45697   0.05827   0.00000  Uiso   1.00
C125   C     0.48435   0.54286   0.27509   0.00000  Uiso   1.00
C126   C     0.23821   0.34560   0.14726   0.00000  Uiso   1.00
C127   C     0.26190   0.65441   0.18600   0.00000  Uiso   1.00
C128   C     0.16436   0.49953   0.16716   0.00000  Uiso   1.00
C129   C     0.33564   0.50045   0.16617   0.00000  Uiso   1.00
C130   C     0.41111   0.52184   0.21992   0.00000  Uiso   1.00
Cl131  Cl    0.43757   0.42892   0.32005   0.00000  Uiso   1.00
Cl132  Cl    0.06242   0.57091   0.01331   0.00000  Uiso   1.00
Cu133  Cu    0.25500   0.50579   0.22813   0.00000  Uiso   1.00
Cu134  Cu    0.24499   0.49421   0.10521   0.00000  Uiso   1.00
H135   H     0.39625   0.53838   0.26184   0.00000  Uiso   1.00
H136   H     0.27735   0.36224   0.31803   0.00000  Uiso   1.00
H137   H     0.10375   0.46156   0.07149   0.00000  Uiso   1.00
H138   H     0.38124   0.46388   0.06979   0.00000  Uiso   1.00
H139   H     0.11876   0.53602   0.26355   0.00000  Uiso   1.00
H140   H     0.03065   0.44033   0.01652   0.00000  Uiso   1.00
H141   H     0.46935   0.55949   0.31684   0.00000  Uiso   1.00
H142   H     0.21531   0.45921   0.31612   0.00000  Uiso   1.00
H143   H     0.28469   0.54079   0.01721   0.00000  Uiso   1.00
H144   H     0.13192   0.34697   0.05440   0.00000  Uiso   1.00
N145   N     0.23744   0.48547   0.01284   0.00000  Uiso   1.00
N146   N     0.26255   0.51453   0.32049   0.00000  Uiso   1.00
O147   O     0.25325   0.42871   0.20659   0.00000  Uiso   1.00
O148   O     0.16187   0.61668   0.13021   0.00000  Uiso   1.00
O149   O     0.15782   0.36543   0.08190   0.00000  Uiso   1.00
O150   O     0.33926   0.64035   0.25034   0.00000  Uiso   1.00
O151   O     0.33831   0.38305   0.20242   0.00000  Uiso   1.00
O152   O     0.29622   0.38627   0.30024   0.00000  Uiso   1.00
O153   O     0.24674   0.57129   0.12674   0.00000  Uiso   1.00
O154   O     0.24480   0.41892   0.10279   0.00000  Uiso   1.00
O155   O     0.25520   0.58108   0.23055   0.00000  Uiso   1.00
O156   O     0.18935   0.50488   0.21857   0.00000  Uiso   1.00
O157   O     0.31064   0.49512   0.11476   0.00000  Uiso   1.00
O158   O     0.18090   0.49510   0.11477   0.00000  Uiso   1.00
O159   O     0.31910   0.50490   0.21857   0.00000  Uiso   1.00
O160   O     0.20274   0.61870   0.03958   0.00000  Uiso   1.00
S161   S     0.18923   0.65087   0.09859   0.00000  Uiso   1.00
S162   S     0.31095   0.34931   0.23457   0.00000  Uiso   1.00
C163   C     0.74729   0.40023   0.15200   0.00000  Uiso   1.00
C164   C     0.58889   0.47806   0.11342   0.00000  Uiso   1.00
C165   C     0.88397   0.50098   0.16553   0.00000  Uiso   1.00
C166   C     0.61603   0.49895   0.16780   0.00000  Uiso   1.00
C167   C     0.90295   0.48002   0.11120   0.00000  Uiso   1.00
C168   C     0.59705   0.51987   0.22214   0.00000  Uiso   1.00
C169   C     0.94938   0.47899   0.11083   0.00000  Uiso   1.00
C170   C     0.55062   0.52086   0.22251   0.00000  Uiso   1.00
C171   C     0.97668   0.50016   0.16616   0.00000  Uiso   1.00
C172   C     0.52332   0.49967   0.16719   0.00000  Uiso   1.00
C173   C     0.95734   0.52176   0.22061   0.00000  Uiso   1.00
C174   C     0.75272   0.59977   0.18132   0.00000  Uiso   1.00
C175   C     0.54266   0.47809   0.11274   0.00000  Uiso   1.00
C176   C     0.96925   0.45713   0.05691   0.00000  Uiso   1.00
C177   C     0.53075   0.54270   0.27644   0.00000  Uiso   1.00
C178   C     0.51565   0.45697   0.05827   0.00000  Uiso   1.00
C179   C     0.98435   0.54286   0.27509   0.00000  Uiso   1.00
C180   C     0.73821   0.34560   0.14726   0.00000  Uiso   1.00
C181   C     0.76190   0.65441   0.18600   0.00000  Uiso   1.00
C182   C     0.66436   0.49953   0.16716   0.00000  Uiso   1.00
C183   C     0.83564   0.50045   0.16617   0.00000  Uiso   1.00
C184   C     0.91111   0.52184   0.21992   0.00000  Uiso   1.00
Cl185  Cl    0.93757   0.42892   0.32005   0.00000  Uiso   1.00
Cl186  Cl    0.56242   0.57091   0.01331   0.00000  Uiso   1.00
Cu187  Cu    0.75500   0.50579   0.22813   0.00000  Uiso   1.00
Cu188  Cu    0.74499   0.49421   0.10521   0.00000  Uiso   1.00
H189   H     0.89625   0.53838   0.26184   0.00000  Uiso   1.00
H190   H     0.77735   0.36224   0.31803   0.00000  Uiso   1.00
H191   H     0.60375   0.46156   0.07149   0.00000  Uiso   1.00
H192   H     0.88124   0.46388   0.06979   0.00000  Uiso   1.00
H193   H     0.61876   0.53602   0.26355   0.00000  Uiso   1.00
H194   H     0.53065   0.44033   0.01652   0.00000  Uiso   1.00
H195   H     0.96935   0.55949   0.31684   0.00000  Uiso   1.00
H196   H     0.71531   0.45921   0.31612   0.00000  Uiso   1.00
H197   H     0.78469   0.54079   0.01721   0.00000  Uiso   1.00
H198   H     0.63192   0.34697   0.05440   0.00000  Uiso   1.00
N199   N     0.73744   0.48547   0.01284   0.00000  Uiso   1.00
N200   N     0.76255   0.51453   0.32049   0.00000  Uiso   1.00
O201   O     0.75325   0.42871   0.20659   0.00000  Uiso   1.00
O202   O     0.66187   0.61668   0.13021   0.00000  Uiso   1.00
O203   O     0.65782   0.36543   0.08190   0.00000  Uiso   1.00
O204   O     0.83926   0.64035   0.25034   0.00000  Uiso   1.00
O205   O     0.83831   0.38305   0.20242   0.00000  Uiso   1.00
O206   O     0.79622   0.38627   0.30024   0.00000  Uiso   1.00
O207   O     0.74674   0.57129   0.12674   0.00000  Uiso   1.00
O208   O     0.74480   0.41892   0.10279   0.00000  Uiso   1.00
O209   O     0.75520   0.58108   0.23055   0.00000  Uiso   1.00
O210   O     0.68935   0.50488   0.21857   0.00000  Uiso   1.00
O211   O     0.81064   0.49512   0.11476   0.00000  Uiso   1.00
O212   O     0.68090   0.49510   0.11477   0.00000  Uiso   1.00
O213   O     0.81910   0.50490   0.21857   0.00000  Uiso   1.00
O214   O     0.70274   0.61870   0.03958   0.00000  Uiso   1.00
S215   S     0.68923   0.65087   0.09859   0.00000  Uiso   1.00
S216   S     0.81095   0.34931   0.23457   0.00000  Uiso   1.00
C217   C     0.24729   0.73356   0.15200   0.00000  Uiso   1.00
C218   C     0.08889   0.81139   0.11342   0.00000  Uiso   1.00
C219   C     0.38397   0.83431   0.16553   0.00000  Uiso   1.00
C220   C     0.11603   0.83228   0.16780   0.00000  Uiso   1.00
C221   C     0.40295   0.81335   0.11120   0.00000  Uiso   1.00
C222   C     0.09705   0.85320   0.22214   0.00000  Uiso   1.00
C223   C     0.44938   0.81232   0.11083   0.00000  Uiso   1.00
C224   C     0.05062   0.85419   0.22251   0.00000  Uiso   1.00
C225   C     0.47668   0.83350   0.16616   0.00000  Uiso   1.00
C226   C     0.02332   0.83301   0.16719   0.00000  Uiso   1.00
C227   C     0.45734   0.85510   0.22061   0.00000  Uiso   1.00
C228   C     0.25272   0.93311   0.18132   0.00000  Uiso   1.00
C229   C     0.04266   0.81142   0.11274   0.00000  Uiso   1.00
C230   C     0.46925   0.79046   0.05691   0.00000  Uiso   1.00
C231   C     0.03075   0.87604   0.27644   0.00000  Uiso   1.00
C232   C     0.01565   0.79030   0.05827   0.00000  Uiso   1.00
C233   C     0.48435   0.87619   0.27509   0.00000  Uiso   1.00
C234   C     0.23821   0.67893   0.14726   0.00000  Uiso   1.00
C235   C     0.26190   0.98774   0.18600   0.00000  Uiso   1.00
C236   C     0.16436   0.83287   0.16716   0.00000  Uiso   1.00
C237   C     0.33564   0.83378   0.16617   0.00000  Uiso   1.00
C238   C     0.41111   0.85517   0.21992   0.00000  Uiso   1.00
Cl239  Cl    0.43757   0.76226   0.32005   0.00000  Uiso   1.00
Cl240  Cl    0.06242   0.90424   0.01331   0.00000  Uiso   1.00
Cu241  Cu    0.25500   0.83913   0.22813   0.00000  Uiso   1.00
Cu242  Cu    0.24499   0.82754   0.10521   0.00000  Uiso   1.00
H243   H     0.39625   0.87171   0.26184   0.00000  Uiso   1.00
H244   H     0.27735   0.69557   0.31803   0.00000  Uiso   1.00
H245   H     0.10375   0.79489   0.07149   0.00000  Uiso   1.00
H246   H     0.38124   0.79721   0.06979   0.00000  Uiso   1.00
H247   H     0.11876   0.86936   0.26355   0.00000  Uiso   1.00
H248   H     0.03065   0.77367   0.01652   0.00000  Uiso   1.00
H249   H     0.46935   0.89283   0.31684   0.00000  Uiso   1.00
H250   H     0.21531   0.79254   0.31612   0.00000  Uiso   1.00
H251   H     0.28469   0.87412   0.01721   0.00000  Uiso   1.00
H252   H     0.13192   0.68031   0.05440   0.00000  Uiso   1.00
N253   N     0.23744   0.81881   0.01284   0.00000  Uiso   1.00
N254   N     0.26255   0.84786   0.32049   0.00000  Uiso   1.00
O255   O     0.25325   0.76204   0.20659   0.00000  Uiso   1.00
O256   O     0.16187   0.95001   0.13021   0.00000  Uiso   1.00
O257   O     0.15782   0.69876   0.08190   0.00000  Uiso   1.00
O258   O     0.33926   0.97368   0.25034   0.00000  Uiso   1.00
O259   O     0.33831   0.71638   0.20242   0.00000  Uiso   1.00
O260   O     0.29622   0.71960   0.30024   0.00000  Uiso   1.00
O261   O     0.24674   0.90462   0.12674   0.00000  Uiso   1.00
O262   O     0.24480   0.75226   0.10279   0.00000  Uiso   1.00
O263   O     0.25520   0.91441   0.23055   0.00000  Uiso   1.00
O264   O     0.18935   0.83821   0.21857   0.00000  Uiso   1.00
O265   O     0.31064   0.82845   0.11476   0.00000  Uiso   1.00
O266   O     0.18090   0.82843   0.11477   0.00000  Uiso   1.00
O267   O     0.31910   0.83824   0.21857   0.00000  Uiso   1.00
O268   O     0.20274   0.95204   0.03958   0.00000  Uiso   1.00
S269   S     0.18923   0.98421   0.09859   0.00000  Uiso   1.00
S270   S     0.31095   0.68264   0.23457   0.00000  Uiso   1.00
C271   C     0.74729   0.73356   0.15200   0.00000  Uiso   1.00
C272   C     0.58889   0.81139   0.11342   0.00000  Uiso   1.00
C273   C     0.88397   0.83431   0.16553   0.00000  Uiso   1.00
C274   C     0.61603   0.83228   0.16780   0.00000  Uiso   1.00
C275   C     0.90295   0.81335   0.11120   0.00000  Uiso   1.00
C276   C     0.59705   0.85320   0.22214   0.00000  Uiso   1.00
C277   C     0.94938   0.81232   0.11083   0.00000  Uiso   1.00
C278   C     0.55062   0.85419   0.22251   0.00000  Uiso   1.00
C279   C     0.97668   0.83350   0.16616   0.00000  Uiso   1.00
C280   C     0.52332   0.83301   0.16719   0.00000  Uiso   1.00
C281   C     0.95734   0.85510   0.22061   0.00000  Uiso   1.00
C282   C     0.75272   0.93311   0.18132   0.00000  Uiso   1.00
C283   C     0.54266   0.81142   0.11274   0.00000  Uiso   1.00
C284   C     0.96925   0.79046   0.05691   0.00000  Uiso   1.00
C285   C     0.53075   0.87604   0.27644   0.00000  Uiso   1.00
C286   C     0.51565   0.79030   0.05827   0.00000  Uiso   1.00
C287   C     0.98435   0.87619   0.27509   0.00000  Uiso   1.00
C288   C     0.73821   0.67893   0.14726   0.00000  Uiso   1.00
C289   C     0.76190   0.98774   0.18600   0.00000  Uiso   1.00
C290   C     0.66436   0.83287   0.16716   0.00000  Uiso   1.00
C291   C     0.83564   0.83378   0.16617   0.00000  Uiso   1.00
C292   C     0.91111   0.85517   0.21992   0.00000  Uiso   1.00
Cl293  Cl    0.93757   0.76226   0.32005   0.00000  Uiso   1.00
Cl294  Cl    0.56242   0.90424   0.01331   0.00000  Uiso   1.00
Cu295  Cu    0.75500   0.83913   0.22813   0.00000  Uiso   1.00
Cu296  Cu    0.74499   0.82754   0.10521   0.00000  Uiso   1.00
H297   H     0.89625   0.87171   0.26184   0.00000  Uiso   1.00
H298   H     0.77735   0.69557   0.31803   0.00000  Uiso   1.00
H299   H     0.60375   0.79489   0.07149   0.00000  Uiso   1.00
H300   H     0.88124   0.79721   0.06979   0.00000  Uiso   1.00
H301   H     0.61876   0.86936   0.26355   0.00000  Uiso   1.00
H302   H     0.53065   0.77367   0.01652   0.00000  Uiso   1.00
H303   H     0.96935   0.89283   0.31684   0.00000  Uiso   1.00
H304   H     0.71531   0.79254   0.31612   0.00000  Uiso   1.00
H305   H     0.78469   0.87412   0.01721   0.00000  Uiso   1.00
H306   H     0.63192   0.68031   0.05440   0.00000  Uiso   1.00
N307   N     0.73744   0.81881   0.01284   0.00000  Uiso   1.00
N308   N     0.76255   0.84786   0.32049   0.00000  Uiso   1.00
O309   O     0.75325   0.76204   0.20659   0.00000  Uiso   1.00
O310   O     0.66187   0.95001   0.13021   0.00000  Uiso   1.00
O311   O     0.65782   0.69876   0.08190   0.00000  Uiso   1.00
O312   O     0.83926   0.97368   0.25034   0.00000  Uiso   1.00
O313   O     0.83831   0.71638   0.20242   0.00000  Uiso   1.00
O314   O     0.79622   0.71960   0.30024   0.00000  Uiso   1.00
O315   O     0.74674   0.90462   0.12674   0.00000  Uiso   1.00
O316   O     0.74480   0.75226   0.10279   0.00000  Uiso   1.00
O317   O     0.75520   0.91441   0.23055   0.00000  Uiso   1.00
O318   O     0.68935   0.83821   0.21857   0.00000  Uiso   1.00
O319   O     0.81064   0.82845   0.11476   0.00000  Uiso   1.00
O320   O     0.68090   0.82843   0.11477   0.00000  Uiso   1.00
O321   O     0.81910   0.83824   0.21857   0.00000  Uiso   1.00
O322   O     0.70274   0.95204   0.03958   0.00000  Uiso   1.00
S323   S     0.68923   0.98421   0.09859   0.00000  Uiso   1.00
S324   S     0.81095   0.68264   0.23457   0.00000  Uiso   1.00
C325   C     0.24729   0.06690   0.48533   0.00000  Uiso   1.00
C326   C     0.08889   0.14472   0.44675   0.00000  Uiso   1.00
C327   C     0.38397   0.16765   0.49886   0.00000  Uiso   1.00
C328   C     0.11603   0.16561   0.50114   0.00000  Uiso   1.00
C329   C     0.40295   0.14669   0.44454   0.00000  Uiso   1.00
C330   C     0.09705   0.18653   0.55547   0.00000  Uiso   1.00
C331   C     0.44938   0.14566   0.44417   0.00000  Uiso   1.00
C332   C     0.05062   0.18752   0.55585   0.00000  Uiso   1.00
C333   C     0.47668   0.16683   0.49949   0.00000  Uiso   1.00
C334   C     0.02332   0.16634   0.50052   0.00000  Uiso   1.00
C335   C     0.45734   0.18843   0.55394   0.00000  Uiso   1.00
C336   C     0.25272   0.26644   0.51466   0.00000  Uiso   1.00
C337   C     0.04266   0.14475   0.44608   0.00000  Uiso   1.00
C338   C     0.46925   0.12380   0.39024   0.00000  Uiso   1.00
C339   C     0.03075   0.20937   0.60978   0.00000  Uiso   1.00
C340   C     0.01565   0.12364   0.39160   0.00000  Uiso   1.00
C341   C     0.48435   0.20953   0.60842   0.00000  Uiso   1.00
C342   C     0.23821   0.01226   0.48059   0.00000  Uiso   1.00
C343   C     0.26190   0.32108   0.51933   0.00000  Uiso   1.00
C344   C     0.16436   0.16620   0.50049   0.00000  Uiso   1.00
C345   C     0.33564   0.16711   0.49951   0.00000  Uiso   1.00
C346   C     0.41111   0.18851   0.55325   0.00000  Uiso   1.00
Cl347  Cl    0.43757   0.09559   0.65338   0.00000  Uiso   1.00
Cl348  Cl    0.06242   0.23757   0.34664   0.00000  Uiso   1.00
Cu349  Cu    0.25500   0.17246   0.56146   0.00000  Uiso   1.00
Cu350  Cu    0.24499   0.16087   0.43854   0.00000  Uiso   1.00
H351   H     0.39625   0.20504   0.59517   0.00000  Uiso   1.00
H352   H     0.27735   0.02891   0.65137   0.00000  Uiso   1.00
H353   H     0.10375   0.12822   0.40482   0.00000  Uiso   1.00
H354   H     0.38124   0.13054   0.40312   0.00000  Uiso   1.00
H355   H     0.11876   0.20269   0.59688   0.00000  Uiso   1.00
H356   H     0.03065   0.10700   0.34985   0.00000  Uiso   1.00
H357   H     0.46935   0.22616   0.65017   0.00000  Uiso   1.00
H358   H     0.21531   0.12588   0.64946   0.00000  Uiso   1.00
H359   H     0.28469   0.20745   0.35055   0.00000  Uiso   1.00
H360   H     0.13192   0.01364   0.38773   0.00000  Uiso   1.00
N361   N     0.23744   0.15214   0.34617   0.00000  Uiso   1.00
N362   N     0.26255   0.18119   0.65383   0.00000  Uiso   1.00
O363   O     0.25325   0.09538   0.53992   0.00000  Uiso   1.00
O364   O     0.16187   0.28334   0.46354   0.00000  Uiso   1.00
O365   O     0.15782   0.03209   0.41524   0.00000  Uiso   1.00
O366   O     0.33926   0.30701   0.58367   0.00000  Uiso   1.00
O367   O     0.33831   0.04971   0.53575   0.00000  Uiso   1.00
O368   O     0.29622   0.05293   0.63358   0.00000  Uiso   1.00
O369   O     0.24674   0.23796   0.46008   0.00000  Uiso   1.00
O370   O     0.24480   0.08559   0.43612   0.00000  Uiso   1.00
O371   O     0.25520   0.24774   0.56388   0.00000  Uiso   1.00
O372   O     0.18935   0.17155   0.55191   0.00000  Uiso   1.00
O373   O     0.31064   0.16179   0.44809   0.00000  Uiso   1.00
O374   O     0.18090   0.16176   0.44810   0.00000  Uiso   1.00
O375   O     0.31910   0.17157   0.55190   0.00000  Uiso   1.00
O376   O     0.20274   0.28537   0.37291   0.00000  Uiso   1.00
S377   S     0.18923   0.31754   0.43192   0.00000  Uiso   1.00
S378   S     0.31095   0.01598   0.56790   0.00000  Uiso   1.00
C379   C     0.74729   0.06690   0.48533   0.00000  Uiso   1.00
C380   C     0.58889   0.14472   0.44675   0.00000  Uiso   1.00
C381   C     0.88397   0.16765   0.49886   0.00000  Uiso   1.00
C382   C     0.61603   0.16561   0.50114   0.00000  Uiso   1.00
C383   C     0.90295   0.14669   0.44454   0.00000  Uiso   1.00
C384   C     0.59705   0.18653   0.55547   0.00000  Uiso   1.00
C385   C     0.94938   0.14566   0.44417   0.00000  Uiso   1.00
C386   C     0.55062   0.18752   0.55585   0.00000  Uiso   1.00
C387   C     0.97668   0.16683   0.49949   0.00000  Uiso   1.00
C388   C     0.52332   0.16634   0.50052   0.00000  Uiso   1.00
C389   C     0.95734   0.18843   0.55394   0.00000  Uiso   1.00
C390   C     0.75272   0.26644   0.51466   0.00000  Uiso   1.00
C391   C     0.54266   0.14475   0.44608   0.00000  Uiso   1.00
C392   C     0.96925   0.12380   0.39024   0.00000  Uiso   1.00
C393   C     0.53075   0.20937   0.60978   0.00000  Uiso   1.00
C394   C     0.51565   0.12364   0.39160   0.00000  Uiso   1.00
C395   C     0.98435   0.20953   0.60842   0.00000  Uiso   1.00
C396   C     0.73821   0.01226   0.48059   0.00000  Uiso   1.00
C397   C     0.76190   0.32108   0.51933   0.00000  Uiso   1.00
C398   C     0.66436   0.16620   0.50049   0.00000  Uiso   1.00
C399   C     0.83564   0.16711   0.49951   0.00000  Uiso   1.00
C400   C     0.91111   0.18851   0.55325   0.00000  Uiso   1.00
Cl401  Cl    0.93757   0.09559   0.65338   0.00000  Uiso   1.00
Cl402  Cl    0.56242   0.23757   0.34664   0.00000  Uiso   1.00
Cu403  Cu    0.75500   0.17246   0.56146   0.00000  Uiso   1.00
Cu404  Cu    0.74499   0.16087   0.43854   0.00000  Uiso   1.00
H405   H     0.89625   0.20504   0.59517   0.00000  Uiso   1.00
H406   H     0.77735   0.02891   0.65137   0.00000  Uiso   1.00
H407   H     0.60375   0.12822   0.40482   0.00000  Uiso   1.00
H408   H     0.88124   0.13054   0.40312   0.00000  Uiso   1.00
H409   H     0.61876   0.20269   0.59688   0.00000  Uiso   1.00
H410   H     0.53065   0.10700   0.34985   0.00000  Uiso   1.00
H411   H     0.96935   0.22616   0.65017   0.00000  Uiso   1.00
H412   H     0.71531   0.12588   0.64946   0.00000  Uiso   1.00
H413   H     0.78469   0.20745   0.35055   0.00000  Uiso   1.00
H414   H     0.63192   0.01364   0.38773   0.00000  Uiso   1.00
N415   N     0.73744   0.15214   0.34617   0.00000  Uiso   1.00
N416   N     0.76255   0.18119   0.65383   0.00000  Uiso   1.00
O417   O     0.75325   0.09538   0.53992   0.00000  Uiso   1.00
O418   O     0.66187   0.28334   0.46354   0.00000  Uiso   1.00
O419   O     0.65782   0.03209   0.41524   0.00000  Uiso   1.00
O420   O     0.83926   0.30701   0.58367   0.00000  Uiso   1.00
O421   O     0.83831   0.04971   0.53575   0.00000  Uiso   1.00
O422   O     0.79622   0.05293   0.63358   0.00000  Uiso   1.00
O423   O     0.74674   0.23796   0.46008   0.00000  Uiso   1.00
O424   O     0.74480   0.08559   0.43612   0.00000  Uiso   1.00
O425   O     0.75520   0.24774   0.56388   0.00000  Uiso   1.00
O426   O     0.68935   0.17155   0.55191   0.00000  Uiso   1.00
O427   O     0.81064   0.16179   0.44809   0.00000  Uiso   1.00
O428   O     0.68090   0.16176   0.44810   0.00000  Uiso   1.00
O429   O     0.81910   0.17157   0.55190   0.00000  Uiso   1.00
O430   O     0.70274   0.28537   0.37291   0.00000  Uiso   1.00
S431   S     0.68923   0.31754   0.43192   0.00000  Uiso   1.00
S432   S     0.81095   0.01598   0.56790   0.00000  Uiso   1.00
C433   C     0.24729   0.40023   0.48533   0.00000  Uiso   1.00
C434   C     0.08889   0.47806   0.44675   0.00000  Uiso   1.00
C435   C     0.38397   0.50098   0.49886   0.00000  Uiso   1.00
C436   C     0.11603   0.49895   0.50114   0.00000  Uiso   1.00
C437   C     0.40295   0.48002   0.44454   0.00000  Uiso   1.00
C438   C     0.09705   0.51987   0.55547   0.00000  Uiso   1.00
C439   C     0.44938   0.47899   0.44417   0.00000  Uiso   1.00
C440   C     0.05062   0.52086   0.55585   0.00000  Uiso   1.00
C441   C     0.47668   0.50016   0.49949   0.00000  Uiso   1.00
C442   C     0.02332   0.49967   0.50052   0.00000  Uiso   1.00
C443   C     0.45734   0.52176   0.55394   0.00000  Uiso   1.00
C444   C     0.25272   0.59977   0.51466   0.00000  Uiso   1.00
C445   C     0.04266   0.47809   0.44608   0.00000  Uiso   1.00
C446   C     0.46925   0.45713   0.39024   0.00000  Uiso   1.00
C447   C     0.03075   0.54270   0.60978   0.00000  Uiso   1.00
C448   C     0.01565   0.45697   0.39160   0.00000  Uiso   1.00
C449   C     0.48435   0.54286   0.60842   0.00000  Uiso   1.00
C450   C     0.23821   0.34560   0.48059   0.00000  Uiso   1.00
C451   C     0.26190   0.65441   0.51933   0.00000  Uiso   1.00
C452   C     0.16436   0.49953   0.50049   0.00000  Uiso   1.00
C453   C     0.33564   0.50045   0.49951   0.00000  Uiso   1.00
C454   C     0.41111   0.52184   0.55325   0.00000  Uiso   1.00
Cl455  Cl    0.43757   0.42892   0.65338   0.00000  Uiso   1.00
Cl456  Cl    0.06242   0.57091   0.34664   0.00000  Uiso   1.00
Cu457  Cu    0.25500   0.50579   0.56146   0.00000  Uiso   1.00
Cu458  Cu    0.24499   0.49421   0.43854   0.00000  Uiso   1.00
H459   H     0.39625   0.53838   0.59517   0.00000  Uiso   1.00
H460   H     0.27735   0.36224   0.65137   0.00000  Uiso   1.00
H461   H     0.10375   0.46156   0.40482   0.00000  Uiso   1.00
H462   H     0.38124   0.46388   0.40312   0.00000  Uiso   1.00
H463   H     0.11876   0.53602   0.59688   0.00000  Uiso   1.00
H464   H     0.03065   0.44033   0.34985   0.00000  Uiso   1.00
H465   H     0.46935   0.55949   0.65017   0.00000  Uiso   1.00
H466   H     0.21531   0.45921   0.64946   0.00000  Uiso   1.00
H467   H     0.28469   0.54079   0.35055   0.00000  Uiso   1.00
H468   H     0.13192   0.34697   0.38773   0.00000  Uiso   1.00
N469   N     0.23744   0.48547   0.34617   0.00000  Uiso   1.00
N470   N     0.26255   0.51453   0.65383   0.00000  Uiso   1.00
O471   O     0.25325   0.42871   0.53992   0.00000  Uiso   1.00
O472   O     0.16187   0.61668   0.46354   0.00000  Uiso   1.00
O473   O     0.15782   0.36543   0.41524   0.00000  Uiso   1.00
O474   O     0.33926   0.64035   0.58367   0.00000  Uiso   1.00
O475   O     0.33831   0.38305   0.53575   0.00000  Uiso   1.00
O476   O     0.29622   0.38627   0.63358   0.00000  Uiso   1.00
O477   O     0.24674   0.57129   0.46008   0.00000  Uiso   1.00
O478   O     0.24480   0.41892   0.43612   0.00000  Uiso   1.00
O479   O     0.25520   0.58108   0.56388   0.00000  Uiso   1.00
O480   O     0.18935   0.50488   0.55191   0.00000  Uiso   1.00
O481   O     0.31064   0.49512   0.44809   0.00000  Uiso   1.00
O482   O     0.18090   0.49510   0.44810   0.00000  Uiso   1.00
O483   O     0.31910   0.50490   0.55190   0.00000  Uiso   1.00
O484   O     0.20274   0.61870   0.37291   0.00000  Uiso   1.00
S485   S     0.18923   0.65087   0.43192   0.00000  Uiso   1.00
S486   S     0.31095   0.34931   0.56790   0.00000  Uiso   1.00
C487   C     0.74729   0.40023   0.48533   0.00000  Uiso   1.00
C488   C     0.58889   0.47806   0.44675   0.00000  Uiso   1.00
C489   C     0.88397   0.50098   0.49886   0.00000  Uiso   1.00
C490   C     0.61603   0.49895   0.50114   0.00000  Uiso   1.00
C491   C     0.90295   0.48002   0.44454   0.00000  Uiso   1.00
C492   C     0.59705   0.51987   0.55547   0.00000  Uiso   1.00
C493   C     0.94938   0.47899   0.44417   0.00000  Uiso   1.00
C494   C     0.55062   0.52086   0.55585   0.00000  Uiso   1.00
C495   C     0.97668   0.50016   0.49949   0.00000  Uiso   1.00
C496   C     0.52332   0.49967   0.50052   0.00000  Uiso   1.00
C497   C     0.95734   0.52176   0.55394   0.00000  Uiso   1.00
C498   C     0.75272   0.59977   0.51466   0.00000  Uiso   1.00
C499   C     0.54266   0.47809   0.44608   0.00000  Uiso   1.00
C500   C     0.96925   0.45713   0.39024   0.00000  Uiso   1.00
C501   C     0.53075   0.54270   0.60978   0.00000  Uiso   1.00
C502   C     0.51565   0.45697   0.39160   0.00000  Uiso   1.00
C503   C     0.98435   0.54286   0.60842   0.00000  Uiso   1.00
C504   C     0.73821   0.34560   0.48059   0.00000  Uiso   1.00
C505   C     0.76190   0.65441   0.51933   0.00000  Uiso   1.00
C506   C     0.66436   0.49953   0.50049   0.00000  Uiso   1.00
C507   C     0.83564   0.50045   0.49951   0.00000  Uiso   1.00
C508   C     0.91111   0.52184   0.55325   0.00000  Uiso   1.00
Cl509  Cl    0.93757   0.42892   0.65338   0.00000  Uiso   1.00
Cl510  Cl    0.56242   0.57091   0.34664   0.00000  Uiso   1.00
Cu511  Cu    0.75500   0.50579   0.56146   0.00000  Uiso   1.00
Cu512  Cu    0.74499   0.49421   0.43854   0.00000  Uiso   1.00
H513   H     0.89625   0.53838   0.59517   0.00000  Uiso   1.00
H514   H     0.77735   0.36224   0.65137   0.00000  Uiso   1.00
H515   H     0.60375   0.46156   0.40482   0.00000  Uiso   1.00
H516   H     0.88124   0.46388   0.40312   0.00000  Uiso   1.00
H517   H     0.61876   0.53602   0.59688   0.00000  Uiso   1.00
H518   H     0.53065   0.44033   0.34985   0.00000  Uiso   1.00
H519   H     0.96935   0.55949   0.65017   0.00000  Uiso   1.00
H520   H     0.71531   0.45921   0.64946   0.00000  Uiso   1.00
H521   H     0.78469   0.54079   0.35055   0.00000  Uiso   1.00
H522   H     0.63192   0.34697   0.38773   0.00000  Uiso   1.00
N523   N     0.73744   0.48547   0.34617   0.00000  Uiso   1.00
N524   N     0.76255   0.51453   0.65383   0.00000  Uiso   1.00
O525   O     0.75325   0.42871   0.53992   0.00000  Uiso   1.00
O526   O     0.66187   0.61668   0.46354   0.00000  Uiso   1.00
O527   O     0.65782   0.36543   0.41524   0.00000  Uiso   1.00
O528   O     0.83926   0.64035   0.58367   0.00000  Uiso   1.00
O529   O     0.83831   0.38305   0.53575   0.00000  Uiso   1.00
O530   O     0.79622   0.38627   0.63358   0.00000  Uiso   1.00
O531   O     0.74674   0.57129   0.46008   0.00000  Uiso   1.00
O532   O     0.74480   0.41892   0.43612   0.00000  Uiso   1.00
O533   O     0.75520   0.58108   0.56388   0.00000  Uiso   1.00
O534   O     0.68935   0.50488   0.55191   0.00000  Uiso   1.00
O535   O     0.81064   0.49512   0.44809   0.00000  Uiso   1.00
O536   O     0.68090   0.49510   0.44810   0.00000  Uiso   1.00
O537   O     0.81910   0.50490   0.55190   0.00000  Uiso   1.00
O538   O     0.70274   0.61870   0.37291   0.00000  Uiso   1.00
S539   S     0.68923   0.65087   0.43192   0.00000  Uiso   1.00
S540   S     0.81095   0.34931   0.56790   0.00000  Uiso   1.00
C541   C     0.24729   0.73356   0.48533   0.00000  Uiso   1.00
C542   C     0.08889   0.81139   0.44675   0.00000  Uiso   1.00
C543   C     0.38397   0.83431   0.49886   0.00000  Uiso   1.00
C544   C     0.11603   0.83228   0.50114   0.00000  Uiso   1.00
C545   C     0.40295   0.81335   0.44454   0.00000  Uiso   1.00
C546   C     0.09705   0.85320   0.55547   0.00000  Uiso   1.00
C547   C     0.44938   0.81232   0.44417   0.00000  Uiso   1.00
C548   C     0.05062   0.85419   0.55585   0.00000  Uiso   1.00
C549   C     0.47668   0.83350   0.49949   0.00000  Uiso   1.00
C550   C     0.02332   0.83301   0.50052   0.00000  Uiso   1.00
C551   C     0.45734   0.85510   0.55394   0.00000  Uiso   1.00
C552   C     0.25272   0.93311   0.51466   0.00000  Uiso   1.00
C553   C     0.04266   0.81142   0.44608   0.00000  Uiso   1.00
C554   C     0.46925   0.79046   0.39024   0.00000  Uiso   1.00
C555   C     0.03075   0.87604   0.60978   0.00000  Uiso   1.00
C556   C     0.01565   0.79030   0.39160   0.00000  Uiso   1.00
C557   C     0.48435   0.87619   0.60842   0.00000  Uiso   1.00
C558   C     0.23821   0.67893   0.48059   0.00000  Uiso   1.00
C559   C     0.26190   0.98774   0.51933   0.00000  Uiso   1.00
C560   C     0.16436   0.83287   0.50049   0.00000  Uiso   1.00
C561   C     0.33564   0.83378   0.49951   0.00000  Uiso   1.00
C562   C     0.41111   0.85517   0.55325   0.00000  Uiso   1.00
Cl563  Cl    0.43757   0.76226   0.65338   0.00000  Uiso   1.00
Cl564  Cl    0.06242   0.90424   0.34664   0.00000  Uiso   1.00
Cu565  Cu    0.25500   0.83913   0.56146   0.00000  Uiso   1.00
Cu566  Cu    0.24499   0.82754   0.43854   0.00000  Uiso   1.00
H567   H     0.39625   0.87171   0.59517   0.00000  Uiso   1.00
H568   H     0.27735   0.69557   0.65137   0.00000  Uiso   1.00
H569   H     0.10375   0.79489   0.40482   0.00000  Uiso   1.00
H570   H     0.38124   0.79721   0.40312   0.00000  Uiso   1.00
H571   H     0.11876   0.86936   0.59688   0.00000  Uiso   1.00
H572   H     0.03065   0.77367   0.34985   0.00000  Uiso   1.00
H573   H     0.46935   0.89283   0.65017   0.00000  Uiso   1.00
H574   H     0.21531   0.79254   0.64946   0.00000  Uiso   1.00
H575   H     0.28469   0.87412   0.35055   0.00000  Uiso   1.00
H576   H     0.13192   0.68031   0.38773   0.00000  Uiso   1.00
N577   N     0.23744   0.81881   0.34617   0.00000  Uiso   1.00
N578   N     0.26255   0.84786   0.65383   0.00000  Uiso   1.00
O579   O     0.25325   0.76204   0.53992   0.00000  Uiso   1.00
O580   O     0.16187   0.95001   0.46354   0.00000  Uiso   1.00
O581   O     0.15782   0.69876   0.41524   0.00000  Uiso   1.00
O582   O     0.33926   0.97368   0.58367   0.00000  Uiso   1.00
O583   O     0.33831   0.71638   0.53575   0.00000  Uiso   1.00
O584   O     0.29622   0.71960   0.63358   0.00000  Uiso   1.00
O585   O     0.24674   0.90462   0.46008   0.00000  Uiso   1.00
O586   O     0.24480   0.75226   0.43612   0.00000  Uiso   1.00
O587   O     0.25520   0.91441   0.56388   0.00000  Uiso   1.00
O588   O     0.18935   0.83821   0.55191   0.00000  Uiso   1.00
O589   O     0.31064   0.82845   0.44809   0.00000  Uiso   1.00
O590   O     0.18090   0.82843   0.44810   0.00000  Uiso   1.00
O591   O     0.31910   0.83824   0.55190   0.00000  Uiso   1.00
O592   O     0.20274   0.95204   0.37291   0.00000  Uiso   1.00
S593   S     0.18923   0.98421   0.43192   0.00000  Uiso   1.00
S594   S     0.31095   0.68264   0.56790   0.00000  Uiso   1.00
C595   C     0.74729   0.73356   0.48533   0.00000  Uiso   1.00
C596   C     0.58889   0.81139   0.44675   0.00000  Uiso   1.00
C597   C     0.88397   0.83431   0.49886   0.00000  Uiso   1.00
C598   C     0.61603   0.83228   0.50114   0.00000  Uiso   1.00
C599   C     0.90295   0.81335   0.44454   0.00000  Uiso   1.00
C600   C     0.59705   0.85320   0.55547   0.00000  Uiso   1.00
C601   C     0.94938   0.81232   0.44417   0.00000  Uiso   1.00
C602   C     0.55062   0.85419   0.55585   0.00000  Uiso   1.00
C603   C     0.97668   0.83350   0.49949   0.00000  Uiso   1.00
C604   C     0.52332   0.83301   0.50052   0.00000  Uiso   1.00
C605   C     0.95734   0.85510   0.55394   0.00000  Uiso   1.00
C606   C     0.75272   0.93311   0.51466   0.00000  Uiso   1.00
C607   C     0.54266   0.81142   0.44608   0.00000  Uiso   1.00
C608   C     0.96925   0.79046   0.39024   0.00000  Uiso   1.00
C609   C     0.53075   0.87604   0.60978   0.00000  Uiso   1.00
C610   C     0.51565   0.79030   0.39160   0.00000  Uiso   1.00
C611   C     0.98435   0.87619   0.60842   0.00000  Uiso   1.00
C612   C     0.73821   0.67893   0.48059   0.00000  Uiso   1.00
C613   C     0.76190   0.98774   0.51933   0.00000  Uiso   1.00
C614   C     0.66436   0.83287   0.50049   0.00000  Uiso   1.00
C615   C     0.83564   0.83378   0.49951   0.00000  Uiso   1.00
C616   C     0.91111   0.85517   0.55325   0.00000  Uiso   1.00
Cl617  Cl    0.93757   0.76226   0.65338   0.00000  Uiso   1.00
Cl618  Cl    0.56242   0.90424   0.34664   0.00000  Uiso   1.00
Cu619  Cu    0.75500   0.83913   0.56146   0.00000  Uiso   1.00
Cu620  Cu    0.74499   0.82754   0.43854   0.00000  Uiso   1.00
H621   H     0.89625   0.87171   0.59517   0.00000  Uiso   1.00
H622   H     0.77735   0.69557   0.65137   0.00000  Uiso   1.00
H623   H     0.60375   0.79489   0.40482   0.00000  Uiso   1.00
H624   H     0.88124   0.79721   0.40312   0.00000  Uiso   1.00
H625   H     0.61876   0.86936   0.59688   0.00000  Uiso   1.00
H626   H     0.53065   0.77367   0.34985   0.00000  Uiso   1.00
H627   H     0.96935   0.89283   0.65017   0.00000  Uiso   1.00
H628   H     0.71531   0.79254   0.64946   0.00000  Uiso   1.00
H629   H     0.78469   0.87412   0.35055   0.00000  Uiso   1.00
H630   H     0.63192   0.68031   0.38773   0.00000  Uiso   1.00
N631   N     0.73744   0.81881   0.34617   0.00000  Uiso   1.00
N632   N     0.76255   0.84786   0.65383   0.00000  Uiso   1.00
O633   O     0.75325   0.76204   0.53992   0.00000  Uiso   1.00
O634   O     0.66187   0.95001   0.46354   0.00000  Uiso   1.00
O635   O     0.65782   0.69876   0.41524   0.00000  Uiso   1.00
O636   O     0.83926   0.97368   0.58367   0.00000  Uiso   1.00
O637   O     0.83831   0.71638   0.53575   0.00000  Uiso   1.00
O638   O     0.79622   0.71960   0.63358   0.00000  Uiso   1.00
O639   O     0.74674   0.90462   0.46008   0.00000  Uiso   1.00
O640   O     0.74480   0.75226   0.43612   0.00000  Uiso   1.00
O641   O     0.75520   0.91441   0.56388   0.00000  Uiso   1.00
O642   O     0.68935   0.83821   0.55191   0.00000  Uiso   1.00
O643   O     0.81064   0.82845   0.44809   0.00000  Uiso   1.00
O644   O     0.68090   0.82843   0.44810   0.00000  Uiso   1.00
O645   O     0.81910   0.83824   0.55190   0.00000  Uiso   1.00
O646   O     0.70274   0.95204   0.37291   0.00000  Uiso   1.00
S647   S     0.68923   0.98421   0.43192   0.00000  Uiso   1.00
S648   S     0.81095   0.68264   0.56790   0.00000  Uiso   1.00
C649   C     0.24729   0.06690   0.81867   0.00000  Uiso   1.00
C650   C     0.08889   0.14472   0.78008   0.00000  Uiso   1.00
C651   C     0.38397   0.16765   0.83219   0.00000  Uiso   1.00
C652   C     0.11603   0.16561   0.83447   0.00000  Uiso   1.00
C653   C     0.40295   0.14669   0.77787   0.00000  Uiso   1.00
C654   C     0.09705   0.18653   0.88880   0.00000  Uiso   1.00
C655   C     0.44938   0.14566   0.77750   0.00000  Uiso   1.00
C656   C     0.05062   0.18752   0.88918   0.00000  Uiso   1.00
C657   C     0.47668   0.16683   0.83283   0.00000  Uiso   1.00
C658   C     0.02332   0.16634   0.83386   0.00000  Uiso   1.00
C659   C     0.45734   0.18843   0.88727   0.00000  Uiso   1.00
C660   C     0.25272   0.26644   0.84799   0.00000  Uiso   1.00
C661   C     0.04266   0.14475   0.77941   0.00000  Uiso   1.00
C662   C     0.46925   0.12380   0.72358   0.00000  Uiso   1.00
C663   C     0.03075   0.20937   0.94311   0.00000  Uiso   1.00
C664   C     0.01565   0.12364   0.72493   0.00000  Uiso   1.00
C665   C     0.48435   0.20953   0.94175   0.00000  Uiso   1.00
C666   C     0.23821   0.01226   0.81393   0.00000  Uiso   1.00
C667   C     0.26190   0.32108   0.85266   0.00000  Uiso   1.00
C668   C     0.16436   0.16620   0.83382   0.00000  Uiso   1.00
C669   C     0.33564   0.16711   0.83284   0.00000  Uiso   1.00
C670   C     0.41111   0.18851   0.88658   0.00000  Uiso   1.00
Cl671  Cl    0.43757   0.09559   0.98672   0.00000  Uiso   1.00
Cl672  Cl    0.06242   0.23757   0.67997   0.00000  Uiso   1.00
Cu673  Cu    0.25500   0.17246   0.89479   0.00000  Uiso   1.00
Cu674  Cu    0.24499   0.16087   0.77187   0.00000  Uiso   1.00
H675   H     0.39625   0.20504   0.92850   0.00000  Uiso   1.00
H676   H     0.27735   0.02891   0.98470   0.00000  Uiso   1.00
H677   H     0.10375   0.12822   0.73815   0.00000  Uiso   1.00
H678   H     0.38124   0.13054   0.73645   0.00000  Uiso   1.00
H679   H     0.11876   0.20269   0.93022   0.00000  Uiso   1.00
H680   H     0.03065   0.10700   0.68319   0.00000  Uiso   1.00
H681   H     0.46935   0.22616   0.98350   0.00000  Uiso   1.00
H682   H     0.21531   0.12588   0.98279   0.00000  Uiso   1.00
H683   H     0.28469   0.20745   0.68388   0.00000  Uiso   1.00
H684   H     0.13192   0.01364   0.72106   0.00000  Uiso   1.00
N685   N     0.23744   0.15214   0.67951   0.00000  Uiso   1.00
N686   N     0.26255   0.18119   0.98716   0.00000  Uiso   1.00
O687   O     0.25325   0.09538   0.87326   0.00000  Uiso   1.00
O688   O     0.16187   0.28334   0.79687   0.00000  Uiso   1.00
O689   O     0.15782   0.03209   0.74857   0.00000  Uiso   1.00
O690   O     0.33926   0.30701   0.91701   0.00000  Uiso   1.00
O691   O     0.33831   0.04971   0.86909   0.00000  Uiso   1.00
O692   O     0.29622   0.05293   0.96691   0.00000  Uiso   1.00
O693   O     0.24674   0.23796   0.79341   0.00000  Uiso   1.00
O694   O     0.24480   0.08559   0.76945   0.00000  Uiso   1.00
O695   O     0.25520   0.24774   0.89721   0.00000  Uiso   1.00
O696   O     0.18935   0.17155   0.88524   0.00000  Uiso   1.00
O697   O     0.31064   0.16179   0.78143   0.00000  Uiso   1.00
O698   O     0.18090   0.16176   0.78143   0.00000  Uiso   1.00
O699   O     0.31910   0.17157   0.88523   0.00000  Uiso   1.00
O700   O     0.20274   0.28537   0.70624   0.00000  Uiso   1.00
S701   S     0.18923   0.31754   0.76526   0.00000  Uiso   1.00
S702   S     0.31095   0.01598   0.90124   0.00000  Uiso   1.00
C703   C     0.74729   0.06690   0.81867   0.00000  Uiso   1.00
C704   C     0.58889   0.14472   0.78008   0.00000  Uiso   1.00
C705   C     0.88397   0.16765   0.83219   0.00000  Uiso   1.00
C706   C     0.61603   0.16561   0.83447   0.00000  Uiso   1.00
C707   C     0.90295   0.14669   0.77787   0.00000  Uiso   1.00
C708   C     0.59705   0.18653   0.88880   0.00000  Uiso   1.00
C709   C     0.94938   0.14566   0.77750   0.00000  Uiso   1.00
C710   C     0.55062   0.18752   0.88918   0.00000  Uiso   1.00
C711   C     0.97668   0.16683   0.83283   0.00000  Uiso   1.00
C712   C     0.52332   0.16634   0.83386   0.00000  Uiso   1.00
C713   C     0.95734   0.18843   0.88727   0.00000  Uiso   1.00
C714   C     0.75272   0.26644   0.84799   0.00000  Uiso   1.00
C715   C     0.54266   0.14475   0.77941   0.00000  Uiso   1.00
C716   C     0.96925   0.12380   0.72358   0.00000  Uiso   1.00
C717   C     0.53075   0.20937   0.94311   0.00000  Uiso   1.00
C718   C     0.51565   0.12364   0.72493   0.00000  Uiso   1.00
C719   C     0.98435   0.20953   0.94175   0.00000  Uiso   1.00
C720   C     0.73821   0.01226   0.81393   0.00000  Uiso   1.00
C721   C     0.76190   0.32108   0.85266   0.00000  Uiso   1.00
C722   C     0.66436   0.16620   0.83382   0.00000  Uiso   1.00
C723   C     0.83564   0.16711   0.83284   0.00000  Uiso   1.00
C724   C     0.91111   0.18851   0.88658   0.00000  Uiso   1.00
Cl725  Cl    0.93757   0.09559   0.98672   0.00000  Uiso   1.00
Cl726  Cl    0.56242   0.23757   0.67997   0.00000  Uiso   1.00
Cu727  Cu    0.75500   0.17246   0.89479   0.00000  Uiso   1.00
Cu728  Cu    0.74499   0.16087   0.77187   0.00000  Uiso   1.00
H729   H     0.89625   0.20504   0.92850   0.00000  Uiso   1.00
H730   H     0.77735   0.02891   0.98470   0.00000  Uiso   1.00
H731   H     0.60375   0.12822   0.73815   0.00000  Uiso   1.00
H732   H     0.88124   0.13054   0.73645   0.00000  Uiso   1.00
H733   H     0.61876   0.20269   0.93022   0.00000  Uiso   1.00
H734   H     0.53065   0.10700   0.68319   0.00000  Uiso   1.00
H735   H     0.96935   0.22616   0.98350   0.00000  Uiso   1.00
H736   H     0.71531   0.12588   0.98279   0.00000  Uiso   1.00
H737   H     0.78469   0.20745   0.68388   0.00000  Uiso   1.00
H738   H     0.63192   0.01364   0.72106   0.00000  Uiso   1.00
N739   N     0.73744   0.15214   0.67951   0.00000  Uiso   1.00
N740   N     0.76255   0.18119   0.98716   0.00000  Uiso   1.00
O741   O     0.75325   0.09538   0.87326   0.00000  Uiso   1.00
O742   O     0.66187   0.28334   0.79687   0.00000  Uiso   1.00
O743   O     0.65782   0.03209   0.74857   0.00000  Uiso   1.00
O744   O     0.83926   0.30701   0.91701   0.00000  Uiso   1.00
O745   O     0.83831   0.04971   0.86909   0.00000  Uiso   1.00
O746   O     0.79622   0.05293   0.96691   0.00000  Uiso   1.00
O747   O     0.74674   0.23796   0.79341   0.00000  Uiso   1.00
O748   O     0.74480   0.08559   0.76945   0.00000  Uiso   1.00
O749   O     0.75520   0.24774   0.89721   0.00000  Uiso   1.00
O750   O     0.68935   0.17155   0.88524   0.00000  Uiso   1.00
O751   O     0.81064   0.16179   0.78143   0.00000  Uiso   1.00
O752   O     0.68090   0.16176   0.78143   0.00000  Uiso   1.00
O753   O     0.81910   0.17157   0.88523   0.00000  Uiso   1.00
O754   O     0.70274   0.28537   0.70624   0.00000  Uiso   1.00
S755   S     0.68923   0.31754   0.76526   0.00000  Uiso   1.00
S756   S     0.81095   0.01598   0.90124   0.00000  Uiso   1.00
C757   C     0.24729   0.40023   0.81867   0.00000  Uiso   1.00
C758   C     0.08889   0.47806   0.78008   0.00000  Uiso   1.00
C759   C     0.38397   0.50098   0.83219   0.00000  Uiso   1.00
C760   C     0.11603   0.49895   0.83447   0.00000  Uiso   1.00
C761   C     0.40295   0.48002   0.77787   0.00000  Uiso   1.00
C762   C     0.09705   0.51987   0.88880   0.00000  Uiso   1.00
C763   C     0.44938   0.47899   0.77750   0.00000  Uiso   1.00
C764   C     0.05062   0.52086   0.88918   0.00000  Uiso   1.00
C765   C     0.47668   0.50016   0.83283   0.00000  Uiso   1.00
C766   C     0.02332   0.49967   0.83386   0.00000  Uiso   1.00
C767   C     0.45734   0.52176   0.88727   0.00000  Uiso   1.00
C768   C     0.25272   0.59977   0.84799   0.00000  Uiso   1.00
C769   C     0.04266   0.47809   0.77941   0.00000  Uiso   1.00
C770   C     0.46925   0.45713   0.72358   0.00000  Uiso   1.00
C771   C     0.03075   0.54270   0.94311   0.00000  Uiso   1.00
C772   C     0.01565   0.45697   0.72493   0.00000  Uiso   1.00
C773   C     0.48435   0.54286   0.94175   0.00000  Uiso   1.00
C774   C     0.23821   0.34560   0.81393   0.00000  Uiso   1.00
C775   C     0.26190   0.65441   0.85266   0.00000  Uiso   1.00
C776   C     0.16436   0.49953   0.83382   0.00000  Uiso   1.00
C777   C     0.33564   0.50045   0.83284   0.00000  Uiso   1.00
C778   C     0.41111   0.52184   0.88658   0.00000  Uiso   1.00
Cl779  Cl    0.43757   0.42892   0.98672   0.00000  Uiso   1.00
Cl780  Cl    0.06242   0.57091   0.67997   0.00000  Uiso   1.00
Cu781  Cu    0.25500   0.50579   0.89479   0.00000  Uiso   1.00
Cu782  Cu    0.24499   0.49421   0.77187   0.00000  Uiso   1.00
H783   H     0.39625   0.53838   0.92850   0.00000  Uiso   1.00
H784   H     0.27735   0.36224   0.98470   0.00000  Uiso   1.00
H785   H     0.10375   0.46156   0.73815   0.00000  Uiso   1.00
H786   H     0.38124   0.46388   0.73645   0.00000  Uiso   1.00
H787   H     0.11876   0.53602   0.93022   0.00000  Uiso   1.00
H788   H     0.03065   0.44033   0.68319   0.00000  Uiso   1.00
H789   H     0.46935   0.55949   0.98350   0.00000  Uiso   1.00
H790   H     0.21531   0.45921   0.98279   0.00000  Uiso   1.00
H791   H     0.28469   0.54079   0.68388   0.00000  Uiso   1.00
H792   H     0.13192   0.34697   0.72106   0.00000  Uiso   1.00
N793   N     0.23744   0.48547   0.67951   0.00000  Uiso   1.00
N794   N     0.26255   0.51453   0.98716   0.00000  Uiso   1.00
O795   O     0.25325   0.42871   0.87326   0.00000  Uiso   1.00
O796   O     0.16187   0.61668   0.79687   0.00000  Uiso   1.00
O797   O     0.15782   0.36543   0.74857   0.00000  Uiso   1.00
O798   O     0.33926   0.64035   0.91701   0.00000  Uiso   1.00
O799   O     0.33831   0.38305   0.86909   0.00000  Uiso   1.00
O800   O     0.29622   0.38627   0.96691   0.00000  Uiso   1.00
O801   O     0.24674   0.57129   0.79341   0.00000  Uiso   1.00
O802   O     0.24480   0.41892   0.76945   0.00000  Uiso   1.00
O803   O     0.25520   0.58108   0.89721   0.00000  Uiso   1.00
O804   O     0.18935   0.50488   0.88524   0.00000  Uiso   1.00
O805   O     0.31064   0.49512   0.78143   0.00000  Uiso   1.00
O806   O     0.18090   0.49510   0.78143   0.00000  Uiso   1.00
O807   O     0.31910   0.50490   0.88523   0.00000  Uiso   1.00
O808   O     0.20274   0.61870   0.70624   0.00000  Uiso   1.00
S809   S     0.18923   0.65087   0.76526   0.00000  Uiso   1.00
S810   S     0.31095   0.34931   0.90124   0.00000  Uiso   1.00
C811   C     0.74729   0.40023   0.81867   0.00000  Uiso   1.00
C812   C     0.58889   0.47806   0.78008   0.00000  Uiso   1.00
C813   C     0.88397   0.50098   0.83219   0.00000  Uiso   1.00
C814   C     0.61603   0.49895   0.83447   0.00000  Uiso   1.00
C815   C     0.90295   0.48002   0.77787   0.00000  Uiso   1.00
C816   C     0.59705   0.51987   0.88880   0.00000  Uiso   1.00
C817   C     0.94938   0.47899   0.77750   0.00000  Uiso   1.00
C818   C     0.55062   0.52086   0.88918   0.00000  Uiso   1.00
C819   C     0.97668   0.50016   0.83283   0.00000  Uiso   1.00
C820   C     0.52332   0.49967   0.83386   0.00000  Uiso   1.00
C821   C     0.95734   0.52176   0.88727   0.00000  Uiso   1.00
C822   C     0.75272   0.59977   0.84799   0.00000  Uiso   1.00
C823   C     0.54266   0.47809   0.77941   0.00000  Uiso   1.00
C824   C     0.96925   0.45713   0.72358   0.00000  Uiso   1.00
C825   C     0.53075   0.54270   0.94311   0.00000  Uiso   1.00
C826   C     0.51565   0.45697   0.72493   0.00000  Uiso   1.00
C827   C     0.98435   0.54286   0.94175   0.00000  Uiso   1.00
C828   C     0.73821   0.34560   0.81393   0.00000  Uiso   1.00
C829   C     0.76190   0.65441   0.85266   0.00000  Uiso   1.00
C830   C     0.66436   0.49953   0.83382   0.00000  Uiso   1.00
C831   C     0.83564   0.50045   0.83284   0.00000  Uiso   1.00
C832   C     0.91111   0.52184   0.88658   0.00000  Uiso   1.00
Cl833  Cl    0.93757   0.42892   0.98672   0.00000  Uiso   1.00
Cl834  Cl    0.56242   0.57091   0.67997   0.00000  Uiso   1.00
Cu835  Cu    0.75500   0.50579   0.89479   0.00000  Uiso   1.00
Cu836  Cu    0.74499   0.49421   0.77187   0.00000  Uiso   1.00
H837   H     0.89625   0.53838   0.92850   0.00000  Uiso   1.00
H838   H     0.77735   0.36224   0.98470   0.00000  Uiso   1.00
H839   H     0.60375   0.46156   0.73815   0.00000  Uiso   1.00
H840   H     0.88124   0.46388   0.73645   0.00000  Uiso   1.00
H841   H     0.61876   0.53602   0.93022   0.00000  Uiso   1.00
H842   H     0.53065   0.44033   0.68319   0.00000  Uiso   1.00
H843   H     0.96935   0.55949   0.98350   0.00000  Uiso   1.00
H844   H     0.71531   0.45921   0.98279   0.00000  Uiso   1.00
H845   H     0.78469   0.54079   0.68388   0.00000  Uiso   1.00
H846   H     0.63192   0.34697   0.72106   0.00000  Uiso   1.00
N847   N     0.73744   0.48547   0.67951   0.00000  Uiso   1.00
N848   N     0.76255   0.51453   0.98716   0.00000  Uiso   1.00
O849   O     0.75325   0.42871   0.87326   0.00000  Uiso   1.00
O850   O     0.66187   0.61668   0.79687   0.00000  Uiso   1.00
O851   O     0.65782   0.36543   0.74857   0.00000  Uiso   1.00
O852   O     0.83926   0.64035   0.91701   0.00000  Uiso   1.00
O853   O     0.83831   0.38305   0.86909   0.00000  Uiso   1.00
O854   O     0.79622   0.38627   0.96691   0.00000  Uiso   1.00
O855   O     0.74674   0.57129   0.79341   0.00000  Uiso   1.00
O856   O     0.74480   0.41892   0.76945   0.00000  Uiso   1.00
O857   O     0.75520   0.58108   0.89721   0.00000  Uiso   1.00
O858   O     0.68935   0.50488   0.88524   0.00000  Uiso   1.00
O859   O     0.81064   0.49512   0.78143   0.00000  Uiso   1.00
O860   O     0.68090   0.49510   0.78143   0.00000  Uiso   1.00
O861   O     0.81910   0.50490   0.88523   0.00000  Uiso   1.00
O862   O     0.70274   0.61870   0.70624   0.00000  Uiso   1.00
S863   S     0.68923   0.65087   0.76526   0.00000  Uiso   1.00
S864   S     0.81095   0.34931   0.90124   0.00000  Uiso   1.00
C865   C     0.24729   0.73356   0.81867   0.00000  Uiso   1.00
C866   C     0.08889   0.81139   0.78008   0.00000  Uiso   1.00
C867   C     0.38397   0.83431   0.83219   0.00000  Uiso   1.00
C868   C     0.11603   0.83228   0.83447   0.00000  Uiso   1.00
C869   C     0.40295   0.81335   0.77787   0.00000  Uiso   1.00
C870   C     0.09705   0.85320   0.88880   0.00000  Uiso   1.00
C871   C     0.44938   0.81232   0.77750   0.00000  Uiso   1.00
C872   C     0.05062   0.85419   0.88918   0.00000  Uiso   1.00
C873   C     0.47668   0.83350   0.83283   0.00000  Uiso   1.00
C874   C     0.02332   0.83301   0.83386   0.00000  Uiso   1.00
C875   C     0.45734   0.85510   0.88727   0.00000  Uiso   1.00
C876   C     0.25272   0.93311   0.84799   0.00000  Uiso   1.00
C877   C     0.04266   0.81142   0.77941   0.00000  Uiso   1.00
C878   C     0.46925   0.79046   0.72358   0.00000  Uiso   1.00
C879   C     0.03075   0.87604   0.94311   0.00000  Uiso   1.00
C880   C     0.01565   0.79030   0.72493   0.00000  Uiso   1.00
C881   C     0.48435   0.87619   0.94175   0.00000  Uiso   1.00
C882   C     0.23821   0.67893   0.81393   0.00000  Uiso   1.00
C883   C     0.26190   0.98774   0.85266   0.00000  Uiso   1.00
C884   C     0.16436   0.83287   0.83382   0.00000  Uiso   1.00
C885   C     0.33564   0.83378   0.83284   0.00000  Uiso   1.00
C886   C     0.41111   0.85517   0.88658   0.00000  Uiso   1.00
Cl887  Cl    0.43757   0.76226   0.98672   0.00000  Uiso   1.00
Cl888  Cl    0.06242   0.90424   0.67997   0.00000  Uiso   1.00
Cu889  Cu    0.25500   0.83913   0.89479   0.00000  Uiso   1.00
Cu890  Cu    0.24499   0.82754   0.77187   0.00000  Uiso   1.00
H891   H     0.39625   0.87171   0.92850   0.00000  Uiso   1.00
H892   H     0.27735   0.69557   0.98470   0.00000  Uiso   1.00
H893   H     0.10375   0.79489   0.73815   0.00000  Uiso   1.00
H894   H     0.38124   0.79721   0.73645   0.00000  Uiso   1.00
H895   H     0.11876   0.86936   0.93022   0.00000  Uiso   1.00
H896   H     0.03065   0.77367   0.68319   0.00000  Uiso   1.00
H897   H     0.46935   0.89283   0.98350   0.00000  Uiso   1.00
H898   H     0.21531   0.79254   0.98279   0.00000  Uiso   1.00
H899   H     0.28469   0.87412   0.68388   0.00000  Uiso   1.00
H900   H     0.13192   0.68031   0.72106   0.00000  Uiso   1.00
N901   N     0.23744   0.81881   0.67951   0.00000  Uiso   1.00
N902   N     0.26255   0.84786   0.98716   0.00000  Uiso   1.00
O903   O     0.25325   0.76204   0.87326   0.00000  Uiso   1.00
O904   O     0.16187   0.95001   0.79687   0.00000  Uiso   1.00
O905   O     0.15782   0.69876   0.74857   0.00000  Uiso   1.00
O906   O     0.33926   0.97368   0.91701   0.00000  Uiso   1.00
O907   O     0.33831   0.71638   0.86909   0.00000  Uiso   1.00
O908   O     0.29622   0.71960   0.96691   0.00000  Uiso   1.00
O909   O     0.24674   0.90462   0.79341   0.00000  Uiso   1.00
O910   O     0.24480   0.75226   0.76945   0.00000  Uiso   1.00
O911   O     0.25520   0.91441   0.89721   0.00000  Uiso   1.00
O912   O     0.18935   0.83821   0.88524   0.00000  Uiso   1.00
O913   O     0.31064   0.82845   0.78143   0.00000  Uiso   1.00
O914   O     0.18090   0.82843   0.78143   0.00000  Uiso   1.00
O915   O     0.31910   0.83824   0.88523   0.00000  Uiso   1.00
O916   O     0.20274   0.95204   0.70624   0.00000  Uiso   1.00
S917   S     0.18923   0.98421   0.76526   0.00000  Uiso   1.00
S918   S     0.31095   0.68264   0.90124   0.00000  Uiso   1.00
C919   C     0.74729   0.73356   0.81867   0.00000  Uiso   1.00
C920   C     0.58889   0.81139   0.78008   0.00000  Uiso   1.00
C921   C     0.88397   0.83431   0.83219   0.00000  Uiso   1.00
C922   C     0.61603   0.83228   0.83447   0.00000  Uiso   1.00
C923   C     0.90295   0.81335   0.77787   0.00000  Uiso   1.00
C924   C     0.59705   0.85320   0.88880   0.00000  Uiso   1.00
C925   C     0.94938   0.81232   0.77750   0.00000  Uiso   1.00
C926   C     0.55062   0.85419   0.88918   0.00000  Uiso   1.00
C927   C     0.97668   0.83350   0.83283   0.00000  Uiso   1.00
C928   C     0.52332   0.83301   0.83386   0.00000  Uiso   1.00
C929   C     0.95734   0.85510   0.88727   0.00000  Uiso   1.00
C930   C     0.75272   0.93311   0.84799   0.00000  Uiso   1.00
C931   C     0.54266   0.81142   0.77941   0.00000  Uiso   1.00
C932   C     0.96925   0.79046   0.72358   0.00000  Uiso   1.00
C933   C     0.53075   0.87604   0.94311   0.00000  Uiso   1.00
C934   C     0.51565   0.79030   0.72493   0.00000  Uiso   1.00
C935   C     0.98435   0.87619   0.94175   0.00000  Uiso   1.00
C936   C     0.73821   0.67893   0.81393   0.00000  Uiso   1.00
C937   C     0.76190   0.98774   0.85266   0.00000  Uiso   1.00
C938   C     0.66436   0.83287   0.83382   0.00000  Uiso   1.00
C939   C     0.83564   0.83378   0.83284   0.00000  Uiso   1.00
C940   C     0.91111   0.85517   0.88658   0.00000  Uiso   1.00
Cl941  Cl    0.93757   0.76226   0.98672   0.00000  Uiso   1.00
Cl942  Cl    0.56242   0.90424   0.67997   0.00000  Uiso   1.00
Cu943  Cu    0.75500   0.83913   0.89479   0.00000  Uiso   1.00
Cu944  Cu    0.74499   0.82754   0.77187   0.00000  Uiso   1.00
H945   H     0.89625   0.87171   0.92850   0.00000  Uiso   1.00
H946   H     0.77735   0.69557   0.98470   0.00000  Uiso   1.00
H947   H     0.60375   0.79489   0.73815   0.00000  Uiso   1.00
H948   H     0.88124   0.79721   0.73645   0.00000  Uiso   1.00
H949   H     0.61876   0.86936   0.93022   0.00000  Uiso   1.00
H950   H     0.53065   0.77367   0.68319   0.00000  Uiso   1.00
H951   H     0.96935   0.89283   0.98350   0.00000  Uiso   1.00
H952   H     0.71531   0.79254   0.98279   0.00000  Uiso   1.00
H953   H     0.78469   0.87412   0.68388   0.00000  Uiso   1.00
H954   H     0.63192   0.68031   0.72106   0.00000  Uiso   1.00
N955   N     0.73744   0.81881   0.67951   0.00000  Uiso   1.00
N956   N     0.76255   0.84786   0.98716   0.00000  Uiso   1.00
O957   O     0.75325   0.76204   0.87326   0.00000  Uiso   1.00
O958   O     0.66187   0.95001   0.79687   0.00000  Uiso   1.00
O959   O     0.65782   0.69876   0.74857   0.00000  Uiso   1.00
O960   O     0.83926   0.97368   0.91701   0.00000  Uiso   1.00
O961   O     0.83831   0.71638   0.86909   0.00000  Uiso   1.00
O962   O     0.79622   0.71960   0.96691   0.00000  Uiso   1.00
O963   O     0.74674   0.90462   0.79341   0.00000  Uiso   1.00
O964   O     0.74480   0.75226   0.76945   0.00000  Uiso   1.00
O965   O     0.75520   0.91441   0.89721   0.00000  Uiso   1.00
O966   O     0.68935   0.83821   0.88524   0.00000  Uiso   1.00
O967   O     0.81064   0.82845   0.78143   0.00000  Uiso   1.00
O968   O     0.68090   0.82843   0.78143   0.00000  Uiso   1.00
O969   O     0.81910   0.83824   0.88523   0.00000  Uiso   1.00
O970   O     0.70274   0.95204   0.70624   0.00000  Uiso   1.00
S971   S     0.68923   0.98421   0.76526   0.00000  Uiso   1.00
S972   S     0.81095   0.68264   0.90124   0.00000  Uiso   1.00
loop_
_geom_bond_atom_site_label_1
_geom_bond_atom_site_label_2
_geom_bond_distance
_geom_bond_site_symmetry_2
_ccdc_geom_bond_type
C1     C18     1.422   .     S
C1     O46     1.287   .     A
C1     O39     1.282   .     A
C2     C4      1.399   .     A
C2     H29     1.085   .     S
C2     C13     1.389   .     A
C3     C21     1.454   .     S
C3     C22     1.399   .     A
C3     C5      1.399   .     A
C4     C6      1.399   .     A
C4     C20     1.454   .     S
C5     H30     1.082   .     S
C5     C7      1.398   .     A
C6     H31     1.082   .     S
C6     C8      1.398   .     A
C7     C9      1.418   .     A
C7     C14     1.411   .     A
C8     C15     1.411   .     A
C8     C10     1.418   .     A
C9     C11     1.410   .     A
C9     C64     1.402   .     S
C10    C13     1.410   .     A
C10    C63     1.402   1_455 S
C11    C17     1.400   .     A
C11    C22     1.389   .     A
C12    O47     1.287   .     A
C12    C19     1.422   .     S
C12    O45     1.282   .     A
C13    C16     1.400   .     A
C14    C70     1.393   .     S
C14    Cl671   1.764   1_554 S
C15    C71     1.393   1_455 S
C15    Cl348   1.764   .     S
C16    H32     1.084   .     S
C16    C68     1.393   1_455 S
C17    H33     1.084   .     S
C17    C69     1.393   .     S
C18    C235    1.353   1_545 S
C18    S269    1.788   1_545 S
C19    C126    1.353   .     S
C19    S162    1.790   .     S
C20    O48     1.296   .     A
C20    O50     1.291   .     A
C21    O49     1.296   .     A
C21    O51     1.291   .     A
C22    H27     1.085   .     S
Cl23   C338    1.764   .     S
Cl24   C663    1.764   1_554 S
Cu25   O51     1.957   .     S
Cu25   N38     2.015   .     S
Cu25   O47     1.956   .     S
Cu25   O39     1.968   .     S
Cu25   O48     1.967   .     S
Cu25   Cu26    2.682   .     S
Cu26   N37     2.015   .     S
Cu26   O50     1.957   .     S
Cu26   O46     1.956   .     S
Cu26   O45     1.968   .     S
Cu26   O49     1.967   .     S
H28    O44     0.991   .     S
H34    N361    1.029   .     S
H35    N686    1.029   1_554 S
H36    O41     0.991   .     S
N37    H682    1.029   1_554 S
N37    N686    1.293   1_554 S
N38    N361    1.293   .     S
N38    H359    1.029   .     S
O40    S53     1.504   .     D
O41    S269    1.683   1_545 S
O42    S162    1.504   .     S
O43    S54     1.503   .     D
O44    S54     1.682   .     S
O52    S53     1.503   .     D
S53    C126    1.788   .     S
S53    O149    1.683   .     S
S54    O258    1.504   1_545 S
S54    C235    1.790   1_545 S
C55    C72     1.422   .     S
C55    O100    1.287   .     A
C55    O93     1.282   .     A
C56    C58     1.399   .     A
C56    H83     1.085   .     S
C56    C67     1.389   .     A
C57    C75     1.454   .     S
C57    C76     1.399   .     A
C57    C59     1.399   .     A
C58    C60     1.399   .     A
C58    C74     1.454   .     S
C59    H84     1.082   .     S
C59    C61     1.398   .     A
C60    H85     1.082   .     S
C60    C62     1.398   .     A
C61    C63     1.418   .     A
C61    C68     1.411   .     A
C62    C69     1.411   .     A
C62    C64     1.418   .     A
C63    C65     1.410   .     A
C63    C10     1.402   1_655 S
C64    C67     1.410   .     A
C65    C71     1.400   .     A
C65    C76     1.389   .     A
C66    O101    1.287   .     A
C66    C73     1.422   .     S
C66    O99     1.282   .     A
C67    C70     1.400   .     A
C68    C16     1.393   1_655 S
C68    Cl725   1.764   1_554 S
C69    Cl402   1.764   .     S
C70    H86     1.084   .     S
C71    H87     1.084   .     S
C71    C15     1.393   1_655 S
C72    C289    1.353   1_545 S
C72    S323    1.788   1_545 S
C73    C180    1.353   .     S
C73    S216    1.790   .     S
C74    O102    1.296   .     A
C74    O104    1.291   .     A
C75    O103    1.296   .     A
C75    O105    1.291   .     A
C76    H81     1.085   .     S
Cl77   C392    1.764   .     S
Cl78   C717    1.764   1_554 S
Cu79   O105    1.957   .     S
Cu79   N92     2.015   .     S
Cu79   O101    1.956   .     S
Cu79   O93     1.968   .     S
Cu79   O102    1.967   .     S
Cu79   Cu80    2.682   .     S
Cu80   N91     2.015   .     S
Cu80   O104    1.957   .     S
Cu80   O100    1.956   .     S
Cu80   O99     1.968   .     S
Cu80   O103    1.967   .     S
H82    O98     0.991   .     S
H88    N415    1.029   .     S
H89    N740    1.029   1_554 S
H90    O95     0.991   .     S
N91    H736    1.029   1_554 S
N91    N740    1.293   1_554 S
N92    N415    1.293   .     S
N92    H413    1.029   .     S
O94    S107    1.504   .     D
O95    S323    1.683   1_545 S
O96    S216    1.504   .     S
O97    S108    1.503   .     D
O98    S108    1.682   .     S
O106   S107    1.503   .     D
S107   C180    1.788   .     S
S107   O203    1.683   .     S
S108   O312    1.504   1_545 S
S108   C289    1.790   1_545 S
C109   C126    1.422   .     S
C109   O154    1.287   .     A
C109   O147    1.282   .     A
C110   C112    1.399   .     A
C110   H137    1.085   .     S
C110   C121    1.389   .     A
C111   C129    1.454   .     S
C111   C130    1.399   .     A
C111   C113    1.399   .     A
C112   C114    1.399   .     A
C112   C128    1.454   .     S
C113   H138    1.082   .     S
C113   C115    1.398   .     A
C114   H139    1.082   .     S
C114   C116    1.398   .     A
C115   C117    1.418   .     A
C115   C122    1.411   .     A
C116   C123    1.411   .     A
C116   C118    1.418   .     A
C117   C119    1.410   .     A
C117   C172    1.402   .     S
C118   C121    1.410   .     A
C118   C171    1.402   1_455 S
C119   C125    1.400   .     A
C119   C130    1.389   .     A
C120   O155    1.287   .     A
C120   C127    1.422   .     S
C120   O153    1.282   .     A
C121   C124    1.400   .     A
C122   C178    1.393   .     S
C122   Cl779   1.764   1_554 S
C123   C179    1.393   1_455 S
C123   Cl456   1.764   .     S
C124   H140    1.084   .     S
C124   C176    1.393   1_455 S
C125   H141    1.084   .     S
C125   C177    1.393   .     S
C127   C234    1.353   .     S
C127   S270    1.790   .     S
C128   O156    1.296   .     A
C128   O158    1.291   .     A
C129   O157    1.296   .     A
C129   O159    1.291   .     A
C130   H135    1.085   .     S
Cl131  C446    1.764   .     S
Cl132  C771    1.764   1_554 S
Cu133  O159    1.957   .     S
Cu133  N146    2.015   .     S
Cu133  O155    1.956   .     S
Cu133  O147    1.968   .     S
Cu133  O156    1.967   .     S
Cu133  Cu134   2.682   .     S
Cu134  N145    2.015   .     S
Cu134  O158    1.957   .     S
Cu134  O154    1.956   .     S
Cu134  O153    1.968   .     S
Cu134  O157    1.967   .     S
H136   O152    0.991   .     S
H142   N469    1.029   .     S
H143   N794    1.029   1_554 S
H144   O149    0.991   .     S
N145   H790    1.029   1_554 S
N145   N794    1.293   1_554 S
N146   N469    1.293   .     S
N146   H467    1.029   .     S
O148   S161    1.504   .     D
O150   S270    1.504   .     S
O151   S162    1.503   .     D
O152   S162    1.682   .     S
O160   S161    1.503   .     D
S161   C234    1.788   .     S
S161   O257    1.683   .     S
C163   C180    1.422   .     S
C163   O208    1.287   .     A
C163   O201    1.282   .     A
C164   C166    1.399   .     A
C164   H191    1.085   .     S
C164   C175    1.389   .     A
C165   C183    1.454   .     S
C165   C184    1.399   .     A
C165   C167    1.399   .     A
C166   C168    1.399   .     A
C166   C182    1.454   .     S
C167   H192    1.082   .     S
C167   C169    1.398   .     A
C168   H193    1.082   .     S
C168   C170    1.398   .     A
C169   C171    1.418   .     A
C169   C176    1.411   .     A
C170   C177    1.411   .     A
C170   C172    1.418   .     A
C171   C173    1.410   .     A
C171   C118    1.402   1_655 S
C172   C175    1.410   .     A
C173   C179    1.400   .     A
C173   C184    1.389   .     A
C174   O209    1.287   .     A
C174   C181    1.422   .     S
C174   O207    1.282   .     A
C175   C178    1.400   .     A
C176   C124    1.393   1_655 S
C176   Cl833   1.764   1_554 S
C177   Cl510   1.764   .     S
C178   H194    1.084   .     S
C179   H195    1.084   .     S
C179   C123    1.393   1_655 S
C181   C288    1.353   .     S
C181   S324    1.790   .     S
C182   O210    1.296   .     A
C182   O212    1.291   .     A
C183   O211    1.296   .     A
C183   O213    1.291   .     A
C184   H189    1.085   .     S
Cl185  C500    1.764   .     S
Cl186  C825    1.764   1_554 S
Cu187  O213    1.957   .     S
Cu187  N200    2.015   .     S
Cu187  O209    1.956   .     S
Cu187  O201    1.968   .     S
Cu187  O210    1.967   .     S
Cu187  Cu188   2.682   .     S
Cu188  N199    2.015   .     S
Cu188  O212    1.957   .     S
Cu188  O208    1.956   .     S
Cu188  O207    1.968   .     S
Cu188  O211    1.967   .     S
H190   O206    0.991   .     S
H196   N523    1.029   .     S
H197   N848    1.029   1_554 S
H198   O203    0.991   .     S
N199   H844    1.029   1_554 S
N199   N848    1.293   1_554 S
N200   N523    1.293   .     S
N200   H521    1.029   .     S
O202   S215    1.504   .     D
O204   S324    1.504   .     S
O205   S216    1.503   .     D
O206   S216    1.682   .     S
O214   S215    1.503   .     D
S215   C288    1.788   .     S
S215   O311    1.683   .     S
C217   C234    1.422   .     S
C217   O262    1.287   .     A
C217   O255    1.282   .     A
C218   C220    1.399   .     A
C218   H245    1.085   .     S
C218   C229    1.389   .     A
C219   C237    1.454   .     S
C219   C238    1.399   .     A
C219   C221    1.399   .     A
C220   C222    1.399   .     A
C220   C236    1.454   .     S
C221   H246    1.082   .     S
C221   C223    1.398   .     A
C222   H247    1.082   .     S
C222   C224    1.398   .     A
C223   C225    1.418   .     A
C223   C230    1.411   .     A
C224   C231    1.411   .     A
C224   C226    1.418   .     A
C225   C227    1.410   .     A
C225   C280    1.402   .     S
C226   C229    1.410   .     A
C226   C279    1.402   1_455 S
C227   C233    1.400   .     A
C227   C238    1.389   .     A
C228   O263    1.287   .     A
C228   C235    1.422   .     S
C228   O261    1.282   .     A
C229   C232    1.400   .     A
C230   C286    1.393   .     S
C230   Cl887   1.764   1_554 S
C231   C287    1.393   1_455 S
C231   Cl564   1.764   .     S
C232   H248    1.084   .     S
C232   C284    1.393   1_455 S
C233   H249    1.084   .     S
C233   C285    1.393   .     S
C235   C18     1.353   1_565 S
C235   S54     1.790   1_565 S
C236   O264    1.296   .     A
C236   O266    1.291   .     A
C237   O265    1.296   .     A
C237   O267    1.291   .     A
C238   H243    1.085   .     S
Cl239  C554    1.764   .     S
Cl240  C879    1.764   1_554 S
Cu241  O267    1.957   .     S
Cu241  N254    2.015   .     S
Cu241  O263    1.956   .     S
Cu241  O255    1.968   .     S
Cu241  O264    1.967   .     S
Cu241  Cu242   2.682   .     S
Cu242  N253    2.015   .     S
Cu242  O266    1.957   .     S
Cu242  O262    1.956   .     S
Cu242  O261    1.968   .     S
Cu242  O265    1.967   .     S
H244   O260    0.991   .     S
H250   N577    1.029   .     S
H251   N902    1.029   1_554 S
H252   O257    0.991   .     S
N253   H898    1.029   1_554 S
N253   N902    1.293   1_554 S
N254   N577    1.293   .     S
N254   H575    1.029   .     S
O256   S269    1.504   .     D
O258   S54     1.504   1_565 S
O259   S270    1.503   .     D
O260   S270    1.682   .     S
O268   S269    1.503   .     D
S269   C18     1.788   1_565 S
S269   O41     1.683   1_565 S
C271   C288    1.422   .     S
C271   O316    1.287   .     A
C271   O309    1.282   .     A
C272   C274    1.399   .     A
C272   H299    1.085   .     S
C272   C283    1.389   .     A
C273   C291    1.454   .     S
C273   C292    1.399   .     A
C273   C275    1.399   .     A
C274   C276    1.399   .     A
C274   C290    1.454   .     S
C275   H300    1.082   .     S
C275   C277    1.398   .     A
C276   H301    1.082   .     S
C276   C278    1.398   .     A
C277   C279    1.418   .     A
C277   C284    1.411   .     A
C278   C285    1.411   .     A
C278   C280    1.418   .     A
C279   C281    1.410   .     A
C279   C226    1.402   1_655 S
C280   C283    1.410   .     A
C281   C287    1.400   .     A
C281   C292    1.389   .     A
C282   O317    1.287   .     A
C282   C289    1.422   .     S
C282   O315    1.282   .     A
C283   C286    1.400   .     A
C284   C232    1.393   1_655 S
C284   Cl941   1.764   1_554 S
C285   Cl618   1.764   .     S
C286   H302    1.084   .     S
C287   H303    1.084   .     S
C287   C231    1.393   1_655 S
C289   C72     1.353   1_565 S
C289   S108    1.790   1_565 S
C290   O318    1.296   .     A
C290   O320    1.291   .     A
C291   O319    1.296   .     A
C291   O321    1.291   .     A
C292   H297    1.085   .     S
Cl293  C608    1.764   .     S
Cl294  C933    1.764   1_554 S
Cu295  O321    1.957   .     S
Cu295  N308    2.015   .     S
Cu295  O317    1.956   .     S
Cu295  O309    1.968   .     S
Cu295  O318    1.967   .     S
Cu295  Cu296   2.682   .     S
Cu296  N307    2.015   .     S
Cu296  O320    1.957   .     S
Cu296  O316    1.956   .     S
Cu296  O315    1.968   .     S
Cu296  O319    1.967   .     S
H298   O314    0.991   .     S
H304   N631    1.029   .     S
H305   N956    1.029   1_554 S
H306   O311    0.991   .     S
N307   H952    1.029   1_554 S
N307   N956    1.293   1_554 S
N308   N631    1.293   .     S
N308   H629    1.029   .     S
O310   S323    1.504   .     D
O312   S108    1.504   1_565 S
O313   S324    1.503   .     D
O314   S324    1.682   .     S
O322   S323    1.503   .     D
S323   C72     1.788   1_565 S
S323   O95     1.683   1_565 S
C325   C342    1.422   .     S
C325   O370    1.287   .     A
C325   O363    1.282   .     A
C326   C328    1.399   .     A
C326   H353    1.085   .     S
C326   C337    1.389   .     A
C327   C345    1.454   .     S
C327   C346    1.399   .     A
C327   C329    1.399   .     A
C328   C330    1.399   .     A
C328   C344    1.454   .     S
C329   H354    1.082   .     S
C329   C331    1.398   .     A
C330   H355    1.082   .     S
C330   C332    1.398   .     A
C331   C333    1.418   .     A
C331   C338    1.411   .     A
C332   C339    1.411   .     A
C332   C334    1.418   .     A
C333   C335    1.410   .     A
C333   C388    1.402   .     S
C334   C337    1.410   .     A
C334   C387    1.402   1_455 S
C335   C341    1.400   .     A
C335   C346    1.389   .     A
C336   O371    1.287   .     A
C336   C343    1.422   .     S
C336   O369    1.282   .     A
C337   C340    1.400   .     A
C338   C394    1.393   .     S
C339   C395    1.393   1_455 S
C339   Cl672   1.764   .     S
C340   H356    1.084   .     S
C340   C392    1.393   1_455 S
C341   H357    1.084   .     S
C341   C393    1.393   .     S
C342   C559    1.353   1_545 S
C342   S593    1.788   1_545 S
C343   C450    1.353   .     S
C343   S486    1.790   .     S
C344   O372    1.296   .     A
C344   O374    1.291   .     A
C345   O373    1.296   .     A
C345   O375    1.291   .     A
C346   H351    1.085   .     S
Cl347  C662    1.764   .     S
Cu349  O375    1.957   .     S
Cu349  N362    2.015   .     S
Cu349  O371    1.956   .     S
Cu349  O363    1.968   .     S
Cu349  O372    1.967   .     S
Cu349  Cu350   2.682   .     S
Cu350  N361    2.015   .     S
Cu350  O374    1.957   .     S
Cu350  O370    1.956   .     S
Cu350  O369    1.968   .     S
Cu350  O373    1.967   .     S
H352   O368    0.991   .     S
H358   N685    1.029   .     S
H360   O365    0.991   .     S
N362   N685    1.293   .     S
N362   H683    1.029   .     S
O364   S377    1.504   .     D
O365   S593    1.683   1_545 S
O366   S486    1.504   .     S
O367   S378    1.503   .     D
O368   S378    1.682   .     S
O376   S377    1.503   .     D
S377   C450    1.788   .     S
S377   O473    1.683   .     S
S378   O582    1.504   1_545 S
S378   C559    1.790   1_545 S
C379   C396    1.422   .     S
C379   O424    1.287   .     A
C379   O417    1.282   .     A
C380   C382    1.399   .     A
C380   H407    1.085   .     S
C380   C391    1.389   .     A
C381   C399    1.454   .     S
C381   C400    1.399   .     A
C381   C383    1.399   .     A
C382   C384    1.399   .     A
C382   C398    1.454   .     S
C383   H408    1.082   .     S
C383   C385    1.398   .     A
C384   H409    1.082   .     S
C384   C386    1.398   .     A
C385   C387    1.418   .     A
C385   C392    1.411   .     A
C386   C393    1.411   .     A
C386   C388    1.418   .     A
C387   C389    1.410   .     A
C387   C334    1.402   1_655 S
C388   C391    1.410   .     A
C389   C395    1.400   .     A
C389   C400    1.389   .     A
C390   O425    1.287   .     A
C390   C397    1.422   .     S
C390   O423    1.282   .     A
C391   C394    1.400   .     A
C392   C340    1.393   1_655 S
C393   Cl726   1.764   .     S
C394   H410    1.084   .     S
C395   H411    1.084   .     S
C395   C339    1.393   1_655 S
C396   C613    1.353   1_545 S
C396   S647    1.788   1_545 S
C397   C504    1.353   .     S
C397   S540    1.790   .     S
C398   O426    1.296   .     A
C398   O428    1.291   .     A
C399   O427    1.296   .     A
C399   O429    1.291   .     A
C400   H405    1.085   .     S
Cl401  C716    1.764   .     S
Cu403  O429    1.957   .     S
Cu403  N416    2.015   .     S
Cu403  O425    1.956   .     S
Cu403  O417    1.968   .     S
Cu403  O426    1.967   .     S
Cu403  Cu404   2.682   .     S
Cu404  N415    2.015   .     S
Cu404  O428    1.957   .     S
Cu404  O424    1.956   .     S
Cu404  O423    1.968   .     S
Cu404  O427    1.967   .     S
H406   O422    0.991   .     S
H412   N739    1.029   .     S
H414   O419    0.991   .     S
N416   N739    1.293   .     S
N416   H737    1.029   .     S
O418   S431    1.504   .     D
O419   S647    1.683   1_545 S
O420   S540    1.504   .     S
O421   S432    1.503   .     D
O422   S432    1.682   .     S
O430   S431    1.503   .     D
S431   C504    1.788   .     S
S431   O527    1.683   .     S
S432   O636    1.504   1_545 S
S432   C613    1.790   1_545 S
C433   C450    1.422   .     S
C433   O478    1.287   .     A
C433   O471    1.282   .     A
C434   C436    1.399   .     A
C434   H461    1.085   .     S
C434   C445    1.389   .     A
C435   C453    1.454   .     S
C435   C454    1.399   .     A
C435   C437    1.399   .     A
C436   C438    1.399   .     A
C436   C452    1.454   .     S
C437   H462    1.082   .     S
C437   C439    1.398   .     A
C438   H463    1.082   .     S
C438   C440    1.398   .     A
C439   C441    1.418   .     A
C439   C446    1.411   .     A
C440   C447    1.411   .     A
C440   C442    1.418   .     A
C441   C443    1.410   .     A
C441   C496    1.402   .     S
C442   C445    1.410   .     A
C442   C495    1.402   1_455 S
C443   C449    1.400   .     A
C443   C454    1.389   .     A
C444   O479    1.287   .     A
C444   C451    1.422   .     S
C444   O477    1.282   .     A
C445   C448    1.400   .     A
C446   C502    1.393   .     S
C447   C503    1.393   1_455 S
C447   Cl780   1.764   .     S
C448   H464    1.084   .     S
C448   C500    1.393   1_455 S
C449   H465    1.084   .     S
C449   C501    1.393   .     S
C451   C558    1.353   .     S
C451   S594    1.790   .     S
C452   O480    1.296   .     A
C452   O482    1.291   .     A
C453   O481    1.296   .     A
C453   O483    1.291   .     A
C454   H459    1.085   .     S
Cl455  C770    1.764   .     S
Cu457  O483    1.957   .     S
Cu457  N470    2.015   .     S
Cu457  O479    1.956   .     S
Cu457  O471    1.968   .     S
Cu457  O480    1.967   .     S
Cu457  Cu458   2.682   .     S
Cu458  N469    2.015   .     S
Cu458  O482    1.957   .     S
Cu458  O478    1.956   .     S
Cu458  O477    1.968   .     S
Cu458  O481    1.967   .     S
H460   O476    0.991   .     S
H466   N793    1.029   .     S
H468   O473    0.991   .     S
N470   N793    1.293   .     S
N470   H791    1.029   .     S
O472   S485    1.504   .     D
O474   S594    1.504   .     S
O475   S486    1.503   .     D
O476   S486    1.682   .     S
O484   S485    1.503   .     D
S485   C558    1.788   .     S
S485   O581    1.683   .     S
C487   C504    1.422   .     S
C487   O532    1.287   .     A
C487   O525    1.282   .     A
C488   C490    1.399   .     A
C488   H515    1.085   .     S
C488   C499    1.389   .     A
C489   C507    1.454   .     S
C489   C508    1.399   .     A
C489   C491    1.399   .     A
C490   C492    1.399   .     A
C490   C506    1.454   .     S
C491   H516    1.082   .     S
C491   C493    1.398   .     A
C492   H517    1.082   .     S
C492   C494    1.398   .     A
C493   C495    1.418   .     A
C493   C500    1.411   .     A
C494   C501    1.411   .     A
C494   C496    1.418   .     A
C495   C497    1.410   .     A
C495   C442    1.402   1_655 S
C496   C499    1.410   .     A
C497   C503    1.400   .     A
C497   C508    1.389   .     A
C498   O533    1.287   .     A
C498   C505    1.422   .     S
C498   O531    1.282   .     A
C499   C502    1.400   .     A
C500   C448    1.393   1_655 S
C501   Cl834   1.764   .     S
C502   H518    1.084   .     S
C503   H519    1.084   .     S
C503   C447    1.393   1_655 S
C505   C612    1.353   .     S
C505   S648    1.790   .     S
C506   O534    1.296   .     A
C506   O536    1.291   .     A
C507   O535    1.296   .     A
C507   O537    1.291   .     A
C508   H513    1.085   .     S
Cl509  C824    1.764   .     S
Cu511  O537    1.957   .     S
Cu511  N524    2.015   .     S
Cu511  O533    1.956   .     S
Cu511  O525    1.968   .     S
Cu511  O534    1.967   .     S
Cu511  Cu512   2.682   .     S
Cu512  N523    2.015   .     S
Cu512  O536    1.957   .     S
Cu512  O532    1.956   .     S
Cu512  O531    1.968   .     S
Cu512  O535    1.967   .     S
H514   O530    0.991   .     S
H520   N847    1.029   .     S
H522   O527    0.991   .     S
N524   N847    1.293   .     S
N524   H845    1.029   .     S
O526   S539    1.504   .     D
O528   S648    1.504   .     S
O529   S540    1.503   .     D
O530   S540    1.682   .     S
O538   S539    1.503   .     D
S539   C612    1.788   .     S
S539   O635    1.683   .     S
C541   C558    1.422   .     S
C541   O586    1.287   .     A
C541   O579    1.282   .     A
C542   C544    1.399   .     A
C542   H569    1.085   .     S
C542   C553    1.389   .     A
C543   C561    1.454   .     S
C543   C562    1.399   .     A
C543   C545    1.399   .     A
C544   C546    1.399   .     A
C544   C560    1.454   .     S
C545   H570    1.082   .     S
C545   C547    1.398   .     A
C546   H571    1.082   .     S
C546   C548    1.398   .     A
C547   C549    1.418   .     A
C547   C554    1.411   .     A
C548   C555    1.411   .     A
C548   C550    1.418   .     A
C549   C551    1.410   .     A
C549   C604    1.402   .     S
C550   C553    1.410   .     A
C550   C603    1.402   1_455 S
C551   C557    1.400   .     A
C551   C562    1.389   .     A
C552   O587    1.287   .     A
C552   C559    1.422   .     S
C552   O585    1.282   .     A
C553   C556    1.400   .     A
C554   C610    1.393   .     S
C555   C611    1.393   1_455 S
C555   Cl888   1.764   .     S
C556   H572    1.084   .     S
C556   C608    1.393   1_455 S
C557   H573    1.084   .     S
C557   C609    1.393   .     S
C559   C342    1.353   1_565 S
C559   S378    1.790   1_565 S
C560   O588    1.296   .     A
C560   O590    1.291   .     A
C561   O589    1.296   .     A
C561   O591    1.291   .     A
C562   H567    1.085   .     S
Cl563  C878    1.764   .     S
Cu565  O591    1.957   .     S
Cu565  N578    2.015   .     S
Cu565  O587    1.956   .     S
Cu565  O579    1.968   .     S
Cu565  O588    1.967   .     S
Cu565  Cu566   2.682   .     S
Cu566  N577    2.015   .     S
Cu566  O590    1.957   .     S
Cu566  O586    1.956   .     S
Cu566  O585    1.968   .     S
Cu566  O589    1.967   .     S
H568   O584    0.991   .     S
H574   N901    1.029   .     S
H576   O581    0.991   .     S
N578   N901    1.293   .     S
N578   H899    1.029   .     S
O580   S593    1.504   .     D
O582   S378    1.504   1_565 S
O583   S594    1.503   .     D
O584   S594    1.682   .     S
O592   S593    1.503   .     D
S593   C342    1.788   1_565 S
S593   O365    1.683   1_565 S
C595   C612    1.422   .     S
C595   O640    1.287   .     A
C595   O633    1.282   .     A
C596   C598    1.399   .     A
C596   H623    1.085   .     S
C596   C607    1.389   .     A
C597   C615    1.454   .     S
C597   C616    1.399   .     A
C597   C599    1.399   .     A
C598   C600    1.399   .     A
C598   C614    1.454   .     S
C599   H624    1.082   .     S
C599   C601    1.398   .     A
C600   H625    1.082   .     S
C600   C602    1.398   .     A
C601   C603    1.418   .     A
C601   C608    1.411   .     A
C602   C609    1.411   .     A
C602   C604    1.418   .     A
C603   C605    1.410   .     A
C603   C550    1.402   1_655 S
C604   C607    1.410   .     A
C605   C611    1.400   .     A
C605   C616    1.389   .     A
C606   O641    1.287   .     A
C606   C613    1.422   .     S
C606   O639    1.282   .     A
C607   C610    1.400   .     A
C608   C556    1.393   1_655 S
C609   Cl942   1.764   .     S
C610   H626    1.084   .     S
C611   H627    1.084   .     S
C611   C555    1.393   1_655 S
C613   C396    1.353   1_565 S
C613   S432    1.790   1_565 S
C614   O642    1.296   .     A
C614   O644    1.291   .     A
C615   O643    1.296   .     A
C615   O645    1.291   .     A
C616   H621    1.085   .     S
Cl617  C932    1.764   .     S
Cu619  O645    1.957   .     S
Cu619  N632    2.015   .     S
Cu619  O641    1.956   .     S
Cu619  O633    1.968   .     S
Cu619  O642    1.967   .     S
Cu619  Cu620   2.682   .     S
Cu620  N631    2.015   .     S
Cu620  O644    1.957   .     S
Cu620  O640    1.956   .     S
Cu620  O639    1.968   .     S
Cu620  O643    1.967   .     S
H622   O638    0.991   .     S
H628   N955    1.029   .     S
H630   O635    0.991   .     S
N632   N955    1.293   .     S
N632   H953    1.029   .     S
O634   S647    1.504   .     D
O636   S432    1.504   1_565 S
O637   S648    1.503   .     D
O638   S648    1.682   .     S
O646   S647    1.503   .     D
S647   C396    1.788   1_565 S
S647   O419    1.683   1_565 S
C649   C666    1.422   .     S
C649   O694    1.287   .     A
C649   O687    1.282   .     A
C650   C652    1.399   .     A
C650   H677    1.085   .     S
C650   C661    1.389   .     A
C651   C669    1.454   .     S
C651   C670    1.399   .     A
C651   C653    1.399   .     A
C652   C654    1.399   .     A
C652   C668    1.454   .     S
C653   H678    1.082   .     S
C653   C655    1.398   .     A
C654   H679    1.082   .     S
C654   C656    1.398   .     A
C655   C657    1.418   .     A
C655   C662    1.411   .     A
C656   C663    1.411   .     A
C656   C658    1.418   .     A
C657   C659    1.410   .     A
C657   C712    1.402   .     S
C658   C661    1.410   .     A
C658   C711    1.402   1_455 S
C659   C665    1.400   .     A
C659   C670    1.389   .     A
C660   O695    1.287   .     A
C660   C667    1.422   .     S
C660   O693    1.282   .     A
C661   C664    1.400   .     A
C662   C718    1.393   .     S
C663   C719    1.393   1_455 S
C663   Cl24    1.764   1_556 S
C664   H680    1.084   .     S
C664   C716    1.393   1_455 S
C665   H681    1.084   .     S
C665   C717    1.393   .     S
C666   C883    1.353   1_545 S
C666   S917    1.788   1_545 S
C667   C774    1.353   .     S
C667   S810    1.790   .     S
C668   O696    1.296   .     A
C668   O698    1.291   .     A
C669   O697    1.296   .     A
C669   O699    1.291   .     A
C670   H675    1.085   .     S
Cl671  C14     1.764   1_556 S
Cu673  O699    1.957   .     S
Cu673  N686    2.015   .     S
Cu673  O695    1.956   .     S
Cu673  O687    1.968   .     S
Cu673  O696    1.967   .     S
Cu673  Cu674   2.682   .     S
Cu674  N685    2.015   .     S
Cu674  O698    1.957   .     S
Cu674  O694    1.956   .     S
Cu674  O693    1.968   .     S
Cu674  O697    1.967   .     S
H676   O692    0.991   .     S
H682   N37     1.029   1_556 S
H684   O689    0.991   .     S
N686   N37     1.293   1_556 S
N686   H35     1.029   1_556 S
O688   S701    1.504   .     D
O689   S917    1.683   1_545 S
O690   S810    1.504   .     S
O691   S702    1.503   .     D
O692   S702    1.682   .     S
O700   S701    1.503   .     D
S701   C774    1.788   .     S
S701   O797    1.683   .     S
S702   O906    1.504   1_545 S
S702   C883    1.790   1_545 S
C703   C720    1.422   .     S
C703   O748    1.287   .     A
C703   O741    1.282   .     A
C704   C706    1.399   .     A
C704   H731    1.085   .     S
C704   C715    1.389   .     A
C705   C723    1.454   .     S
C705   C724    1.399   .     A
C705   C707    1.399   .     A
C706   C708    1.399   .     A
C706   C722    1.454   .     S
C707   H732    1.082   .     S
C707   C709    1.398   .     A
C708   H733    1.082   .     S
C708   C710    1.398   .     A
C709   C711    1.418   .     A
C709   C716    1.411   .     A
C710   C717    1.411   .     A
C710   C712    1.418   .     A
C711   C713    1.410   .     A
C711   C658    1.402   1_655 S
C712   C715    1.410   .     A
C713   C719    1.400   .     A
C713   C724    1.389   .     A
C714   O749    1.287   .     A
C714   C721    1.422   .     S
C714   O747    1.282   .     A
C715   C718    1.400   .     A
C716   C664    1.393   1_655 S
C717   Cl78    1.764   1_556 S
C718   H734    1.084   .     S
C719   H735    1.084   .     S
C719   C663    1.393   1_655 S
C720   C937    1.353   1_545 S
C720   S971    1.788   1_545 S
C721   C828    1.353   .     S
C721   S864    1.790   .     S
C722   O750    1.296   .     A
C722   O752    1.291   .     A
C723   O751    1.296   .     A
C723   O753    1.291   .     A
C724   H729    1.085   .     S
Cl725  C68     1.764   1_556 S
Cu727  O753    1.957   .     S
Cu727  N740    2.015   .     S
Cu727  O749    1.956   .     S
Cu727  O741    1.968   .     S
Cu727  O750    1.967   .     S
Cu727  Cu728   2.682   .     S
Cu728  N739    2.015   .     S
Cu728  O752    1.957   .     S
Cu728  O748    1.956   .     S
Cu728  O747    1.968   .     S
Cu728  O751    1.967   .     S
H730   O746    0.991   .     S
H736   N91     1.029   1_556 S
H738   O743    0.991   .     S
N740   N91     1.293   1_556 S
N740   H89     1.029   1_556 S
O742   S755    1.504   .     D
O743   S971    1.683   1_545 S
O744   S864    1.504   .     S
O745   S756    1.503   .     D
O746   S756    1.682   .     S
O754   S755    1.503   .     D
S755   C828    1.788   .     S
S755   O851    1.683   .     S
S756   O960    1.504   1_545 S
S756   C937    1.790   1_545 S
C757   C774    1.422   .     S
C757   O802    1.287   .     A
C757   O795    1.282   .     A
C758   C760    1.399   .     A
C758   H785    1.085   .     S
C758   C769    1.389   .     A
C759   C777    1.454   .     S
C759   C778    1.399   .     A
C759   C761    1.399   .     A
C760   C762    1.399   .     A
C760   C776    1.454   .     S
C761   H786    1.082   .     S
C761   C763    1.398   .     A
C762   H787    1.082   .     S
C762   C764    1.398   .     A
C763   C765    1.418   .     A
C763   C770    1.411   .     A
C764   C771    1.411   .     A
C764   C766    1.418   .     A
C765   C767    1.410   .     A
C765   C820    1.402   .     S
C766   C769    1.410   .     A
C766   C819    1.402   1_455 S
C767   C773    1.400   .     A
C767   C778    1.389   .     A
C768   O803    1.287   .     A
C768   C775    1.422   .     S
C768   O801    1.282   .     A
C769   C772    1.400   .     A
C770   C826    1.393   .     S
C771   C827    1.393   1_455 S
C771   Cl132   1.764   1_556 S
C772   H788    1.084   .     S
C772   C824    1.393   1_455 S
C773   H789    1.084   .     S
C773   C825    1.393   .     S
C775   C882    1.353   .     S
C775   S918    1.790   .     S
C776   O804    1.296   .     A
C776   O806    1.291   .     A
C777   O805    1.296   .     A
C777   O807    1.291   .     A
C778   H783    1.085   .     S
Cl779  C122    1.764   1_556 S
Cu781  O807    1.957   .     S
Cu781  N794    2.015   .     S
Cu781  O803    1.956   .     S
Cu781  O795    1.968   .     S
Cu781  O804    1.967   .     S
Cu781  Cu782   2.682   .     S
Cu782  N793    2.015   .     S
Cu782  O806    1.957   .     S
Cu782  O802    1.956   .     S
Cu782  O801    1.968   .     S
Cu782  O805    1.967   .     S
H784   O800    0.991   .     S
H790   N145    1.029   1_556 S
H792   O797    0.991   .     S
N794   N145    1.293   1_556 S
N794   H143    1.029   1_556 S
O796   S809    1.504   .     D
O798   S918    1.504   .     S
O799   S810    1.503   .     D
O800   S810    1.682   .     S
O808   S809    1.503   .     D
S809   C882    1.788   .     S
S809   O905    1.683   .     S
C811   C828    1.422   .     S
C811   O856    1.287   .     A
C811   O849    1.282   .     A
C812   C814    1.399   .     A
C812   H839    1.085   .     S
C812   C823    1.389   .     A
C813   C831    1.454   .     S
C813   C832    1.399   .     A
C813   C815    1.399   .     A
C814   C816    1.399   .     A
C814   C830    1.454   .     S
C815   H840    1.082   .     S
C815   C817    1.398   .     A
C816   H841    1.082   .     S
C816   C818    1.398   .     A
C817   C819    1.418   .     A
C817   C824    1.411   .     A
C818   C825    1.411   .     A
C818   C820    1.418   .     A
C819   C821    1.410   .     A
C819   C766    1.402   1_655 S
C820   C823    1.410   .     A
C821   C827    1.400   .     A
C821   C832    1.389   .     A
C822   O857    1.287   .     A
C822   C829    1.422   .     S
C822   O855    1.282   .     A
C823   C826    1.400   .     A
C824   C772    1.393   1_655 S
C825   Cl186   1.764   1_556 S
C826   H842    1.084   .     S
C827   H843    1.084   .     S
C827   C771    1.393   1_655 S
C829   C936    1.353   .     S
C829   S972    1.790   .     S
C830   O858    1.296   .     A
C830   O860    1.291   .     A
C831   O859    1.296   .     A
C831   O861    1.291   .     A
C832   H837    1.085   .     S
Cl833  C176    1.764   1_556 S
Cu835  O861    1.957   .     S
Cu835  N848    2.015   .     S
Cu835  O857    1.956   .     S
Cu835  O849    1.968   .     S
Cu835  O858    1.967   .     S
Cu835  Cu836   2.682   .     S
Cu836  N847    2.015   .     S
Cu836  O860    1.957   .     S
Cu836  O856    1.956   .     S
Cu836  O855    1.968   .     S
Cu836  O859    1.967   .     S
H838   O854    0.991   .     S
H844   N199    1.029   1_556 S
H846   O851    0.991   .     S
N848   N199    1.293   1_556 S
N848   H197    1.029   1_556 S
O850   S863    1.504   .     D
O852   S972    1.504   .     S
O853   S864    1.503   .     D
O854   S864    1.682   .     S
O862   S863    1.503   .     D
S863   C936    1.788   .     S
S863   O959    1.683   .     S
C865   C882    1.422   .     S
C865   O910    1.287   .     A
C865   O903    1.282   .     A
C866   C868    1.399   .     A
C866   H893    1.085   .     S
C866   C877    1.389   .     A
C867   C885    1.454   .     S
C867   C886    1.399   .     A
C867   C869    1.399   .     A
C868   C870    1.399   .     A
C868   C884    1.454   .     S
C869   H894    1.082   .     S
C869   C871    1.398   .     A
C870   H895    1.082   .     S
C870   C872    1.398   .     A
C871   C873    1.418   .     A
C871   C878    1.411   .     A
C872   C879    1.411   .     A
C872   C874    1.418   .     A
C873   C875    1.410   .     A
C873   C928    1.402   .     S
C874   C877    1.410   .     A
C874   C927    1.402   1_455 S
C875   C881    1.400   .     A
C875   C886    1.389   .     A
C876   O911    1.287   .     A
C876   C883    1.422   .     S
C876   O909    1.282   .     A
C877   C880    1.400   .     A
C878   C934    1.393   .     S
C879   C935    1.393   1_455 S
C879   Cl240   1.764   1_556 S
C880   H896    1.084   .     S
C880   C932    1.393   1_455 S
C881   H897    1.084   .     S
C881   C933    1.393   .     S
C883   C666    1.353   1_565 S
C883   S702    1.790   1_565 S
C884   O912    1.296   .     A
C884   O914    1.291   .     A
C885   O913    1.296   .     A
C885   O915    1.291   .     A
C886   H891    1.085   .     S
Cl887  C230    1.764   1_556 S
Cu889  O915    1.957   .     S
Cu889  N902    2.015   .     S
Cu889  O911    1.956   .     S
Cu889  O903    1.968   .     S
Cu889  O912    1.967   .     S
Cu889  Cu890   2.682   .     S
Cu890  N901    2.015   .     S
Cu890  O914    1.957   .     S
Cu890  O910    1.956   .     S
Cu890  O909    1.968   .     S
Cu890  O913    1.967   .     S
H892   O908    0.991   .     S
H898   N253    1.029   1_556 S
H900   O905    0.991   .     S
N902   N253    1.293   1_556 S
N902   H251    1.029   1_556 S
O904   S917    1.504   .     D
O906   S702    1.504   1_565 S
O907   S918    1.503   .     D
O908   S918    1.682   .     S
O916   S917    1.503   .     D
S917   C666    1.788   1_565 S
S917   O689    1.683   1_565 S
C919   C936    1.422   .     S
C919   O964    1.287   .     A
C919   O957    1.282   .     A
C920   C922    1.399   .     A
C920   H947    1.085   .     S
C920   C931    1.389   .     A
C921   C939    1.454   .     S
C921   C940    1.399   .     A
C921   C923    1.399   .     A
C922   C924    1.399   .     A
C922   C938    1.454   .     S
C923   H948    1.082   .     S
C923   C925    1.398   .     A
C924   H949    1.082   .     S
C924   C926    1.398   .     A
C925   C927    1.418   .     A
C925   C932    1.411   .     A
C926   C933    1.411   .     A
C926   C928    1.418   .     A
C927   C929    1.410   .     A
C927   C874    1.402   1_655 S
C928   C931    1.410   .     A
C929   C935    1.400   .     A
C929   C940    1.389   .     A
C930   O965    1.287   .     A
C930   C937    1.422   .     S
C930   O963    1.282   .     A
C931   C934    1.400   .     A
C932   C880    1.393   1_655 S
C933   Cl294   1.764   1_556 S
C934   H950    1.084   .     S
C935   H951    1.084   .     S
C935   C879    1.393   1_655 S
C937   C720    1.353   1_565 S
C937   S756    1.790   1_565 S
C938   O966    1.296   .     A
C938   O968    1.291   .     A
C939   O967    1.296   .     A
C939   O969    1.291   .     A
C940   H945    1.085   .     S
Cl941  C284    1.764   1_556 S
Cu943  O969    1.957   .     S
Cu943  N956    2.015   .     S
Cu943  O965    1.956   .     S
Cu943  O957    1.968   .     S
Cu943  O966    1.967   .     S
Cu943  Cu944   2.682   .     S
Cu944  N955    2.015   .     S
Cu944  O968    1.957   .     S
Cu944  O964    1.956   .     S
Cu944  O963    1.968   .     S
Cu944  O967    1.967   .     S
H946   O962    0.991   .     S
H952   N307    1.029   1_556 S
H954   O959    0.991   .     S
N956   N307    1.293   1_556 S
N956   H305    1.029   1_556 S
O958   S971    1.504   .     D
O960   S756    1.504   1_565 S
O961   S972    1.503   .     D
O962   S972    1.682   .     S
O970   S971    1.503   .     D
S971   C720    1.788   1_565 S
S971   O743    1.683   1_565 S
