data_str_m3_o2_o10_pcu_sym.71
_audit_creation_date              2020-01-03
_audit_creation_method            'Materials Studio'
_symmetry_space_group_name_H-M    'P1'
_symmetry_Int_Tables_number       1
_symmetry_cell_setting            triclinic
loop_
_symmetry_equiv_pos_as_xyz
  x,y,z
_cell_length_a                    25.7231
_cell_length_b                    29.9847
_cell_length_c                    28.7451
_cell_angle_alpha                 90.0865
_cell_angle_beta                  98.6352
_cell_angle_gamma                 93.2496
loop_
_atom_site_label
_atom_site_type_symbol
_atom_site_fract_x
_atom_site_fract_y
_atom_site_fract_z
_atom_site_U_iso_or_equiv
_atom_site_adp_type
_atom_site_occupancy
C1     C     0.16683   0.16402   0.24999   0.00000  Uiso   1.00
C2     C     0.14253   0.21471   0.44427   0.00000  Uiso   1.00
C3     C     0.17186   0.24657   0.02712   0.00000  Uiso   1.00
C4     C     0.17188   0.24697   0.47412   0.00000  Uiso   1.00
C5     C     0.06718   0.25020   0.23760   0.00000  Uiso   1.00
C6     C     0.26620   0.25121   0.26230   0.00000  Uiso   1.00
C7     C     0.01197   0.24967   0.23089   0.00000  Uiso   1.00
C8     C     0.32143   0.25473   0.26837   0.00000  Uiso   1.00
C9     C     0.15221   0.04605   0.28768   0.00000  Uiso   1.00
C10    C     0.14536   0.45184   0.20956   0.00000  Uiso   1.00
C11    C     0.15186   0.09206   0.28777   0.00000  Uiso   1.00
C12    C     0.16678   0.33593   0.25003   0.00000  Uiso   1.00
C13    C     0.14467   0.40576   0.20968   0.00000  Uiso   1.00
C14    C     0.16749   0.11603   0.24999   0.00000  Uiso   1.00
C15    C     0.16708   0.38384   0.25006   0.00000  Uiso   1.00
C16    C     0.18395   0.09389   0.21230   0.00000  Uiso   1.00
C17    C     0.19003   0.40790   0.29036   0.00000  Uiso   1.00
C18    C     0.18450   0.04786   0.21232   0.00000  Uiso   1.00
C19    C     0.19090   0.45397   0.29019   0.00000  Uiso   1.00
C20    C     0.16852   0.02399   0.24997   0.00000  Uiso   1.00
C21    C     0.16849   0.47590   0.24982   0.00000  Uiso   1.00
C22    C     0.07705   0.20568   0.10883   0.00000  Uiso   1.00
C23    C     0.13054   0.22515   0.04638   0.00000  Uiso   1.00
C24    C     0.08325   0.16106   0.13412   0.00000  Uiso   1.00
C25    C     0.23863   0.31273   0.38509   0.00000  Uiso   1.00
C26    C     0.29530   0.30334   0.40539   0.00000  Uiso   1.00
C27    C     0.23998   0.31164   0.13394   0.00000  Uiso   1.00
C28    C     0.21973   0.35836   0.12248   0.00000  Uiso   1.00
C29    C     0.23328   0.37709   0.07607   0.00000  Uiso   1.00
C30    C     0.09601   0.18613   0.36712   0.00000  Uiso   1.00
C31    C     0.03913   0.19644   0.37225   0.00000  Uiso   1.00
C32    C     0.01886   0.17440   0.41450   0.00000  Uiso   1.00
C33    C     0.19940   0.28037   0.45217   0.00000  Uiso   1.00
C34    C     0.12785   0.22651   0.09515   0.00000  Uiso   1.00
C35    C     0.19968   0.27987   0.40296   0.00000  Uiso   1.00
C36    C     0.20517   0.27488   0.10696   0.00000  Uiso   1.00
C37    C     0.13656   0.21839   0.39480   0.00000  Uiso   1.00
C38    C     0.21016   0.27042   0.05880   0.00000  Uiso   1.00
H39    H     0.32442   0.24375   0.19541   0.00000  Uiso   1.00
H40    H     0.20933   0.47251   0.32129   0.00000  Uiso   1.00
H41    H     0.09843   0.20848   0.02313   0.00000  Uiso   1.00
H42    H     0.22201   0.30681   0.47301   0.00000  Uiso   1.00
H43    H     0.24334   0.28754   0.04618   0.00000  Uiso   1.00
H44    H     0.12355   0.18625   0.45909   0.00000  Uiso   1.00
H45    H     0.12224   0.14773   0.13206   0.00000  Uiso   1.00
H46    H     0.07710   0.16469   0.17124   0.00000  Uiso   1.00
H47    H     0.05266   0.13587   0.11757   0.00000  Uiso   1.00
H48    H     0.05642   0.22983   0.12711   0.00000  Uiso   1.00
H49    H     0.04763   0.19869   0.07676   0.00000  Uiso   1.00
H50    H     0.00905   0.26199   0.30337   0.00000  Uiso   1.00
H51    H     0.30175   0.26748   0.40072   0.00000  Uiso   1.00
H52    H     0.32315   0.32364   0.38685   0.00000  Uiso   1.00
H53    H     0.30380   0.31202   0.44343   0.00000  Uiso   1.00
H54    H     0.23628   0.31166   0.34699   0.00000  Uiso   1.00
H55    H     0.23053   0.34721   0.39498   0.00000  Uiso   1.00
H56    H     0.27552   0.37353   0.07358   0.00000  Uiso   1.00
H57    H     0.20828   0.36003   0.04570   0.00000  Uiso   1.00
H58    H     0.22549   0.41314   0.07415   0.00000  Uiso   1.00
H59    H     0.17639   0.35763   0.12178   0.00000  Uiso   1.00
H60    H     0.23794   0.38182   0.15114   0.00000  Uiso   1.00
H61    H     0.13922   0.02764   0.31665   0.00000  Uiso   1.00
H62    H     0.24182   0.30815   0.17179   0.00000  Uiso   1.00
H63    H     0.28126   0.30997   0.12713   0.00000  Uiso   1.00
H64    H     0.02881   0.13885   0.41732   0.00000  Uiso   1.00
H65    H     0.03510   0.19265   0.44751   0.00000  Uiso   1.00
H66    H     0.30866   0.17570   0.41013   0.00000  Uiso   1.00
H67    H     0.03617   0.23308   0.37469   0.00000  Uiso   1.00
H68    H     0.01261   0.18415   0.34008   0.00000  Uiso   1.00
H69    H     0.09808   0.18763   0.32959   0.00000  Uiso   1.00
H70    H     0.10406   0.15128   0.37779   0.00000  Uiso   1.00
H71    H     0.12725   0.46868   0.17846   0.00000  Uiso   1.00
H72    H     0.13883   0.10873   0.31700   0.00000  Uiso   1.00
H73    H     0.12593   0.38731   0.17867   0.00000  Uiso   1.00
H74    H     0.19693   0.11210   0.18321   0.00000  Uiso   1.00
H75    H     0.20786   0.39119   0.32159   0.00000  Uiso   1.00
H76    H     0.19778   0.03091   0.18332   0.00000  Uiso   1.00
N77    N     0.16667   0.24999   0.12624   0.00000  Uiso   1.00
N78    N     0.16667   0.25001   0.37377   0.00000  Uiso   1.00
O79    O     0.16667   0.18454   0.28974   0.00000  Uiso   1.00
O80    O     0.16666   0.31547   0.21026   0.00000  Uiso   1.00
O81    O     0.16667   0.18453   0.21026   0.00000  Uiso   1.00
O82    O     0.16666   0.31547   0.28974   0.00000  Uiso   1.00
O83    O     0.09058   0.25000   0.28045   0.00000  Uiso   1.00
O84    O     0.24275   0.25000   0.21956   0.00000  Uiso   1.00
O85    O     0.09058   0.25000   0.20097   0.00000  Uiso   1.00
O86    O     0.24275   0.25001   0.29904   0.00000  Uiso   1.00
Zn87   Zn    0.16667   0.25001   0.30307   0.00000  Uiso   1.00
Zn88   Zn    0.16667   0.25000   0.19693   0.00000  Uiso   1.00
C89    C     0.50016   0.16402   0.24999   0.00000  Uiso   1.00
C90    C     0.47586   0.21471   0.44427   0.00000  Uiso   1.00
C91    C     0.50520   0.24657   0.02712   0.00000  Uiso   1.00
C92    C     0.50521   0.24697   0.47412   0.00000  Uiso   1.00
C93    C     0.40051   0.25020   0.23760   0.00000  Uiso   1.00
C94    C     0.59953   0.25121   0.26230   0.00000  Uiso   1.00
C95    C     0.34530   0.24967   0.23089   0.00000  Uiso   1.00
C96    C     0.65476   0.25473   0.26837   0.00000  Uiso   1.00
C97    C     0.48555   0.04605   0.28768   0.00000  Uiso   1.00
C98    C     0.47869   0.45184   0.20956   0.00000  Uiso   1.00
C99    C     0.48519   0.09206   0.28777   0.00000  Uiso   1.00
C100   C     0.50011   0.33593   0.25003   0.00000  Uiso   1.00
C101   C     0.47800   0.40576   0.20968   0.00000  Uiso   1.00
C102   C     0.50083   0.11603   0.24999   0.00000  Uiso   1.00
C103   C     0.50041   0.38384   0.25006   0.00000  Uiso   1.00
C104   C     0.51728   0.09389   0.21230   0.00000  Uiso   1.00
C105   C     0.52336   0.40790   0.29036   0.00000  Uiso   1.00
C106   C     0.51784   0.04786   0.21232   0.00000  Uiso   1.00
C107   C     0.52424   0.45397   0.29019   0.00000  Uiso   1.00
C108   C     0.50185   0.02399   0.24997   0.00000  Uiso   1.00
C109   C     0.50182   0.47590   0.24982   0.00000  Uiso   1.00
C110   C     0.41039   0.20568   0.10883   0.00000  Uiso   1.00
C111   C     0.46387   0.22515   0.04638   0.00000  Uiso   1.00
C112   C     0.41659   0.16106   0.13412   0.00000  Uiso   1.00
C113   C     0.57196   0.31273   0.38509   0.00000  Uiso   1.00
C114   C     0.62863   0.30334   0.40539   0.00000  Uiso   1.00
C115   C     0.57331   0.31164   0.13394   0.00000  Uiso   1.00
C116   C     0.55307   0.35836   0.12248   0.00000  Uiso   1.00
C117   C     0.56662   0.37709   0.07607   0.00000  Uiso   1.00
C118   C     0.42934   0.18613   0.36712   0.00000  Uiso   1.00
C119   C     0.37246   0.19644   0.37225   0.00000  Uiso   1.00
C120   C     0.35219   0.17440   0.41450   0.00000  Uiso   1.00
C121   C     0.53273   0.28037   0.45217   0.00000  Uiso   1.00
C122   C     0.46119   0.22651   0.09515   0.00000  Uiso   1.00
C123   C     0.53301   0.27987   0.40296   0.00000  Uiso   1.00
C124   C     0.53850   0.27488   0.10696   0.00000  Uiso   1.00
C125   C     0.46990   0.21839   0.39480   0.00000  Uiso   1.00
C126   C     0.54349   0.27042   0.05880   0.00000  Uiso   1.00
H127   H     0.65776   0.24375   0.19541   0.00000  Uiso   1.00
H128   H     0.54267   0.47251   0.32129   0.00000  Uiso   1.00
H129   H     0.43177   0.20848   0.02313   0.00000  Uiso   1.00
H130   H     0.55535   0.30681   0.47301   0.00000  Uiso   1.00
H131   H     0.57668   0.28754   0.04618   0.00000  Uiso   1.00
H132   H     0.45688   0.18625   0.45909   0.00000  Uiso   1.00
H133   H     0.45558   0.14773   0.13206   0.00000  Uiso   1.00
H134   H     0.41044   0.16469   0.17124   0.00000  Uiso   1.00
H135   H     0.38600   0.13587   0.11757   0.00000  Uiso   1.00
H136   H     0.38975   0.22983   0.12711   0.00000  Uiso   1.00
H137   H     0.38096   0.19869   0.07676   0.00000  Uiso   1.00
H138   H     0.34238   0.26199   0.30337   0.00000  Uiso   1.00
H139   H     0.63509   0.26748   0.40072   0.00000  Uiso   1.00
H140   H     0.65648   0.32364   0.38685   0.00000  Uiso   1.00
H141   H     0.63713   0.31202   0.44343   0.00000  Uiso   1.00
H142   H     0.56962   0.31166   0.34699   0.00000  Uiso   1.00
H143   H     0.56386   0.34721   0.39498   0.00000  Uiso   1.00
H144   H     0.60885   0.37353   0.07358   0.00000  Uiso   1.00
H145   H     0.54162   0.36003   0.04570   0.00000  Uiso   1.00
H146   H     0.55882   0.41314   0.07415   0.00000  Uiso   1.00
H147   H     0.50972   0.35763   0.12178   0.00000  Uiso   1.00
H148   H     0.57128   0.38182   0.15114   0.00000  Uiso   1.00
H149   H     0.47255   0.02764   0.31665   0.00000  Uiso   1.00
H150   H     0.57516   0.30815   0.17179   0.00000  Uiso   1.00
H151   H     0.61460   0.30997   0.12713   0.00000  Uiso   1.00
H152   H     0.36214   0.13885   0.41732   0.00000  Uiso   1.00
H153   H     0.36843   0.19265   0.44751   0.00000  Uiso   1.00
H154   H     0.64199   0.17570   0.41013   0.00000  Uiso   1.00
H155   H     0.36950   0.23308   0.37469   0.00000  Uiso   1.00
H156   H     0.34594   0.18415   0.34008   0.00000  Uiso   1.00
H157   H     0.43142   0.18763   0.32959   0.00000  Uiso   1.00
H158   H     0.43739   0.15128   0.37779   0.00000  Uiso   1.00
H159   H     0.46058   0.46868   0.17846   0.00000  Uiso   1.00
H160   H     0.47217   0.10873   0.31700   0.00000  Uiso   1.00
H161   H     0.45926   0.38731   0.17867   0.00000  Uiso   1.00
H162   H     0.53026   0.11210   0.18321   0.00000  Uiso   1.00
H163   H     0.54119   0.39119   0.32159   0.00000  Uiso   1.00
H164   H     0.53111   0.03091   0.18332   0.00000  Uiso   1.00
N165   N     0.50000   0.24999   0.12624   0.00000  Uiso   1.00
N166   N     0.50000   0.25001   0.37377   0.00000  Uiso   1.00
O167   O     0.50000   0.18454   0.28974   0.00000  Uiso   1.00
O168   O     0.50000   0.31547   0.21026   0.00000  Uiso   1.00
O169   O     0.50000   0.18453   0.21026   0.00000  Uiso   1.00
O170   O     0.50000   0.31547   0.28974   0.00000  Uiso   1.00
O171   O     0.42392   0.25000   0.28045   0.00000  Uiso   1.00
O172   O     0.57608   0.25000   0.21956   0.00000  Uiso   1.00
O173   O     0.42392   0.25000   0.20097   0.00000  Uiso   1.00
O174   O     0.57608   0.25001   0.29904   0.00000  Uiso   1.00
Zn175  Zn    0.50000   0.25001   0.30307   0.00000  Uiso   1.00
Zn176  Zn    0.50000   0.25000   0.19693   0.00000  Uiso   1.00
C177   C     0.83349   0.16402   0.24999   0.00000  Uiso   1.00
C178   C     0.80920   0.21471   0.44427   0.00000  Uiso   1.00
C179   C     0.83853   0.24657   0.02712   0.00000  Uiso   1.00
C180   C     0.83854   0.24697   0.47412   0.00000  Uiso   1.00
C181   C     0.73384   0.25020   0.23760   0.00000  Uiso   1.00
C182   C     0.93286   0.25121   0.26230   0.00000  Uiso   1.00
C183   C     0.67863   0.24967   0.23089   0.00000  Uiso   1.00
C184   C     0.98810   0.25473   0.26837   0.00000  Uiso   1.00
C185   C     0.81888   0.04605   0.28768   0.00000  Uiso   1.00
C186   C     0.81203   0.45184   0.20956   0.00000  Uiso   1.00
C187   C     0.81853   0.09206   0.28777   0.00000  Uiso   1.00
C188   C     0.83344   0.33593   0.25003   0.00000  Uiso   1.00
C189   C     0.81133   0.40576   0.20968   0.00000  Uiso   1.00
C190   C     0.83416   0.11603   0.24999   0.00000  Uiso   1.00
C191   C     0.83375   0.38384   0.25006   0.00000  Uiso   1.00
C192   C     0.85062   0.09389   0.21230   0.00000  Uiso   1.00
C193   C     0.85670   0.40790   0.29036   0.00000  Uiso   1.00
C194   C     0.85117   0.04786   0.21232   0.00000  Uiso   1.00
C195   C     0.85757   0.45397   0.29019   0.00000  Uiso   1.00
C196   C     0.83519   0.02399   0.24997   0.00000  Uiso   1.00
C197   C     0.83516   0.47590   0.24982   0.00000  Uiso   1.00
C198   C     0.74372   0.20568   0.10883   0.00000  Uiso   1.00
C199   C     0.79720   0.22515   0.04638   0.00000  Uiso   1.00
C200   C     0.74992   0.16106   0.13412   0.00000  Uiso   1.00
C201   C     0.90530   0.31273   0.38509   0.00000  Uiso   1.00
C202   C     0.96197   0.30334   0.40539   0.00000  Uiso   1.00
C203   C     0.90665   0.31164   0.13394   0.00000  Uiso   1.00
C204   C     0.88640   0.35836   0.12248   0.00000  Uiso   1.00
C205   C     0.89995   0.37709   0.07607   0.00000  Uiso   1.00
C206   C     0.76267   0.18613   0.36712   0.00000  Uiso   1.00
C207   C     0.70580   0.19644   0.37225   0.00000  Uiso   1.00
C208   C     0.68552   0.17440   0.41450   0.00000  Uiso   1.00
C209   C     0.86607   0.28037   0.45217   0.00000  Uiso   1.00
C210   C     0.79452   0.22651   0.09515   0.00000  Uiso   1.00
C211   C     0.86635   0.27987   0.40296   0.00000  Uiso   1.00
C212   C     0.87183   0.27488   0.10696   0.00000  Uiso   1.00
C213   C     0.80323   0.21839   0.39480   0.00000  Uiso   1.00
C214   C     0.87683   0.27042   0.05880   0.00000  Uiso   1.00
H215   H     0.99109   0.24375   0.19541   0.00000  Uiso   1.00
H216   H     0.87600   0.47251   0.32129   0.00000  Uiso   1.00
H217   H     0.76510   0.20848   0.02313   0.00000  Uiso   1.00
H218   H     0.88868   0.30681   0.47301   0.00000  Uiso   1.00
H219   H     0.91001   0.28754   0.04618   0.00000  Uiso   1.00
H220   H     0.79021   0.18625   0.45909   0.00000  Uiso   1.00
H221   H     0.78891   0.14773   0.13206   0.00000  Uiso   1.00
H222   H     0.74377   0.16469   0.17124   0.00000  Uiso   1.00
H223   H     0.71933   0.13587   0.11757   0.00000  Uiso   1.00
H224   H     0.72309   0.22983   0.12711   0.00000  Uiso   1.00
H225   H     0.71430   0.19869   0.07676   0.00000  Uiso   1.00
H226   H     0.67571   0.26199   0.30337   0.00000  Uiso   1.00
H227   H     0.96842   0.26748   0.40072   0.00000  Uiso   1.00
H228   H     0.98981   0.32364   0.38685   0.00000  Uiso   1.00
H229   H     0.97046   0.31202   0.44343   0.00000  Uiso   1.00
H230   H     0.90295   0.31166   0.34699   0.00000  Uiso   1.00
H231   H     0.89719   0.34721   0.39498   0.00000  Uiso   1.00
H232   H     0.94219   0.37353   0.07358   0.00000  Uiso   1.00
H233   H     0.87495   0.36003   0.04570   0.00000  Uiso   1.00
H234   H     0.89216   0.41314   0.07415   0.00000  Uiso   1.00
H235   H     0.84306   0.35763   0.12178   0.00000  Uiso   1.00
H236   H     0.90461   0.38182   0.15114   0.00000  Uiso   1.00
H237   H     0.80588   0.02764   0.31665   0.00000  Uiso   1.00
H238   H     0.90849   0.30815   0.17179   0.00000  Uiso   1.00
H239   H     0.94793   0.30997   0.12713   0.00000  Uiso   1.00
H240   H     0.69547   0.13885   0.41732   0.00000  Uiso   1.00
H241   H     0.70177   0.19265   0.44751   0.00000  Uiso   1.00
H242   H     0.97532   0.17570   0.41013   0.00000  Uiso   1.00
H243   H     0.70284   0.23308   0.37469   0.00000  Uiso   1.00
H244   H     0.67927   0.18415   0.34008   0.00000  Uiso   1.00
H245   H     0.76475   0.18763   0.32959   0.00000  Uiso   1.00
H246   H     0.77072   0.15128   0.37779   0.00000  Uiso   1.00
H247   H     0.79391   0.46868   0.17846   0.00000  Uiso   1.00
H248   H     0.80550   0.10873   0.31700   0.00000  Uiso   1.00
H249   H     0.79259   0.38731   0.17867   0.00000  Uiso   1.00
H250   H     0.86359   0.11210   0.18321   0.00000  Uiso   1.00
H251   H     0.87453   0.39119   0.32159   0.00000  Uiso   1.00
H252   H     0.86445   0.03091   0.18332   0.00000  Uiso   1.00
N253   N     0.83333   0.24999   0.12624   0.00000  Uiso   1.00
N254   N     0.83333   0.25001   0.37377   0.00000  Uiso   1.00
O255   O     0.83334   0.18454   0.28974   0.00000  Uiso   1.00
O256   O     0.83333   0.31547   0.21026   0.00000  Uiso   1.00
O257   O     0.83334   0.18453   0.21026   0.00000  Uiso   1.00
O258   O     0.83333   0.31547   0.28974   0.00000  Uiso   1.00
O259   O     0.75725   0.25000   0.28045   0.00000  Uiso   1.00
O260   O     0.90942   0.25000   0.21956   0.00000  Uiso   1.00
O261   O     0.75725   0.25000   0.20097   0.00000  Uiso   1.00
O262   O     0.90942   0.25001   0.29904   0.00000  Uiso   1.00
Zn263  Zn    0.83333   0.25001   0.30307   0.00000  Uiso   1.00
Zn264  Zn    0.83333   0.25000   0.19693   0.00000  Uiso   1.00
C265   C     0.16683   0.66402   0.24999   0.00000  Uiso   1.00
C266   C     0.14253   0.71471   0.44427   0.00000  Uiso   1.00
C267   C     0.17186   0.74657   0.02712   0.00000  Uiso   1.00
C268   C     0.17188   0.74697   0.47412   0.00000  Uiso   1.00
C269   C     0.06718   0.75020   0.23760   0.00000  Uiso   1.00
C270   C     0.26620   0.75121   0.26230   0.00000  Uiso   1.00
C271   C     0.01197   0.74967   0.23089   0.00000  Uiso   1.00
C272   C     0.32143   0.75473   0.26837   0.00000  Uiso   1.00
C273   C     0.15221   0.54605   0.28768   0.00000  Uiso   1.00
C274   C     0.14536   0.95184   0.20956   0.00000  Uiso   1.00
C275   C     0.15186   0.59206   0.28777   0.00000  Uiso   1.00
C276   C     0.16678   0.83593   0.25003   0.00000  Uiso   1.00
C277   C     0.14467   0.90576   0.20968   0.00000  Uiso   1.00
C278   C     0.16749   0.61603   0.24999   0.00000  Uiso   1.00
C279   C     0.16708   0.88384   0.25006   0.00000  Uiso   1.00
C280   C     0.18395   0.59389   0.21230   0.00000  Uiso   1.00
C281   C     0.19003   0.90790   0.29036   0.00000  Uiso   1.00
C282   C     0.18450   0.54786   0.21232   0.00000  Uiso   1.00
C283   C     0.19090   0.95397   0.29019   0.00000  Uiso   1.00
C284   C     0.16852   0.52399   0.24997   0.00000  Uiso   1.00
C285   C     0.16849   0.97590   0.24982   0.00000  Uiso   1.00
C286   C     0.07705   0.70568   0.10883   0.00000  Uiso   1.00
C287   C     0.13054   0.72515   0.04638   0.00000  Uiso   1.00
C288   C     0.08325   0.66106   0.13412   0.00000  Uiso   1.00
C289   C     0.23863   0.81273   0.38509   0.00000  Uiso   1.00
C290   C     0.29530   0.80334   0.40539   0.00000  Uiso   1.00
C291   C     0.23998   0.81164   0.13394   0.00000  Uiso   1.00
C292   C     0.21973   0.85836   0.12248   0.00000  Uiso   1.00
C293   C     0.23328   0.87709   0.07607   0.00000  Uiso   1.00
C294   C     0.09601   0.68613   0.36712   0.00000  Uiso   1.00
C295   C     0.03913   0.69644   0.37225   0.00000  Uiso   1.00
C296   C     0.01886   0.67440   0.41450   0.00000  Uiso   1.00
C297   C     0.19940   0.78037   0.45217   0.00000  Uiso   1.00
C298   C     0.12785   0.72651   0.09515   0.00000  Uiso   1.00
C299   C     0.19968   0.77987   0.40296   0.00000  Uiso   1.00
C300   C     0.20517   0.77488   0.10696   0.00000  Uiso   1.00
C301   C     0.13656   0.71839   0.39480   0.00000  Uiso   1.00
C302   C     0.21016   0.77042   0.05880   0.00000  Uiso   1.00
H303   H     0.32442   0.74375   0.19541   0.00000  Uiso   1.00
H304   H     0.20933   0.97251   0.32129   0.00000  Uiso   1.00
H305   H     0.09843   0.70848   0.02313   0.00000  Uiso   1.00
H306   H     0.22201   0.80681   0.47301   0.00000  Uiso   1.00
H307   H     0.24334   0.78754   0.04618   0.00000  Uiso   1.00
H308   H     0.12355   0.68625   0.45909   0.00000  Uiso   1.00
H309   H     0.12224   0.64773   0.13206   0.00000  Uiso   1.00
H310   H     0.07710   0.66469   0.17124   0.00000  Uiso   1.00
H311   H     0.05266   0.63587   0.11757   0.00000  Uiso   1.00
H312   H     0.05642   0.72983   0.12711   0.00000  Uiso   1.00
H313   H     0.04763   0.69869   0.07676   0.00000  Uiso   1.00
H314   H     0.00905   0.76199   0.30337   0.00000  Uiso   1.00
H315   H     0.30175   0.76748   0.40072   0.00000  Uiso   1.00
H316   H     0.32315   0.82364   0.38685   0.00000  Uiso   1.00
H317   H     0.30380   0.81202   0.44343   0.00000  Uiso   1.00
H318   H     0.23628   0.81166   0.34699   0.00000  Uiso   1.00
H319   H     0.23053   0.84721   0.39498   0.00000  Uiso   1.00
H320   H     0.27552   0.87353   0.07358   0.00000  Uiso   1.00
H321   H     0.20828   0.86003   0.04570   0.00000  Uiso   1.00
H322   H     0.22549   0.91314   0.07415   0.00000  Uiso   1.00
H323   H     0.17639   0.85763   0.12178   0.00000  Uiso   1.00
H324   H     0.23794   0.88182   0.15114   0.00000  Uiso   1.00
H325   H     0.13922   0.52764   0.31665   0.00000  Uiso   1.00
H326   H     0.24182   0.80815   0.17179   0.00000  Uiso   1.00
H327   H     0.28126   0.80997   0.12713   0.00000  Uiso   1.00
H328   H     0.02881   0.63885   0.41732   0.00000  Uiso   1.00
H329   H     0.03510   0.69265   0.44751   0.00000  Uiso   1.00
H330   H     0.30866   0.67570   0.41013   0.00000  Uiso   1.00
H331   H     0.03617   0.73308   0.37469   0.00000  Uiso   1.00
H332   H     0.01261   0.68415   0.34008   0.00000  Uiso   1.00
H333   H     0.09808   0.68763   0.32959   0.00000  Uiso   1.00
H334   H     0.10406   0.65128   0.37779   0.00000  Uiso   1.00
H335   H     0.12725   0.96868   0.17846   0.00000  Uiso   1.00
H336   H     0.13883   0.60873   0.31700   0.00000  Uiso   1.00
H337   H     0.12593   0.88731   0.17867   0.00000  Uiso   1.00
H338   H     0.19693   0.61210   0.18321   0.00000  Uiso   1.00
H339   H     0.20786   0.89119   0.32159   0.00000  Uiso   1.00
H340   H     0.19778   0.53091   0.18332   0.00000  Uiso   1.00
N341   N     0.16667   0.74999   0.12624   0.00000  Uiso   1.00
N342   N     0.16667   0.75001   0.37377   0.00000  Uiso   1.00
O343   O     0.16667   0.68454   0.28974   0.00000  Uiso   1.00
O344   O     0.16666   0.81547   0.21026   0.00000  Uiso   1.00
O345   O     0.16667   0.68453   0.21026   0.00000  Uiso   1.00
O346   O     0.16666   0.81547   0.28974   0.00000  Uiso   1.00
O347   O     0.09058   0.75000   0.28045   0.00000  Uiso   1.00
O348   O     0.24275   0.75000   0.21956   0.00000  Uiso   1.00
O349   O     0.09058   0.75000   0.20097   0.00000  Uiso   1.00
O350   O     0.24275   0.75001   0.29904   0.00000  Uiso   1.00
Zn351  Zn    0.16667   0.75001   0.30307   0.00000  Uiso   1.00
Zn352  Zn    0.16667   0.75000   0.19693   0.00000  Uiso   1.00
C353   C     0.50016   0.66402   0.24999   0.00000  Uiso   1.00
C354   C     0.47586   0.71471   0.44427   0.00000  Uiso   1.00
C355   C     0.50520   0.74657   0.02712   0.00000  Uiso   1.00
C356   C     0.50521   0.74697   0.47412   0.00000  Uiso   1.00
C357   C     0.40051   0.75020   0.23760   0.00000  Uiso   1.00
C358   C     0.59953   0.75121   0.26230   0.00000  Uiso   1.00
C359   C     0.34530   0.74967   0.23089   0.00000  Uiso   1.00
C360   C     0.65476   0.75473   0.26837   0.00000  Uiso   1.00
C361   C     0.48555   0.54605   0.28768   0.00000  Uiso   1.00
C362   C     0.47869   0.95184   0.20956   0.00000  Uiso   1.00
C363   C     0.48519   0.59206   0.28777   0.00000  Uiso   1.00
C364   C     0.50011   0.83593   0.25003   0.00000  Uiso   1.00
C365   C     0.47800   0.90576   0.20968   0.00000  Uiso   1.00
C366   C     0.50083   0.61603   0.24999   0.00000  Uiso   1.00
C367   C     0.50041   0.88384   0.25006   0.00000  Uiso   1.00
C368   C     0.51728   0.59389   0.21230   0.00000  Uiso   1.00
C369   C     0.52336   0.90790   0.29036   0.00000  Uiso   1.00
C370   C     0.51784   0.54786   0.21232   0.00000  Uiso   1.00
C371   C     0.52424   0.95397   0.29019   0.00000  Uiso   1.00
C372   C     0.50185   0.52399   0.24997   0.00000  Uiso   1.00
C373   C     0.50182   0.97590   0.24982   0.00000  Uiso   1.00
C374   C     0.41039   0.70568   0.10883   0.00000  Uiso   1.00
C375   C     0.46387   0.72515   0.04638   0.00000  Uiso   1.00
C376   C     0.41659   0.66106   0.13412   0.00000  Uiso   1.00
C377   C     0.57196   0.81273   0.38509   0.00000  Uiso   1.00
C378   C     0.62863   0.80334   0.40539   0.00000  Uiso   1.00
C379   C     0.57331   0.81164   0.13394   0.00000  Uiso   1.00
C380   C     0.55307   0.85836   0.12248   0.00000  Uiso   1.00
C381   C     0.56662   0.87709   0.07607   0.00000  Uiso   1.00
C382   C     0.42934   0.68613   0.36712   0.00000  Uiso   1.00
C383   C     0.37246   0.69644   0.37225   0.00000  Uiso   1.00
C384   C     0.35219   0.67440   0.41450   0.00000  Uiso   1.00
C385   C     0.53273   0.78037   0.45217   0.00000  Uiso   1.00
C386   C     0.46119   0.72651   0.09515   0.00000  Uiso   1.00
C387   C     0.53301   0.77987   0.40296   0.00000  Uiso   1.00
C388   C     0.53850   0.77488   0.10696   0.00000  Uiso   1.00
C389   C     0.46990   0.71839   0.39480   0.00000  Uiso   1.00
C390   C     0.54349   0.77042   0.05880   0.00000  Uiso   1.00
H391   H     0.65776   0.74375   0.19541   0.00000  Uiso   1.00
H392   H     0.54267   0.97251   0.32129   0.00000  Uiso   1.00
H393   H     0.43177   0.70848   0.02313   0.00000  Uiso   1.00
H394   H     0.55535   0.80681   0.47301   0.00000  Uiso   1.00
H395   H     0.57668   0.78754   0.04618   0.00000  Uiso   1.00
H396   H     0.45688   0.68625   0.45909   0.00000  Uiso   1.00
H397   H     0.45558   0.64773   0.13206   0.00000  Uiso   1.00
H398   H     0.41044   0.66469   0.17124   0.00000  Uiso   1.00
H399   H     0.38600   0.63587   0.11757   0.00000  Uiso   1.00
H400   H     0.38975   0.72983   0.12711   0.00000  Uiso   1.00
H401   H     0.38096   0.69869   0.07676   0.00000  Uiso   1.00
H402   H     0.34238   0.76199   0.30337   0.00000  Uiso   1.00
H403   H     0.63509   0.76748   0.40072   0.00000  Uiso   1.00
H404   H     0.65648   0.82364   0.38685   0.00000  Uiso   1.00
H405   H     0.63713   0.81202   0.44343   0.00000  Uiso   1.00
H406   H     0.56962   0.81166   0.34699   0.00000  Uiso   1.00
H407   H     0.56386   0.84721   0.39498   0.00000  Uiso   1.00
H408   H     0.60885   0.87353   0.07358   0.00000  Uiso   1.00
H409   H     0.54162   0.86003   0.04570   0.00000  Uiso   1.00
H410   H     0.55882   0.91314   0.07415   0.00000  Uiso   1.00
H411   H     0.50972   0.85763   0.12178   0.00000  Uiso   1.00
H412   H     0.57128   0.88182   0.15114   0.00000  Uiso   1.00
H413   H     0.47255   0.52764   0.31665   0.00000  Uiso   1.00
H414   H     0.57516   0.80815   0.17179   0.00000  Uiso   1.00
H415   H     0.61460   0.80997   0.12713   0.00000  Uiso   1.00
H416   H     0.36214   0.63885   0.41732   0.00000  Uiso   1.00
H417   H     0.36843   0.69265   0.44751   0.00000  Uiso   1.00
H418   H     0.64199   0.67570   0.41013   0.00000  Uiso   1.00
H419   H     0.36950   0.73308   0.37469   0.00000  Uiso   1.00
H420   H     0.34594   0.68415   0.34008   0.00000  Uiso   1.00
H421   H     0.43142   0.68763   0.32959   0.00000  Uiso   1.00
H422   H     0.43739   0.65128   0.37779   0.00000  Uiso   1.00
H423   H     0.46058   0.96868   0.17846   0.00000  Uiso   1.00
H424   H     0.47217   0.60873   0.31700   0.00000  Uiso   1.00
H425   H     0.45926   0.88731   0.17867   0.00000  Uiso   1.00
H426   H     0.53026   0.61210   0.18321   0.00000  Uiso   1.00
H427   H     0.54119   0.89119   0.32159   0.00000  Uiso   1.00
H428   H     0.53111   0.53091   0.18332   0.00000  Uiso   1.00
N429   N     0.50000   0.74999   0.12624   0.00000  Uiso   1.00
N430   N     0.50000   0.75001   0.37377   0.00000  Uiso   1.00
O431   O     0.50000   0.68454   0.28974   0.00000  Uiso   1.00
O432   O     0.50000   0.81547   0.21026   0.00000  Uiso   1.00
O433   O     0.50000   0.68453   0.21026   0.00000  Uiso   1.00
O434   O     0.50000   0.81547   0.28974   0.00000  Uiso   1.00
O435   O     0.42392   0.75000   0.28045   0.00000  Uiso   1.00
O436   O     0.57608   0.75000   0.21956   0.00000  Uiso   1.00
O437   O     0.42392   0.75000   0.20097   0.00000  Uiso   1.00
O438   O     0.57608   0.75001   0.29904   0.00000  Uiso   1.00
Zn439  Zn    0.50000   0.75001   0.30307   0.00000  Uiso   1.00
Zn440  Zn    0.50000   0.75000   0.19693   0.00000  Uiso   1.00
C441   C     0.83349   0.66402   0.24999   0.00000  Uiso   1.00
C442   C     0.80920   0.71471   0.44427   0.00000  Uiso   1.00
C443   C     0.83853   0.74657   0.02712   0.00000  Uiso   1.00
C444   C     0.83854   0.74697   0.47412   0.00000  Uiso   1.00
C445   C     0.73384   0.75020   0.23760   0.00000  Uiso   1.00
C446   C     0.93286   0.75121   0.26230   0.00000  Uiso   1.00
C447   C     0.67863   0.74967   0.23089   0.00000  Uiso   1.00
C448   C     0.98810   0.75473   0.26837   0.00000  Uiso   1.00
C449   C     0.81888   0.54605   0.28768   0.00000  Uiso   1.00
C450   C     0.81203   0.95184   0.20956   0.00000  Uiso   1.00
C451   C     0.81853   0.59206   0.28777   0.00000  Uiso   1.00
C452   C     0.83344   0.83593   0.25003   0.00000  Uiso   1.00
C453   C     0.81133   0.90576   0.20968   0.00000  Uiso   1.00
C454   C     0.83416   0.61603   0.24999   0.00000  Uiso   1.00
C455   C     0.83375   0.88384   0.25006   0.00000  Uiso   1.00
C456   C     0.85062   0.59389   0.21230   0.00000  Uiso   1.00
C457   C     0.85670   0.90790   0.29036   0.00000  Uiso   1.00
C458   C     0.85117   0.54786   0.21232   0.00000  Uiso   1.00
C459   C     0.85757   0.95397   0.29019   0.00000  Uiso   1.00
C460   C     0.83519   0.52399   0.24997   0.00000  Uiso   1.00
C461   C     0.83516   0.97590   0.24982   0.00000  Uiso   1.00
C462   C     0.74372   0.70568   0.10883   0.00000  Uiso   1.00
C463   C     0.79720   0.72515   0.04638   0.00000  Uiso   1.00
C464   C     0.74992   0.66106   0.13412   0.00000  Uiso   1.00
C465   C     0.90530   0.81273   0.38509   0.00000  Uiso   1.00
C466   C     0.96197   0.80334   0.40539   0.00000  Uiso   1.00
C467   C     0.90665   0.81164   0.13394   0.00000  Uiso   1.00
C468   C     0.88640   0.85836   0.12248   0.00000  Uiso   1.00
C469   C     0.89995   0.87709   0.07607   0.00000  Uiso   1.00
C470   C     0.76267   0.68613   0.36712   0.00000  Uiso   1.00
C471   C     0.70580   0.69644   0.37225   0.00000  Uiso   1.00
C472   C     0.68552   0.67440   0.41450   0.00000  Uiso   1.00
C473   C     0.86607   0.78037   0.45217   0.00000  Uiso   1.00
C474   C     0.79452   0.72651   0.09515   0.00000  Uiso   1.00
C475   C     0.86635   0.77987   0.40296   0.00000  Uiso   1.00
C476   C     0.87183   0.77488   0.10696   0.00000  Uiso   1.00
C477   C     0.80323   0.71839   0.39480   0.00000  Uiso   1.00
C478   C     0.87683   0.77042   0.05880   0.00000  Uiso   1.00
H479   H     0.99109   0.74375   0.19541   0.00000  Uiso   1.00
H480   H     0.87600   0.97251   0.32129   0.00000  Uiso   1.00
H481   H     0.76510   0.70848   0.02313   0.00000  Uiso   1.00
H482   H     0.88868   0.80681   0.47301   0.00000  Uiso   1.00
H483   H     0.91001   0.78754   0.04618   0.00000  Uiso   1.00
H484   H     0.79021   0.68625   0.45909   0.00000  Uiso   1.00
H485   H     0.78891   0.64773   0.13206   0.00000  Uiso   1.00
H486   H     0.74377   0.66469   0.17124   0.00000  Uiso   1.00
H487   H     0.71933   0.63587   0.11757   0.00000  Uiso   1.00
H488   H     0.72309   0.72983   0.12711   0.00000  Uiso   1.00
H489   H     0.71430   0.69869   0.07676   0.00000  Uiso   1.00
H490   H     0.67571   0.76199   0.30337   0.00000  Uiso   1.00
H491   H     0.96842   0.76748   0.40072   0.00000  Uiso   1.00
H492   H     0.98981   0.82364   0.38685   0.00000  Uiso   1.00
H493   H     0.97046   0.81202   0.44343   0.00000  Uiso   1.00
H494   H     0.90295   0.81166   0.34699   0.00000  Uiso   1.00
H495   H     0.89719   0.84721   0.39498   0.00000  Uiso   1.00
H496   H     0.94219   0.87353   0.07358   0.00000  Uiso   1.00
H497   H     0.87495   0.86003   0.04570   0.00000  Uiso   1.00
H498   H     0.89216   0.91314   0.07415   0.00000  Uiso   1.00
H499   H     0.84306   0.85763   0.12178   0.00000  Uiso   1.00
H500   H     0.90461   0.88182   0.15114   0.00000  Uiso   1.00
H501   H     0.80588   0.52764   0.31665   0.00000  Uiso   1.00
H502   H     0.90849   0.80815   0.17179   0.00000  Uiso   1.00
H503   H     0.94793   0.80997   0.12713   0.00000  Uiso   1.00
H504   H     0.69547   0.63885   0.41732   0.00000  Uiso   1.00
H505   H     0.70177   0.69265   0.44751   0.00000  Uiso   1.00
H506   H     0.97532   0.67570   0.41013   0.00000  Uiso   1.00
H507   H     0.70284   0.73308   0.37469   0.00000  Uiso   1.00
H508   H     0.67927   0.68415   0.34008   0.00000  Uiso   1.00
H509   H     0.76475   0.68763   0.32959   0.00000  Uiso   1.00
H510   H     0.77072   0.65128   0.37779   0.00000  Uiso   1.00
H511   H     0.79391   0.96868   0.17846   0.00000  Uiso   1.00
H512   H     0.80550   0.60873   0.31700   0.00000  Uiso   1.00
H513   H     0.79259   0.88731   0.17867   0.00000  Uiso   1.00
H514   H     0.86359   0.61210   0.18321   0.00000  Uiso   1.00
H515   H     0.87453   0.89119   0.32159   0.00000  Uiso   1.00
H516   H     0.86445   0.53091   0.18332   0.00000  Uiso   1.00
N517   N     0.83333   0.74999   0.12624   0.00000  Uiso   1.00
N518   N     0.83333   0.75001   0.37377   0.00000  Uiso   1.00
O519   O     0.83334   0.68454   0.28974   0.00000  Uiso   1.00
O520   O     0.83333   0.81547   0.21026   0.00000  Uiso   1.00
O521   O     0.83334   0.68453   0.21026   0.00000  Uiso   1.00
O522   O     0.83333   0.81547   0.28974   0.00000  Uiso   1.00
O523   O     0.75725   0.75000   0.28045   0.00000  Uiso   1.00
O524   O     0.90942   0.75000   0.21956   0.00000  Uiso   1.00
O525   O     0.75725   0.75000   0.20097   0.00000  Uiso   1.00
O526   O     0.90942   0.75001   0.29904   0.00000  Uiso   1.00
Zn527  Zn    0.83333   0.75001   0.30307   0.00000  Uiso   1.00
Zn528  Zn    0.83333   0.75000   0.19693   0.00000  Uiso   1.00
C529   C     0.16683   0.16402   0.74999   0.00000  Uiso   1.00
C530   C     0.14253   0.21471   0.94427   0.00000  Uiso   1.00
C531   C     0.17186   0.24657   0.52712   0.00000  Uiso   1.00
C532   C     0.17188   0.24697   0.97412   0.00000  Uiso   1.00
C533   C     0.06718   0.25020   0.73760   0.00000  Uiso   1.00
C534   C     0.26620   0.25121   0.76230   0.00000  Uiso   1.00
C535   C     0.01197   0.24967   0.73089   0.00000  Uiso   1.00
C536   C     0.32143   0.25473   0.76837   0.00000  Uiso   1.00
C537   C     0.15221   0.04605   0.78768   0.00000  Uiso   1.00
C538   C     0.14536   0.45184   0.70956   0.00000  Uiso   1.00
C539   C     0.15186   0.09206   0.78777   0.00000  Uiso   1.00
C540   C     0.16678   0.33593   0.75003   0.00000  Uiso   1.00
C541   C     0.14467   0.40576   0.70968   0.00000  Uiso   1.00
C542   C     0.16749   0.11603   0.74999   0.00000  Uiso   1.00
C543   C     0.16708   0.38384   0.75006   0.00000  Uiso   1.00
C544   C     0.18395   0.09389   0.71230   0.00000  Uiso   1.00
C545   C     0.19003   0.40790   0.79036   0.00000  Uiso   1.00
C546   C     0.18450   0.04786   0.71232   0.00000  Uiso   1.00
C547   C     0.19090   0.45397   0.79019   0.00000  Uiso   1.00
C548   C     0.16852   0.02399   0.74997   0.00000  Uiso   1.00
C549   C     0.16849   0.47590   0.74982   0.00000  Uiso   1.00
C550   C     0.07705   0.20568   0.60883   0.00000  Uiso   1.00
C551   C     0.13054   0.22515   0.54638   0.00000  Uiso   1.00
C552   C     0.08325   0.16106   0.63412   0.00000  Uiso   1.00
C553   C     0.23863   0.31273   0.88509   0.00000  Uiso   1.00
C554   C     0.29530   0.30334   0.90539   0.00000  Uiso   1.00
C555   C     0.23998   0.31164   0.63394   0.00000  Uiso   1.00
C556   C     0.21973   0.35836   0.62248   0.00000  Uiso   1.00
C557   C     0.23328   0.37709   0.57607   0.00000  Uiso   1.00
C558   C     0.09601   0.18613   0.86712   0.00000  Uiso   1.00
C559   C     0.03913   0.19644   0.87225   0.00000  Uiso   1.00
C560   C     0.01886   0.17440   0.91450   0.00000  Uiso   1.00
C561   C     0.19940   0.28037   0.95217   0.00000  Uiso   1.00
C562   C     0.12785   0.22651   0.59515   0.00000  Uiso   1.00
C563   C     0.19968   0.27987   0.90296   0.00000  Uiso   1.00
C564   C     0.20517   0.27488   0.60696   0.00000  Uiso   1.00
C565   C     0.13656   0.21839   0.89480   0.00000  Uiso   1.00
C566   C     0.21016   0.27042   0.55880   0.00000  Uiso   1.00
H567   H     0.32442   0.24375   0.69541   0.00000  Uiso   1.00
H568   H     0.20933   0.47251   0.82129   0.00000  Uiso   1.00
H569   H     0.09843   0.20848   0.52313   0.00000  Uiso   1.00
H570   H     0.22201   0.30681   0.97301   0.00000  Uiso   1.00
H571   H     0.24334   0.28754   0.54618   0.00000  Uiso   1.00
H572   H     0.12355   0.18625   0.95909   0.00000  Uiso   1.00
H573   H     0.12224   0.14773   0.63206   0.00000  Uiso   1.00
H574   H     0.07710   0.16469   0.67124   0.00000  Uiso   1.00
H575   H     0.05266   0.13587   0.61757   0.00000  Uiso   1.00
H576   H     0.05642   0.22983   0.62711   0.00000  Uiso   1.00
H577   H     0.04763   0.19869   0.57676   0.00000  Uiso   1.00
H578   H     0.00905   0.26199   0.80337   0.00000  Uiso   1.00
H579   H     0.30175   0.26748   0.90072   0.00000  Uiso   1.00
H580   H     0.32315   0.32364   0.88685   0.00000  Uiso   1.00
H581   H     0.30380   0.31202   0.94343   0.00000  Uiso   1.00
H582   H     0.23628   0.31166   0.84699   0.00000  Uiso   1.00
H583   H     0.23053   0.34721   0.89498   0.00000  Uiso   1.00
H584   H     0.27552   0.37353   0.57358   0.00000  Uiso   1.00
H585   H     0.20828   0.36003   0.54570   0.00000  Uiso   1.00
H586   H     0.22549   0.41314   0.57415   0.00000  Uiso   1.00
H587   H     0.17639   0.35763   0.62178   0.00000  Uiso   1.00
H588   H     0.23794   0.38182   0.65114   0.00000  Uiso   1.00
H589   H     0.13922   0.02764   0.81665   0.00000  Uiso   1.00
H590   H     0.24182   0.30815   0.67179   0.00000  Uiso   1.00
H591   H     0.28126   0.30997   0.62713   0.00000  Uiso   1.00
H592   H     0.02881   0.13885   0.91732   0.00000  Uiso   1.00
H593   H     0.03510   0.19265   0.94751   0.00000  Uiso   1.00
H594   H     0.30866   0.17570   0.91013   0.00000  Uiso   1.00
H595   H     0.03617   0.23308   0.87469   0.00000  Uiso   1.00
H596   H     0.01261   0.18415   0.84008   0.00000  Uiso   1.00
H597   H     0.09808   0.18763   0.82959   0.00000  Uiso   1.00
H598   H     0.10406   0.15128   0.87779   0.00000  Uiso   1.00
H599   H     0.12725   0.46868   0.67846   0.00000  Uiso   1.00
H600   H     0.13883   0.10873   0.81700   0.00000  Uiso   1.00
H601   H     0.12593   0.38731   0.67867   0.00000  Uiso   1.00
H602   H     0.19693   0.11210   0.68321   0.00000  Uiso   1.00
H603   H     0.20786   0.39119   0.82159   0.00000  Uiso   1.00
H604   H     0.19778   0.03091   0.68332   0.00000  Uiso   1.00
N605   N     0.16667   0.24999   0.62624   0.00000  Uiso   1.00
N606   N     0.16667   0.25001   0.87377   0.00000  Uiso   1.00
O607   O     0.16667   0.18454   0.78974   0.00000  Uiso   1.00
O608   O     0.16666   0.31547   0.71026   0.00000  Uiso   1.00
O609   O     0.16667   0.18453   0.71026   0.00000  Uiso   1.00
O610   O     0.16666   0.31547   0.78974   0.00000  Uiso   1.00
O611   O     0.09058   0.25000   0.78045   0.00000  Uiso   1.00
O612   O     0.24275   0.25000   0.71956   0.00000  Uiso   1.00
O613   O     0.09058   0.25000   0.70097   0.00000  Uiso   1.00
O614   O     0.24275   0.25001   0.79904   0.00000  Uiso   1.00
Zn615  Zn    0.16667   0.25001   0.80307   0.00000  Uiso   1.00
Zn616  Zn    0.16667   0.25000   0.69693   0.00000  Uiso   1.00
C617   C     0.50016   0.16402   0.74999   0.00000  Uiso   1.00
C618   C     0.47586   0.21471   0.94427   0.00000  Uiso   1.00
C619   C     0.50520   0.24657   0.52712   0.00000  Uiso   1.00
C620   C     0.50521   0.24697   0.97412   0.00000  Uiso   1.00
C621   C     0.40051   0.25020   0.73760   0.00000  Uiso   1.00
C622   C     0.59953   0.25121   0.76230   0.00000  Uiso   1.00
C623   C     0.34530   0.24967   0.73089   0.00000  Uiso   1.00
C624   C     0.65476   0.25473   0.76837   0.00000  Uiso   1.00
C625   C     0.48555   0.04605   0.78768   0.00000  Uiso   1.00
C626   C     0.47869   0.45184   0.70956   0.00000  Uiso   1.00
C627   C     0.48519   0.09206   0.78777   0.00000  Uiso   1.00
C628   C     0.50011   0.33593   0.75003   0.00000  Uiso   1.00
C629   C     0.47800   0.40576   0.70968   0.00000  Uiso   1.00
C630   C     0.50083   0.11603   0.74999   0.00000  Uiso   1.00
C631   C     0.50041   0.38384   0.75006   0.00000  Uiso   1.00
C632   C     0.51728   0.09389   0.71230   0.00000  Uiso   1.00
C633   C     0.52336   0.40790   0.79036   0.00000  Uiso   1.00
C634   C     0.51784   0.04786   0.71232   0.00000  Uiso   1.00
C635   C     0.52424   0.45397   0.79019   0.00000  Uiso   1.00
C636   C     0.50185   0.02399   0.74997   0.00000  Uiso   1.00
C637   C     0.50182   0.47590   0.74982   0.00000  Uiso   1.00
C638   C     0.41039   0.20568   0.60883   0.00000  Uiso   1.00
C639   C     0.46387   0.22515   0.54638   0.00000  Uiso   1.00
C640   C     0.41659   0.16106   0.63412   0.00000  Uiso   1.00
C641   C     0.57196   0.31273   0.88509   0.00000  Uiso   1.00
C642   C     0.62863   0.30334   0.90539   0.00000  Uiso   1.00
C643   C     0.57331   0.31164   0.63394   0.00000  Uiso   1.00
C644   C     0.55307   0.35836   0.62248   0.00000  Uiso   1.00
C645   C     0.56662   0.37709   0.57607   0.00000  Uiso   1.00
C646   C     0.42934   0.18613   0.86712   0.00000  Uiso   1.00
C647   C     0.37246   0.19644   0.87225   0.00000  Uiso   1.00
C648   C     0.35219   0.17440   0.91450   0.00000  Uiso   1.00
C649   C     0.53273   0.28037   0.95217   0.00000  Uiso   1.00
C650   C     0.46119   0.22651   0.59515   0.00000  Uiso   1.00
C651   C     0.53301   0.27987   0.90296   0.00000  Uiso   1.00
C652   C     0.53850   0.27488   0.60696   0.00000  Uiso   1.00
C653   C     0.46990   0.21839   0.89480   0.00000  Uiso   1.00
C654   C     0.54349   0.27042   0.55880   0.00000  Uiso   1.00
H655   H     0.65776   0.24375   0.69541   0.00000  Uiso   1.00
H656   H     0.54267   0.47251   0.82129   0.00000  Uiso   1.00
H657   H     0.43177   0.20848   0.52313   0.00000  Uiso   1.00
H658   H     0.55535   0.30681   0.97301   0.00000  Uiso   1.00
H659   H     0.57668   0.28754   0.54618   0.00000  Uiso   1.00
H660   H     0.45688   0.18625   0.95909   0.00000  Uiso   1.00
H661   H     0.45558   0.14773   0.63206   0.00000  Uiso   1.00
H662   H     0.41044   0.16469   0.67124   0.00000  Uiso   1.00
H663   H     0.38600   0.13587   0.61757   0.00000  Uiso   1.00
H664   H     0.38975   0.22983   0.62711   0.00000  Uiso   1.00
H665   H     0.38096   0.19869   0.57676   0.00000  Uiso   1.00
H666   H     0.34238   0.26199   0.80337   0.00000  Uiso   1.00
H667   H     0.63509   0.26748   0.90072   0.00000  Uiso   1.00
H668   H     0.65648   0.32364   0.88685   0.00000  Uiso   1.00
H669   H     0.63713   0.31202   0.94343   0.00000  Uiso   1.00
H670   H     0.56962   0.31166   0.84699   0.00000  Uiso   1.00
H671   H     0.56386   0.34721   0.89498   0.00000  Uiso   1.00
H672   H     0.60885   0.37353   0.57358   0.00000  Uiso   1.00
H673   H     0.54162   0.36003   0.54570   0.00000  Uiso   1.00
H674   H     0.55882   0.41314   0.57415   0.00000  Uiso   1.00
H675   H     0.50972   0.35763   0.62178   0.00000  Uiso   1.00
H676   H     0.57128   0.38182   0.65114   0.00000  Uiso   1.00
H677   H     0.47255   0.02764   0.81665   0.00000  Uiso   1.00
H678   H     0.57516   0.30815   0.67179   0.00000  Uiso   1.00
H679   H     0.61460   0.30997   0.62713   0.00000  Uiso   1.00
H680   H     0.36214   0.13885   0.91732   0.00000  Uiso   1.00
H681   H     0.36843   0.19265   0.94751   0.00000  Uiso   1.00
H682   H     0.64199   0.17570   0.91013   0.00000  Uiso   1.00
H683   H     0.36950   0.23308   0.87469   0.00000  Uiso   1.00
H684   H     0.34594   0.18415   0.84008   0.00000  Uiso   1.00
H685   H     0.43142   0.18763   0.82959   0.00000  Uiso   1.00
H686   H     0.43739   0.15128   0.87779   0.00000  Uiso   1.00
H687   H     0.46058   0.46868   0.67846   0.00000  Uiso   1.00
H688   H     0.47217   0.10873   0.81700   0.00000  Uiso   1.00
H689   H     0.45926   0.38731   0.67867   0.00000  Uiso   1.00
H690   H     0.53026   0.11210   0.68321   0.00000  Uiso   1.00
H691   H     0.54119   0.39119   0.82159   0.00000  Uiso   1.00
H692   H     0.53111   0.03091   0.68332   0.00000  Uiso   1.00
N693   N     0.50000   0.24999   0.62624   0.00000  Uiso   1.00
N694   N     0.50000   0.25001   0.87377   0.00000  Uiso   1.00
O695   O     0.50000   0.18454   0.78974   0.00000  Uiso   1.00
O696   O     0.50000   0.31547   0.71026   0.00000  Uiso   1.00
O697   O     0.50000   0.18453   0.71026   0.00000  Uiso   1.00
O698   O     0.50000   0.31547   0.78974   0.00000  Uiso   1.00
O699   O     0.42392   0.25000   0.78045   0.00000  Uiso   1.00
O700   O     0.57608   0.25000   0.71956   0.00000  Uiso   1.00
O701   O     0.42392   0.25000   0.70097   0.00000  Uiso   1.00
O702   O     0.57608   0.25001   0.79904   0.00000  Uiso   1.00
Zn703  Zn    0.50000   0.25001   0.80307   0.00000  Uiso   1.00
Zn704  Zn    0.50000   0.25000   0.69693   0.00000  Uiso   1.00
C705   C     0.83349   0.16402   0.74999   0.00000  Uiso   1.00
C706   C     0.80920   0.21471   0.94427   0.00000  Uiso   1.00
C707   C     0.83853   0.24657   0.52712   0.00000  Uiso   1.00
C708   C     0.83854   0.24697   0.97412   0.00000  Uiso   1.00
C709   C     0.73384   0.25020   0.73760   0.00000  Uiso   1.00
C710   C     0.93286   0.25121   0.76230   0.00000  Uiso   1.00
C711   C     0.67863   0.24967   0.73089   0.00000  Uiso   1.00
C712   C     0.98810   0.25473   0.76837   0.00000  Uiso   1.00
C713   C     0.81888   0.04605   0.78768   0.00000  Uiso   1.00
C714   C     0.81203   0.45184   0.70956   0.00000  Uiso   1.00
C715   C     0.81853   0.09206   0.78777   0.00000  Uiso   1.00
C716   C     0.83344   0.33593   0.75003   0.00000  Uiso   1.00
C717   C     0.81133   0.40576   0.70968   0.00000  Uiso   1.00
C718   C     0.83416   0.11603   0.74999   0.00000  Uiso   1.00
C719   C     0.83375   0.38384   0.75006   0.00000  Uiso   1.00
C720   C     0.85062   0.09389   0.71230   0.00000  Uiso   1.00
C721   C     0.85670   0.40790   0.79036   0.00000  Uiso   1.00
C722   C     0.85117   0.04786   0.71232   0.00000  Uiso   1.00
C723   C     0.85757   0.45397   0.79019   0.00000  Uiso   1.00
C724   C     0.83519   0.02399   0.74997   0.00000  Uiso   1.00
C725   C     0.83516   0.47590   0.74982   0.00000  Uiso   1.00
C726   C     0.74372   0.20568   0.60883   0.00000  Uiso   1.00
C727   C     0.79720   0.22515   0.54638   0.00000  Uiso   1.00
C728   C     0.74992   0.16106   0.63412   0.00000  Uiso   1.00
C729   C     0.90530   0.31273   0.88509   0.00000  Uiso   1.00
C730   C     0.96197   0.30334   0.90539   0.00000  Uiso   1.00
C731   C     0.90665   0.31164   0.63394   0.00000  Uiso   1.00
C732   C     0.88640   0.35836   0.62248   0.00000  Uiso   1.00
C733   C     0.89995   0.37709   0.57607   0.00000  Uiso   1.00
C734   C     0.76267   0.18613   0.86712   0.00000  Uiso   1.00
C735   C     0.70580   0.19644   0.87225   0.00000  Uiso   1.00
C736   C     0.68552   0.17440   0.91450   0.00000  Uiso   1.00
C737   C     0.86607   0.28037   0.95217   0.00000  Uiso   1.00
C738   C     0.79452   0.22651   0.59515   0.00000  Uiso   1.00
C739   C     0.86635   0.27987   0.90296   0.00000  Uiso   1.00
C740   C     0.87183   0.27488   0.60696   0.00000  Uiso   1.00
C741   C     0.80323   0.21839   0.89480   0.00000  Uiso   1.00
C742   C     0.87683   0.27042   0.55880   0.00000  Uiso   1.00
H743   H     0.99109   0.24375   0.69541   0.00000  Uiso   1.00
H744   H     0.87600   0.47251   0.82129   0.00000  Uiso   1.00
H745   H     0.76510   0.20848   0.52313   0.00000  Uiso   1.00
H746   H     0.88868   0.30681   0.97301   0.00000  Uiso   1.00
H747   H     0.91001   0.28754   0.54618   0.00000  Uiso   1.00
H748   H     0.79021   0.18625   0.95909   0.00000  Uiso   1.00
H749   H     0.78891   0.14773   0.63206   0.00000  Uiso   1.00
H750   H     0.74377   0.16469   0.67124   0.00000  Uiso   1.00
H751   H     0.71933   0.13587   0.61757   0.00000  Uiso   1.00
H752   H     0.72309   0.22983   0.62711   0.00000  Uiso   1.00
H753   H     0.71430   0.19869   0.57676   0.00000  Uiso   1.00
H754   H     0.67571   0.26199   0.80337   0.00000  Uiso   1.00
H755   H     0.96842   0.26748   0.90072   0.00000  Uiso   1.00
H756   H     0.98981   0.32364   0.88685   0.00000  Uiso   1.00
H757   H     0.97046   0.31202   0.94343   0.00000  Uiso   1.00
H758   H     0.90295   0.31166   0.84699   0.00000  Uiso   1.00
H759   H     0.89719   0.34721   0.89498   0.00000  Uiso   1.00
H760   H     0.94219   0.37353   0.57358   0.00000  Uiso   1.00
H761   H     0.87495   0.36003   0.54570   0.00000  Uiso   1.00
H762   H     0.89216   0.41314   0.57415   0.00000  Uiso   1.00
H763   H     0.84306   0.35763   0.62178   0.00000  Uiso   1.00
H764   H     0.90461   0.38182   0.65114   0.00000  Uiso   1.00
H765   H     0.80588   0.02764   0.81665   0.00000  Uiso   1.00
H766   H     0.90849   0.30815   0.67179   0.00000  Uiso   1.00
H767   H     0.94793   0.30997   0.62713   0.00000  Uiso   1.00
H768   H     0.69547   0.13885   0.91732   0.00000  Uiso   1.00
H769   H     0.70177   0.19265   0.94751   0.00000  Uiso   1.00
H770   H     0.97532   0.17570   0.91013   0.00000  Uiso   1.00
H771   H     0.70284   0.23308   0.87469   0.00000  Uiso   1.00
H772   H     0.67927   0.18415   0.84008   0.00000  Uiso   1.00
H773   H     0.76475   0.18763   0.82959   0.00000  Uiso   1.00
H774   H     0.77072   0.15128   0.87779   0.00000  Uiso   1.00
H775   H     0.79391   0.46868   0.67846   0.00000  Uiso   1.00
H776   H     0.80550   0.10873   0.81700   0.00000  Uiso   1.00
H777   H     0.79259   0.38731   0.67867   0.00000  Uiso   1.00
H778   H     0.86359   0.11210   0.68321   0.00000  Uiso   1.00
H779   H     0.87453   0.39119   0.82159   0.00000  Uiso   1.00
H780   H     0.86445   0.03091   0.68332   0.00000  Uiso   1.00
N781   N     0.83333   0.24999   0.62624   0.00000  Uiso   1.00
N782   N     0.83333   0.25001   0.87377   0.00000  Uiso   1.00
O783   O     0.83334   0.18454   0.78974   0.00000  Uiso   1.00
O784   O     0.83333   0.31547   0.71026   0.00000  Uiso   1.00
O785   O     0.83334   0.18453   0.71026   0.00000  Uiso   1.00
O786   O     0.83333   0.31547   0.78974   0.00000  Uiso   1.00
O787   O     0.75725   0.25000   0.78045   0.00000  Uiso   1.00
O788   O     0.90942   0.25000   0.71956   0.00000  Uiso   1.00
O789   O     0.75725   0.25000   0.70097   0.00000  Uiso   1.00
O790   O     0.90942   0.25001   0.79904   0.00000  Uiso   1.00
Zn791  Zn    0.83333   0.25001   0.80307   0.00000  Uiso   1.00
Zn792  Zn    0.83333   0.25000   0.69693   0.00000  Uiso   1.00
C793   C     0.16683   0.66402   0.74999   0.00000  Uiso   1.00
C794   C     0.14253   0.71471   0.94427   0.00000  Uiso   1.00
C795   C     0.17186   0.74657   0.52712   0.00000  Uiso   1.00
C796   C     0.17188   0.74697   0.97412   0.00000  Uiso   1.00
C797   C     0.06718   0.75020   0.73760   0.00000  Uiso   1.00
C798   C     0.26620   0.75121   0.76230   0.00000  Uiso   1.00
C799   C     0.01197   0.74967   0.73089   0.00000  Uiso   1.00
C800   C     0.32143   0.75473   0.76837   0.00000  Uiso   1.00
C801   C     0.15221   0.54605   0.78768   0.00000  Uiso   1.00
C802   C     0.14536   0.95184   0.70956   0.00000  Uiso   1.00
C803   C     0.15186   0.59206   0.78777   0.00000  Uiso   1.00
C804   C     0.16678   0.83593   0.75003   0.00000  Uiso   1.00
C805   C     0.14467   0.90576   0.70968   0.00000  Uiso   1.00
C806   C     0.16749   0.61603   0.74999   0.00000  Uiso   1.00
C807   C     0.16708   0.88384   0.75006   0.00000  Uiso   1.00
C808   C     0.18395   0.59389   0.71230   0.00000  Uiso   1.00
C809   C     0.19003   0.90790   0.79036   0.00000  Uiso   1.00
C810   C     0.18450   0.54786   0.71232   0.00000  Uiso   1.00
C811   C     0.19090   0.95397   0.79019   0.00000  Uiso   1.00
C812   C     0.16852   0.52399   0.74997   0.00000  Uiso   1.00
C813   C     0.16849   0.97590   0.74982   0.00000  Uiso   1.00
C814   C     0.07705   0.70568   0.60883   0.00000  Uiso   1.00
C815   C     0.13054   0.72515   0.54638   0.00000  Uiso   1.00
C816   C     0.08325   0.66106   0.63412   0.00000  Uiso   1.00
C817   C     0.23863   0.81273   0.88509   0.00000  Uiso   1.00
C818   C     0.29530   0.80334   0.90539   0.00000  Uiso   1.00
C819   C     0.23998   0.81164   0.63394   0.00000  Uiso   1.00
C820   C     0.21973   0.85836   0.62248   0.00000  Uiso   1.00
C821   C     0.23328   0.87709   0.57607   0.00000  Uiso   1.00
C822   C     0.09601   0.68613   0.86712   0.00000  Uiso   1.00
C823   C     0.03913   0.69644   0.87225   0.00000  Uiso   1.00
C824   C     0.01886   0.67440   0.91450   0.00000  Uiso   1.00
C825   C     0.19940   0.78037   0.95217   0.00000  Uiso   1.00
C826   C     0.12785   0.72651   0.59515   0.00000  Uiso   1.00
C827   C     0.19968   0.77987   0.90296   0.00000  Uiso   1.00
C828   C     0.20517   0.77488   0.60696   0.00000  Uiso   1.00
C829   C     0.13656   0.71839   0.89480   0.00000  Uiso   1.00
C830   C     0.21016   0.77042   0.55880   0.00000  Uiso   1.00
H831   H     0.32442   0.74375   0.69541   0.00000  Uiso   1.00
H832   H     0.20933   0.97251   0.82129   0.00000  Uiso   1.00
H833   H     0.09843   0.70848   0.52313   0.00000  Uiso   1.00
H834   H     0.22201   0.80681   0.97301   0.00000  Uiso   1.00
H835   H     0.24334   0.78754   0.54618   0.00000  Uiso   1.00
H836   H     0.12355   0.68625   0.95909   0.00000  Uiso   1.00
H837   H     0.12224   0.64773   0.63206   0.00000  Uiso   1.00
H838   H     0.07710   0.66469   0.67124   0.00000  Uiso   1.00
H839   H     0.05266   0.63587   0.61757   0.00000  Uiso   1.00
H840   H     0.05642   0.72983   0.62711   0.00000  Uiso   1.00
H841   H     0.04763   0.69869   0.57676   0.00000  Uiso   1.00
H842   H     0.00905   0.76199   0.80337   0.00000  Uiso   1.00
H843   H     0.30175   0.76748   0.90072   0.00000  Uiso   1.00
H844   H     0.32315   0.82364   0.88685   0.00000  Uiso   1.00
H845   H     0.30380   0.81202   0.94343   0.00000  Uiso   1.00
H846   H     0.23628   0.81166   0.84699   0.00000  Uiso   1.00
H847   H     0.23053   0.84721   0.89498   0.00000  Uiso   1.00
H848   H     0.27552   0.87353   0.57358   0.00000  Uiso   1.00
H849   H     0.20828   0.86003   0.54570   0.00000  Uiso   1.00
H850   H     0.22549   0.91314   0.57415   0.00000  Uiso   1.00
H851   H     0.17639   0.85763   0.62178   0.00000  Uiso   1.00
H852   H     0.23794   0.88182   0.65114   0.00000  Uiso   1.00
H853   H     0.13922   0.52764   0.81665   0.00000  Uiso   1.00
H854   H     0.24182   0.80815   0.67179   0.00000  Uiso   1.00
H855   H     0.28126   0.80997   0.62713   0.00000  Uiso   1.00
H856   H     0.02881   0.63885   0.91732   0.00000  Uiso   1.00
H857   H     0.03510   0.69265   0.94751   0.00000  Uiso   1.00
H858   H     0.30866   0.67570   0.91013   0.00000  Uiso   1.00
H859   H     0.03617   0.73308   0.87469   0.00000  Uiso   1.00
H860   H     0.01261   0.68415   0.84008   0.00000  Uiso   1.00
H861   H     0.09808   0.68763   0.82959   0.00000  Uiso   1.00
H862   H     0.10406   0.65128   0.87779   0.00000  Uiso   1.00
H863   H     0.12725   0.96868   0.67846   0.00000  Uiso   1.00
H864   H     0.13883   0.60873   0.81700   0.00000  Uiso   1.00
H865   H     0.12593   0.88731   0.67867   0.00000  Uiso   1.00
H866   H     0.19693   0.61210   0.68321   0.00000  Uiso   1.00
H867   H     0.20786   0.89119   0.82159   0.00000  Uiso   1.00
H868   H     0.19778   0.53091   0.68332   0.00000  Uiso   1.00
N869   N     0.16667   0.74999   0.62624   0.00000  Uiso   1.00
N870   N     0.16667   0.75001   0.87377   0.00000  Uiso   1.00
O871   O     0.16667   0.68454   0.78974   0.00000  Uiso   1.00
O872   O     0.16666   0.81547   0.71026   0.00000  Uiso   1.00
O873   O     0.16667   0.68453   0.71026   0.00000  Uiso   1.00
O874   O     0.16666   0.81547   0.78974   0.00000  Uiso   1.00
O875   O     0.09058   0.75000   0.78045   0.00000  Uiso   1.00
O876   O     0.24275   0.75000   0.71956   0.00000  Uiso   1.00
O877   O     0.09058   0.75000   0.70097   0.00000  Uiso   1.00
O878   O     0.24275   0.75001   0.79904   0.00000  Uiso   1.00
Zn879  Zn    0.16667   0.75001   0.80307   0.00000  Uiso   1.00
Zn880  Zn    0.16667   0.75000   0.69693   0.00000  Uiso   1.00
C881   C     0.50016   0.66402   0.74999   0.00000  Uiso   1.00
C882   C     0.47586   0.71471   0.94427   0.00000  Uiso   1.00
C883   C     0.50520   0.74657   0.52712   0.00000  Uiso   1.00
C884   C     0.50521   0.74697   0.97412   0.00000  Uiso   1.00
C885   C     0.40051   0.75020   0.73760   0.00000  Uiso   1.00
C886   C     0.59953   0.75121   0.76230   0.00000  Uiso   1.00
C887   C     0.34530   0.74967   0.73089   0.00000  Uiso   1.00
C888   C     0.65476   0.75473   0.76837   0.00000  Uiso   1.00
C889   C     0.48555   0.54605   0.78768   0.00000  Uiso   1.00
C890   C     0.47869   0.95184   0.70956   0.00000  Uiso   1.00
C891   C     0.48519   0.59206   0.78777   0.00000  Uiso   1.00
C892   C     0.50011   0.83593   0.75003   0.00000  Uiso   1.00
C893   C     0.47800   0.90576   0.70968   0.00000  Uiso   1.00
C894   C     0.50083   0.61603   0.74999   0.00000  Uiso   1.00
C895   C     0.50041   0.88384   0.75006   0.00000  Uiso   1.00
C896   C     0.51728   0.59389   0.71230   0.00000  Uiso   1.00
C897   C     0.52336   0.90790   0.79036   0.00000  Uiso   1.00
C898   C     0.51784   0.54786   0.71232   0.00000  Uiso   1.00
C899   C     0.52424   0.95397   0.79019   0.00000  Uiso   1.00
C900   C     0.50185   0.52399   0.74997   0.00000  Uiso   1.00
C901   C     0.50182   0.97590   0.74982   0.00000  Uiso   1.00
C902   C     0.41039   0.70568   0.60883   0.00000  Uiso   1.00
C903   C     0.46387   0.72515   0.54638   0.00000  Uiso   1.00
C904   C     0.41659   0.66106   0.63412   0.00000  Uiso   1.00
C905   C     0.57196   0.81273   0.88509   0.00000  Uiso   1.00
C906   C     0.62863   0.80334   0.90539   0.00000  Uiso   1.00
C907   C     0.57331   0.81164   0.63394   0.00000  Uiso   1.00
C908   C     0.55307   0.85836   0.62248   0.00000  Uiso   1.00
C909   C     0.56662   0.87709   0.57607   0.00000  Uiso   1.00
C910   C     0.42934   0.68613   0.86712   0.00000  Uiso   1.00
C911   C     0.37246   0.69644   0.87225   0.00000  Uiso   1.00
C912   C     0.35219   0.67440   0.91450   0.00000  Uiso   1.00
C913   C     0.53273   0.78037   0.95217   0.00000  Uiso   1.00
C914   C     0.46119   0.72651   0.59515   0.00000  Uiso   1.00
C915   C     0.53301   0.77987   0.90296   0.00000  Uiso   1.00
C916   C     0.53850   0.77488   0.60696   0.00000  Uiso   1.00
C917   C     0.46990   0.71839   0.89480   0.00000  Uiso   1.00
C918   C     0.54349   0.77042   0.55880   0.00000  Uiso   1.00
H919   H     0.65776   0.74375   0.69541   0.00000  Uiso   1.00
H920   H     0.54267   0.97251   0.82129   0.00000  Uiso   1.00
H921   H     0.43177   0.70848   0.52313   0.00000  Uiso   1.00
H922   H     0.55535   0.80681   0.97301   0.00000  Uiso   1.00
H923   H     0.57668   0.78754   0.54618   0.00000  Uiso   1.00
H924   H     0.45688   0.68625   0.95909   0.00000  Uiso   1.00
H925   H     0.45558   0.64773   0.63206   0.00000  Uiso   1.00
H926   H     0.41044   0.66469   0.67124   0.00000  Uiso   1.00
H927   H     0.38600   0.63587   0.61757   0.00000  Uiso   1.00
H928   H     0.38975   0.72983   0.62711   0.00000  Uiso   1.00
H929   H     0.38096   0.69869   0.57676   0.00000  Uiso   1.00
H930   H     0.34238   0.76199   0.80337   0.00000  Uiso   1.00
H931   H     0.63509   0.76748   0.90072   0.00000  Uiso   1.00
H932   H     0.65648   0.82364   0.88685   0.00000  Uiso   1.00
H933   H     0.63713   0.81202   0.94343   0.00000  Uiso   1.00
H934   H     0.56962   0.81166   0.84699   0.00000  Uiso   1.00
H935   H     0.56386   0.84721   0.89498   0.00000  Uiso   1.00
H936   H     0.60885   0.87353   0.57358   0.00000  Uiso   1.00
H937   H     0.54162   0.86003   0.54570   0.00000  Uiso   1.00
H938   H     0.55882   0.91314   0.57415   0.00000  Uiso   1.00
H939   H     0.50972   0.85763   0.62178   0.00000  Uiso   1.00
H940   H     0.57128   0.88182   0.65114   0.00000  Uiso   1.00
H941   H     0.47255   0.52764   0.81665   0.00000  Uiso   1.00
H942   H     0.57516   0.80815   0.67179   0.00000  Uiso   1.00
H943   H     0.61460   0.80997   0.62713   0.00000  Uiso   1.00
H944   H     0.36214   0.63885   0.91732   0.00000  Uiso   1.00
H945   H     0.36843   0.69265   0.94751   0.00000  Uiso   1.00
H946   H     0.64199   0.67570   0.91013   0.00000  Uiso   1.00
H947   H     0.36950   0.73308   0.87469   0.00000  Uiso   1.00
H948   H     0.34594   0.68415   0.84008   0.00000  Uiso   1.00
H949   H     0.43142   0.68763   0.82959   0.00000  Uiso   1.00
H950   H     0.43739   0.65128   0.87779   0.00000  Uiso   1.00
H951   H     0.46058   0.96868   0.67846   0.00000  Uiso   1.00
H952   H     0.47217   0.60873   0.81700   0.00000  Uiso   1.00
H953   H     0.45926   0.88731   0.67867   0.00000  Uiso   1.00
H954   H     0.53026   0.61210   0.68321   0.00000  Uiso   1.00
H955   H     0.54119   0.89119   0.82159   0.00000  Uiso   1.00
H956   H     0.53111   0.53091   0.68332   0.00000  Uiso   1.00
N957   N     0.50000   0.74999   0.62624   0.00000  Uiso   1.00
N958   N     0.50000   0.75001   0.87377   0.00000  Uiso   1.00
O959   O     0.50000   0.68454   0.78974   0.00000  Uiso   1.00
O960   O     0.50000   0.81547   0.71026   0.00000  Uiso   1.00
O961   O     0.50000   0.68453   0.71026   0.00000  Uiso   1.00
O962   O     0.50000   0.81547   0.78974   0.00000  Uiso   1.00
O963   O     0.42392   0.75000   0.78045   0.00000  Uiso   1.00
O964   O     0.57608   0.75000   0.71956   0.00000  Uiso   1.00
O965   O     0.42392   0.75000   0.70097   0.00000  Uiso   1.00
O966   O     0.57608   0.75001   0.79904   0.00000  Uiso   1.00
Zn967  Zn    0.50000   0.75001   0.80307   0.00000  Uiso   1.00
Zn968  Zn    0.50000   0.75000   0.69693   0.00000  Uiso   1.00
C969   C     0.83349   0.66402   0.74999   0.00000  Uiso   1.00
C970   C     0.80920   0.71471   0.94427   0.00000  Uiso   1.00
C971   C     0.83853   0.74657   0.52712   0.00000  Uiso   1.00
C972   C     0.83854   0.74697   0.97412   0.00000  Uiso   1.00
C973   C     0.73384   0.75020   0.73760   0.00000  Uiso   1.00
C974   C     0.93286   0.75121   0.76230   0.00000  Uiso   1.00
C975   C     0.67863   0.74967   0.73089   0.00000  Uiso   1.00
C976   C     0.98810   0.75473   0.76837   0.00000  Uiso   1.00
C977   C     0.81888   0.54605   0.78768   0.00000  Uiso   1.00
C978   C     0.81203   0.95184   0.70956   0.00000  Uiso   1.00
C979   C     0.81853   0.59206   0.78777   0.00000  Uiso   1.00
C980   C     0.83344   0.83593   0.75003   0.00000  Uiso   1.00
C981   C     0.81133   0.90576   0.70968   0.00000  Uiso   1.00
C982   C     0.83416   0.61603   0.74999   0.00000  Uiso   1.00
C983   C     0.83375   0.88384   0.75006   0.00000  Uiso   1.00
C984   C     0.85062   0.59389   0.71230   0.00000  Uiso   1.00
C985   C     0.85670   0.90790   0.79036   0.00000  Uiso   1.00
C986   C     0.85117   0.54786   0.71232   0.00000  Uiso   1.00
C987   C     0.85757   0.95397   0.79019   0.00000  Uiso   1.00
C988   C     0.83519   0.52399   0.74997   0.00000  Uiso   1.00
C989   C     0.83516   0.97590   0.74982   0.00000  Uiso   1.00
C990   C     0.74372   0.70568   0.60883   0.00000  Uiso   1.00
C991   C     0.79720   0.72515   0.54638   0.00000  Uiso   1.00
C992   C     0.74992   0.66106   0.63412   0.00000  Uiso   1.00
C993   C     0.90530   0.81273   0.88509   0.00000  Uiso   1.00
C994   C     0.96197   0.80334   0.90539   0.00000  Uiso   1.00
C995   C     0.90665   0.81164   0.63394   0.00000  Uiso   1.00
C996   C     0.88640   0.85836   0.62248   0.00000  Uiso   1.00
C997   C     0.89995   0.87709   0.57607   0.00000  Uiso   1.00
C998   C     0.76267   0.68613   0.86712   0.00000  Uiso   1.00
C999   C     0.70580   0.69644   0.87225   0.00000  Uiso   1.00
C1000  C     0.68552   0.67440   0.91450   0.00000  Uiso   1.00
C1001  C     0.86607   0.78037   0.95217   0.00000  Uiso   1.00
C1002  C     0.79452   0.72651   0.59515   0.00000  Uiso   1.00
C1003  C     0.86635   0.77987   0.90296   0.00000  Uiso   1.00
C1004  C     0.87183   0.77488   0.60696   0.00000  Uiso   1.00
C1005  C     0.80323   0.71839   0.89480   0.00000  Uiso   1.00
C1006  C     0.87683   0.77042   0.55880   0.00000  Uiso   1.00
H1007  H     0.99109   0.74375   0.69541   0.00000  Uiso   1.00
H1008  H     0.87600   0.97251   0.82129   0.00000  Uiso   1.00
H1009  H     0.76510   0.70848   0.52313   0.00000  Uiso   1.00
H1010  H     0.88868   0.80681   0.97301   0.00000  Uiso   1.00
H1011  H     0.91001   0.78754   0.54618   0.00000  Uiso   1.00
H1012  H     0.79021   0.68625   0.95909   0.00000  Uiso   1.00
H1013  H     0.78891   0.64773   0.63206   0.00000  Uiso   1.00
H1014  H     0.74377   0.66469   0.67124   0.00000  Uiso   1.00
H1015  H     0.71933   0.63587   0.61757   0.00000  Uiso   1.00
H1016  H     0.72309   0.72983   0.62711   0.00000  Uiso   1.00
H1017  H     0.71430   0.69869   0.57676   0.00000  Uiso   1.00
H1018  H     0.67571   0.76199   0.80337   0.00000  Uiso   1.00
H1019  H     0.96842   0.76748   0.90072   0.00000  Uiso   1.00
H1020  H     0.98981   0.82364   0.88685   0.00000  Uiso   1.00
H1021  H     0.97046   0.81202   0.94343   0.00000  Uiso   1.00
H1022  H     0.90295   0.81166   0.84699   0.00000  Uiso   1.00
H1023  H     0.89719   0.84721   0.89498   0.00000  Uiso   1.00
H1024  H     0.94219   0.87353   0.57358   0.00000  Uiso   1.00
H1025  H     0.87495   0.86003   0.54570   0.00000  Uiso   1.00
H1026  H     0.89216   0.91314   0.57415   0.00000  Uiso   1.00
H1027  H     0.84306   0.85763   0.62178   0.00000  Uiso   1.00
H1028  H     0.90461   0.88182   0.65114   0.00000  Uiso   1.00
H1029  H     0.80588   0.52764   0.81665   0.00000  Uiso   1.00
H1030  H     0.90849   0.80815   0.67179   0.00000  Uiso   1.00
H1031  H     0.94793   0.80997   0.62713   0.00000  Uiso   1.00
H1032  H     0.69547   0.63885   0.91732   0.00000  Uiso   1.00
H1033  H     0.70177   0.69265   0.94751   0.00000  Uiso   1.00
H1034  H     0.97532   0.67570   0.91013   0.00000  Uiso   1.00
H1035  H     0.70284   0.73308   0.87469   0.00000  Uiso   1.00
H1036  H     0.67927   0.68415   0.84008   0.00000  Uiso   1.00
H1037  H     0.76475   0.68763   0.82959   0.00000  Uiso   1.00
H1038  H     0.77072   0.65128   0.87779   0.00000  Uiso   1.00
H1039  H     0.79391   0.96868   0.67846   0.00000  Uiso   1.00
H1040  H     0.80550   0.60873   0.81700   0.00000  Uiso   1.00
H1041  H     0.79259   0.88731   0.67867   0.00000  Uiso   1.00
H1042  H     0.86359   0.61210   0.68321   0.00000  Uiso   1.00
H1043  H     0.87453   0.89119   0.82159   0.00000  Uiso   1.00
H1044  H     0.86445   0.53091   0.68332   0.00000  Uiso   1.00
N1045  N     0.83333   0.74999   0.62624   0.00000  Uiso   1.00
N1046  N     0.83333   0.75001   0.87377   0.00000  Uiso   1.00
O1047  O     0.83334   0.68454   0.78974   0.00000  Uiso   1.00
O1048  O     0.83333   0.81547   0.71026   0.00000  Uiso   1.00
O1049  O     0.83334   0.68453   0.71026   0.00000  Uiso   1.00
O1050  O     0.83333   0.81547   0.78974   0.00000  Uiso   1.00
O1051  O     0.75725   0.75000   0.78045   0.00000  Uiso   1.00
O1052  O     0.90942   0.75000   0.71956   0.00000  Uiso   1.00
O1053  O     0.75725   0.75000   0.70097   0.00000  Uiso   1.00
O1054  O     0.90942   0.75001   0.79904   0.00000  Uiso   1.00
Zn1055 Zn    0.83333   0.75001   0.80307   0.00000  Uiso   1.00
Zn1056 Zn    0.83333   0.75000   0.69693   0.00000  Uiso   1.00
loop_
_geom_bond_atom_site_label_1
_geom_bond_atom_site_label_2
_geom_bond_distance
_geom_bond_site_symmetry_2
_ccdc_geom_bond_type
C1     O81     1.298   .     A
C1     O79     1.297   .     A
C1     C14     1.440   .     S
C2     H44     1.079   .     S
C2     C4      1.401   .     A
C2     C37     1.413   .     A
C3     C23     1.396   .     A
C3     C38     1.400   .     A
C3     C532    1.524   1_554 S
C4     C33     1.399   .     A
C4     C531    1.524   .     S
C5     O83     1.287   .     A
C5     O85     1.289   .     A
C5     C7      1.403   .     S
C6     O84     1.284   .     A
C6     C8      1.403   .     S
C6     O86     1.292   .     A
C7     C184    1.330   1_455 S
C7     H215    1.088   1_455 S
C8     C95     1.330   .     S
C8     H138    1.083   .     S
C9     C20     1.398   .     A
C9     C11     1.380   .     A
C9     H61     1.084   .     S
C10    H71     1.084   .     S
C10    C21     1.399   .     A
C10    C13     1.381   .     A
C11    C14     1.399   .     A
C11    H72     1.082   .     S
C12    C15     1.436   .     S
C12    O82     1.297   .     A
C12    O80     1.296   .     A
C13    H73     1.083   .     S
C13    C15     1.399   .     A
C14    C16     1.400   .     A
C15    C17     1.398   .     A
C16    H74     1.083   .     S
C16    C18     1.381   .     A
C17    C19     1.380   .     A
C17    H75     1.082   .     S
C18    C20     1.398   .     A
C18    H76     1.084   .     S
C19    C21     1.399   .     A
C19    H40     1.084   .     S
C20    C285    1.442   1_545 S
C21    C284    1.442   .     S
C22    H48     1.099   .     S
C22    C24     1.529   .     S
C22    C34     1.521   .     S
C22    H49     1.113   .     S
C23    C34     1.415   .     A
C23    H41     1.079   .     S
C24    H45     1.110   .     S
C24    H47     1.111   .     S
C24    H46     1.108   .     S
C25    H54     1.088   .     S
C25    C26     1.528   .     S
C25    C35     1.511   .     S
C25    H55     1.111   .     S
C26    H52     1.111   .     S
C26    H53     1.110   .     S
C26    H51     1.108   .     S
C27    H62     1.087   .     S
C27    H63     1.112   .     S
C27    C36     1.515   .     S
C27    C28     1.541   .     S
C28    C29     1.529   .     S
C28    H60     1.112   .     S
C28    H59     1.111   .     S
C29    H58     1.110   .     S
C29    H57     1.109   .     S
C29    H56     1.111   .     S
C30    C31     1.541   .     S
C30    H70     1.111   .     S
C30    C37     1.514   .     S
C30    H69     1.089   .     S
C31    H67     1.108   .     S
C31    H68     1.112   .     S
C31    C32     1.529   .     S
C32    H64     1.110   .     S
C32    H65     1.108   .     S
C32    H242    1.111   1_455 S
C33    H42     1.080   .     S
C33    C35     1.416   .     A
C34    N77     1.393   .     A
C35    N78     1.387   .     A
C36    N77     1.388   .     A
C36    C38     1.416   .     A
C37    N78     1.387   .     A
C38    H43     1.081   .     S
H39    C95     1.088   .     S
H50    C184    1.083   1_455 S
H66    C120    1.111   .     S
N77    Zn88    2.032   .     S
N78    Zn87    2.032   .     S
O79    Zn87    2.000   .     S
O80    Zn88    2.000   .     S
O81    Zn88    2.001   .     S
O82    Zn87    2.001   .     S
O83    Zn87    1.967   .     S
O84    Zn88    1.967   .     S
O85    Zn88    1.978   .     S
O86    Zn87    1.978   .     S
C89    O169    1.298   .     A
C89    O167    1.297   .     A
C89    C102    1.440   .     S
C90    H132    1.079   .     S
C90    C92     1.401   .     A
C90    C125    1.413   .     A
C91    C111    1.396   .     A
C91    C126    1.400   .     A
C91    C620    1.524   1_554 S
C92    C121    1.399   .     A
C92    C619    1.524   .     S
C93    O171    1.287   .     A
C93    O173    1.289   .     A
C93    C95     1.403   .     S
C94    O172    1.284   .     A
C94    C96     1.403   .     S
C94    O174    1.292   .     A
C96    C183    1.330   .     S
C96    H226    1.083   .     S
C97    C108    1.398   .     A
C97    C99     1.380   .     A
C97    H149    1.084   .     S
C98    H159    1.084   .     S
C98    C109    1.399   .     A
C98    C101    1.381   .     A
C99    C102    1.399   .     A
C99    H160    1.082   .     S
C100   C103    1.436   .     S
C100   O170    1.297   .     A
C100   O168    1.296   .     A
C101   H161    1.083   .     S
C101   C103    1.399   .     A
C102   C104    1.400   .     A
C103   C105    1.398   .     A
C104   H162    1.083   .     S
C104   C106    1.381   .     A
C105   C107    1.380   .     A
C105   H163    1.082   .     S
C106   C108    1.398   .     A
C106   H164    1.084   .     S
C107   C109    1.399   .     A
C107   H128    1.084   .     S
C108   C373    1.442   1_545 S
C109   C372    1.442   .     S
C110   H136    1.099   .     S
C110   C112    1.529   .     S
C110   C122    1.521   .     S
C110   H137    1.113   .     S
C111   C122    1.415   .     A
C111   H129    1.079   .     S
C112   H133    1.110   .     S
C112   H135    1.111   .     S
C112   H134    1.108   .     S
C113   H142    1.088   .     S
C113   C114    1.528   .     S
C113   C123    1.511   .     S
C113   H143    1.111   .     S
C114   H140    1.111   .     S
C114   H141    1.110   .     S
C114   H139    1.108   .     S
C115   H150    1.087   .     S
C115   H151    1.112   .     S
C115   C124    1.515   .     S
C115   C116    1.541   .     S
C116   C117    1.529   .     S
C116   H148    1.112   .     S
C116   H147    1.111   .     S
C117   H146    1.110   .     S
C117   H145    1.109   .     S
C117   H144    1.111   .     S
C118   C119    1.541   .     S
C118   H158    1.111   .     S
C118   C125    1.514   .     S
C118   H157    1.089   .     S
C119   H155    1.108   .     S
C119   H156    1.112   .     S
C119   C120    1.529   .     S
C120   H152    1.110   .     S
C120   H153    1.108   .     S
C121   H130    1.080   .     S
C121   C123    1.416   .     A
C122   N165    1.393   .     A
C123   N166    1.387   .     A
C124   N165    1.388   .     A
C124   C126    1.416   .     A
C125   N166    1.387   .     A
C126   H131    1.081   .     S
H127   C183    1.088   .     S
H154   C208    1.111   .     S
N165   Zn176   2.032   .     S
N166   Zn175   2.032   .     S
O167   Zn175   2.000   .     S
O168   Zn176   2.000   .     S
O169   Zn176   2.001   .     S
O170   Zn175   2.001   .     S
O171   Zn175   1.967   .     S
O172   Zn176   1.967   .     S
O173   Zn176   1.978   .     S
O174   Zn175   1.978   .     S
C177   O257    1.298   .     A
C177   O255    1.297   .     A
C177   C190    1.440   .     S
C178   H220    1.079   .     S
C178   C180    1.401   .     A
C178   C213    1.413   .     A
C179   C199    1.396   .     A
C179   C214    1.400   .     A
C179   C708    1.524   1_554 S
C180   C209    1.399   .     A
C180   C707    1.524   .     S
C181   O259    1.287   .     A
C181   O261    1.289   .     A
C181   C183    1.403   .     S
C182   O260    1.284   .     A
C182   C184    1.403   .     S
C182   O262    1.292   .     A
C184   C7      1.330   1_655 S
C184   H50     1.083   1_655 S
C185   C196    1.398   .     A
C185   C187    1.380   .     A
C185   H237    1.084   .     S
C186   H247    1.084   .     S
C186   C197    1.399   .     A
C186   C189    1.381   .     A
C187   C190    1.399   .     A
C187   H248    1.082   .     S
C188   C191    1.436   .     S
C188   O258    1.297   .     A
C188   O256    1.296   .     A
C189   H249    1.083   .     S
C189   C191    1.399   .     A
C190   C192    1.400   .     A
C191   C193    1.398   .     A
C192   H250    1.083   .     S
C192   C194    1.381   .     A
C193   C195    1.380   .     A
C193   H251    1.082   .     S
C194   C196    1.398   .     A
C194   H252    1.084   .     S
C195   C197    1.399   .     A
C195   H216    1.084   .     S
C196   C461    1.442   1_545 S
C197   C460    1.442   .     S
C198   H224    1.099   .     S
C198   C200    1.529   .     S
C198   C210    1.521   .     S
C198   H225    1.113   .     S
C199   C210    1.415   .     A
C199   H217    1.079   .     S
C200   H221    1.110   .     S
C200   H223    1.111   .     S
C200   H222    1.108   .     S
C201   H230    1.088   .     S
C201   C202    1.528   .     S
C201   C211    1.511   .     S
C201   H231    1.111   .     S
C202   H228    1.111   .     S
C202   H229    1.110   .     S
C202   H227    1.108   .     S
C203   H238    1.087   .     S
C203   H239    1.112   .     S
C203   C212    1.515   .     S
C203   C204    1.541   .     S
C204   C205    1.529   .     S
C204   H236    1.112   .     S
C204   H235    1.111   .     S
C205   H234    1.110   .     S
C205   H233    1.109   .     S
C205   H232    1.111   .     S
C206   C207    1.541   .     S
C206   H246    1.111   .     S
C206   C213    1.514   .     S
C206   H245    1.089   .     S
C207   H243    1.108   .     S
C207   H244    1.112   .     S
C207   C208    1.529   .     S
C208   H240    1.110   .     S
C208   H241    1.108   .     S
C209   H218    1.080   .     S
C209   C211    1.416   .     A
C210   N253    1.393   .     A
C211   N254    1.387   .     A
C212   N253    1.388   .     A
C212   C214    1.416   .     A
C213   N254    1.387   .     A
C214   H219    1.081   .     S
H215   C7      1.088   1_655 S
H242   C32     1.111   1_655 S
N253   Zn264   2.032   .     S
N254   Zn263   2.032   .     S
O255   Zn263   2.000   .     S
O256   Zn264   2.000   .     S
O257   Zn264   2.001   .     S
O258   Zn263   2.001   .     S
O259   Zn263   1.967   .     S
O260   Zn264   1.967   .     S
O261   Zn264   1.978   .     S
O262   Zn263   1.978   .     S
C265   O345    1.298   .     A
C265   O343    1.297   .     A
C265   C278    1.440   .     S
C266   H308    1.079   .     S
C266   C268    1.401   .     A
C266   C301    1.413   .     A
C267   C287    1.396   .     A
C267   C302    1.400   .     A
C267   C796    1.524   1_554 S
C268   C297    1.399   .     A
C268   C795    1.524   .     S
C269   O347    1.287   .     A
C269   O349    1.289   .     A
C269   C271    1.403   .     S
C270   O348    1.284   .     A
C270   C272    1.403   .     S
C270   O350    1.292   .     A
C271   C448    1.330   1_455 S
C271   H479    1.088   1_455 S
C272   C359    1.330   .     S
C272   H402    1.083   .     S
C273   C284    1.398   .     A
C273   C275    1.380   .     A
C273   H325    1.084   .     S
C274   H335    1.084   .     S
C274   C285    1.399   .     A
C274   C277    1.381   .     A
C275   C278    1.399   .     A
C275   H336    1.082   .     S
C276   C279    1.436   .     S
C276   O346    1.297   .     A
C276   O344    1.296   .     A
C277   H337    1.083   .     S
C277   C279    1.399   .     A
C278   C280    1.400   .     A
C279   C281    1.398   .     A
C280   H338    1.083   .     S
C280   C282    1.381   .     A
C281   C283    1.380   .     A
C281   H339    1.082   .     S
C282   C284    1.398   .     A
C282   H340    1.084   .     S
C283   C285    1.399   .     A
C283   H304    1.084   .     S
C285   C20     1.442   1_565 S
C286   H312    1.099   .     S
C286   C288    1.529   .     S
C286   C298    1.521   .     S
C286   H313    1.113   .     S
C287   C298    1.415   .     A
C287   H305    1.079   .     S
C288   H309    1.110   .     S
C288   H311    1.111   .     S
C288   H310    1.108   .     S
C289   H318    1.088   .     S
C289   C290    1.528   .     S
C289   C299    1.511   .     S
C289   H319    1.111   .     S
C290   H316    1.111   .     S
C290   H317    1.110   .     S
C290   H315    1.108   .     S
C291   H326    1.087   .     S
C291   H327    1.112   .     S
C291   C300    1.515   .     S
C291   C292    1.541   .     S
C292   C293    1.529   .     S
C292   H324    1.112   .     S
C292   H323    1.111   .     S
C293   H322    1.110   .     S
C293   H321    1.109   .     S
C293   H320    1.111   .     S
C294   C295    1.541   .     S
C294   H334    1.111   .     S
C294   C301    1.514   .     S
C294   H333    1.089   .     S
C295   H331    1.108   .     S
C295   H332    1.112   .     S
C295   C296    1.529   .     S
C296   H328    1.110   .     S
C296   H329    1.108   .     S
C296   H506    1.111   1_455 S
C297   H306    1.080   .     S
C297   C299    1.416   .     A
C298   N341    1.393   .     A
C299   N342    1.387   .     A
C300   N341    1.388   .     A
C300   C302    1.416   .     A
C301   N342    1.387   .     A
C302   H307    1.081   .     S
H303   C359    1.088   .     S
H314   C448    1.083   1_455 S
H330   C384    1.111   .     S
N341   Zn352   2.032   .     S
N342   Zn351   2.032   .     S
O343   Zn351   2.000   .     S
O344   Zn352   2.000   .     S
O345   Zn352   2.001   .     S
O346   Zn351   2.001   .     S
O347   Zn351   1.967   .     S
O348   Zn352   1.967   .     S
O349   Zn352   1.978   .     S
O350   Zn351   1.978   .     S
C353   O433    1.298   .     A
C353   O431    1.297   .     A
C353   C366    1.440   .     S
C354   H396    1.079   .     S
C354   C356    1.401   .     A
C354   C389    1.413   .     A
C355   C375    1.396   .     A
C355   C390    1.400   .     A
C355   C884    1.524   1_554 S
C356   C385    1.399   .     A
C356   C883    1.524   .     S
C357   O435    1.287   .     A
C357   O437    1.289   .     A
C357   C359    1.403   .     S
C358   O436    1.284   .     A
C358   C360    1.403   .     S
C358   O438    1.292   .     A
C360   C447    1.330   .     S
C360   H490    1.083   .     S
C361   C372    1.398   .     A
C361   C363    1.380   .     A
C361   H413    1.084   .     S
C362   H423    1.084   .     S
C362   C373    1.399   .     A
C362   C365    1.381   .     A
C363   C366    1.399   .     A
C363   H424    1.082   .     S
C364   C367    1.436   .     S
C364   O434    1.297   .     A
C364   O432    1.296   .     A
C365   H425    1.083   .     S
C365   C367    1.399   .     A
C366   C368    1.400   .     A
C367   C369    1.398   .     A
C368   H426    1.083   .     S
C368   C370    1.381   .     A
C369   C371    1.380   .     A
C369   H427    1.082   .     S
C370   C372    1.398   .     A
C370   H428    1.084   .     S
C371   C373    1.399   .     A
C371   H392    1.084   .     S
C373   C108    1.442   1_565 S
C374   H400    1.099   .     S
C374   C376    1.529   .     S
C374   C386    1.521   .     S
C374   H401    1.113   .     S
C375   C386    1.415   .     A
C375   H393    1.079   .     S
C376   H397    1.110   .     S
C376   H399    1.111   .     S
C376   H398    1.108   .     S
C377   H406    1.088   .     S
C377   C378    1.528   .     S
C377   C387    1.511   .     S
C377   H407    1.111   .     S
C378   H404    1.111   .     S
C378   H405    1.110   .     S
C378   H403    1.108   .     S
C379   H414    1.087   .     S
C379   H415    1.112   .     S
C379   C388    1.515   .     S
C379   C380    1.541   .     S
C380   C381    1.529   .     S
C380   H412    1.112   .     S
C380   H411    1.111   .     S
C381   H410    1.110   .     S
C381   H409    1.109   .     S
C381   H408    1.111   .     S
C382   C383    1.541   .     S
C382   H422    1.111   .     S
C382   C389    1.514   .     S
C382   H421    1.089   .     S
C383   H419    1.108   .     S
C383   H420    1.112   .     S
C383   C384    1.529   .     S
C384   H416    1.110   .     S
C384   H417    1.108   .     S
C385   H394    1.080   .     S
C385   C387    1.416   .     A
C386   N429    1.393   .     A
C387   N430    1.387   .     A
C388   N429    1.388   .     A
C388   C390    1.416   .     A
C389   N430    1.387   .     A
C390   H395    1.081   .     S
H391   C447    1.088   .     S
H418   C472    1.111   .     S
N429   Zn440   2.032   .     S
N430   Zn439   2.032   .     S
O431   Zn439   2.000   .     S
O432   Zn440   2.000   .     S
O433   Zn440   2.001   .     S
O434   Zn439   2.001   .     S
O435   Zn439   1.967   .     S
O436   Zn440   1.967   .     S
O437   Zn440   1.978   .     S
O438   Zn439   1.978   .     S
C441   O521    1.298   .     A
C441   O519    1.297   .     A
C441   C454    1.440   .     S
C442   H484    1.079   .     S
C442   C444    1.401   .     A
C442   C477    1.413   .     A
C443   C463    1.396   .     A
C443   C478    1.400   .     A
C443   C972    1.524   1_554 S
C444   C473    1.399   .     A
C444   C971    1.524   .     S
C445   O523    1.287   .     A
C445   O525    1.289   .     A
C445   C447    1.403   .     S
C446   O524    1.284   .     A
C446   C448    1.403   .     S
C446   O526    1.292   .     A
C448   C271    1.330   1_655 S
C448   H314    1.083   1_655 S
C449   C460    1.398   .     A
C449   C451    1.380   .     A
C449   H501    1.084   .     S
C450   H511    1.084   .     S
C450   C461    1.399   .     A
C450   C453    1.381   .     A
C451   C454    1.399   .     A
C451   H512    1.082   .     S
C452   C455    1.436   .     S
C452   O522    1.297   .     A
C452   O520    1.296   .     A
C453   H513    1.083   .     S
C453   C455    1.399   .     A
C454   C456    1.400   .     A
C455   C457    1.398   .     A
C456   H514    1.083   .     S
C456   C458    1.381   .     A
C457   C459    1.380   .     A
C457   H515    1.082   .     S
C458   C460    1.398   .     A
C458   H516    1.084   .     S
C459   C461    1.399   .     A
C459   H480    1.084   .     S
C461   C196    1.442   1_565 S
C462   H488    1.099   .     S
C462   C464    1.529   .     S
C462   C474    1.521   .     S
C462   H489    1.113   .     S
C463   C474    1.415   .     A
C463   H481    1.079   .     S
C464   H485    1.110   .     S
C464   H487    1.111   .     S
C464   H486    1.108   .     S
C465   H494    1.088   .     S
C465   C466    1.528   .     S
C465   C475    1.511   .     S
C465   H495    1.111   .     S
C466   H492    1.111   .     S
C466   H493    1.110   .     S
C466   H491    1.108   .     S
C467   H502    1.087   .     S
C467   H503    1.112   .     S
C467   C476    1.515   .     S
C467   C468    1.541   .     S
C468   C469    1.529   .     S
C468   H500    1.112   .     S
C468   H499    1.111   .     S
C469   H498    1.110   .     S
C469   H497    1.109   .     S
C469   H496    1.111   .     S
C470   C471    1.541   .     S
C470   H510    1.111   .     S
C470   C477    1.514   .     S
C470   H509    1.089   .     S
C471   H507    1.108   .     S
C471   H508    1.112   .     S
C471   C472    1.529   .     S
C472   H504    1.110   .     S
C472   H505    1.108   .     S
C473   H482    1.080   .     S
C473   C475    1.416   .     A
C474   N517    1.393   .     A
C475   N518    1.387   .     A
C476   N517    1.388   .     A
C476   C478    1.416   .     A
C477   N518    1.387   .     A
C478   H483    1.081   .     S
H479   C271    1.088   1_655 S
H506   C296    1.111   1_655 S
N517   Zn528   2.032   .     S
N518   Zn527   2.032   .     S
O519   Zn527   2.000   .     S
O520   Zn528   2.000   .     S
O521   Zn528   2.001   .     S
O522   Zn527   2.001   .     S
O523   Zn527   1.967   .     S
O524   Zn528   1.967   .     S
O525   Zn528   1.978   .     S
O526   Zn527   1.978   .     S
C529   O609    1.298   .     A
C529   O607    1.297   .     A
C529   C542    1.440   .     S
C530   H572    1.079   .     S
C530   C532    1.401   .     A
C530   C565    1.413   .     A
C531   C551    1.396   .     A
C531   C566    1.400   .     A
C532   C561    1.399   .     A
C532   C3      1.524   1_556 S
C533   O611    1.287   .     A
C533   O613    1.289   .     A
C533   C535    1.403   .     S
C534   O612    1.284   .     A
C534   C536    1.403   .     S
C534   O614    1.292   .     A
C535   C712    1.330   1_455 S
C535   H743    1.088   1_455 S
C536   C623    1.330   .     S
C536   H666    1.083   .     S
C537   C548    1.398   .     A
C537   C539    1.380   .     A
C537   H589    1.084   .     S
C538   H599    1.084   .     S
C538   C549    1.399   .     A
C538   C541    1.381   .     A
C539   C542    1.399   .     A
C539   H600    1.082   .     S
C540   C543    1.436   .     S
C540   O610    1.297   .     A
C540   O608    1.296   .     A
C541   H601    1.083   .     S
C541   C543    1.399   .     A
C542   C544    1.400   .     A
C543   C545    1.398   .     A
C544   H602    1.083   .     S
C544   C546    1.381   .     A
C545   C547    1.380   .     A
C545   H603    1.082   .     S
C546   C548    1.398   .     A
C546   H604    1.084   .     S
C547   C549    1.399   .     A
C547   H568    1.084   .     S
C548   C813    1.442   1_545 S
C549   C812    1.442   .     S
C550   H576    1.099   .     S
C550   C552    1.529   .     S
C550   C562    1.521   .     S
C550   H577    1.113   .     S
C551   C562    1.415   .     A
C551   H569    1.079   .     S
C552   H573    1.110   .     S
C552   H575    1.111   .     S
C552   H574    1.108   .     S
C553   H582    1.088   .     S
C553   C554    1.528   .     S
C553   C563    1.511   .     S
C553   H583    1.111   .     S
C554   H580    1.111   .     S
C554   H581    1.110   .     S
C554   H579    1.108   .     S
C555   H590    1.087   .     S
C555   H591    1.112   .     S
C555   C564    1.515   .     S
C555   C556    1.541   .     S
C556   C557    1.529   .     S
C556   H588    1.112   .     S
C556   H587    1.111   .     S
C557   H586    1.110   .     S
C557   H585    1.109   .     S
C557   H584    1.111   .     S
C558   C559    1.541   .     S
C558   H598    1.111   .     S
C558   C565    1.514   .     S
C558   H597    1.089   .     S
C559   H595    1.108   .     S
C559   H596    1.112   .     S
C559   C560    1.529   .     S
C560   H592    1.110   .     S
C560   H593    1.108   .     S
C560   H770    1.111   1_455 S
C561   H570    1.080   .     S
C561   C563    1.416   .     A
C562   N605    1.393   .     A
C563   N606    1.387   .     A
C564   N605    1.388   .     A
C564   C566    1.416   .     A
C565   N606    1.387   .     A
C566   H571    1.081   .     S
H567   C623    1.088   .     S
H578   C712    1.083   1_455 S
H594   C648    1.111   .     S
N605   Zn616   2.032   .     S
N606   Zn615   2.032   .     S
O607   Zn615   2.000   .     S
O608   Zn616   2.000   .     S
O609   Zn616   2.001   .     S
O610   Zn615   2.001   .     S
O611   Zn615   1.967   .     S
O612   Zn616   1.967   .     S
O613   Zn616   1.978   .     S
O614   Zn615   1.978   .     S
C617   O697    1.298   .     A
C617   O695    1.297   .     A
C617   C630    1.440   .     S
C618   H660    1.079   .     S
C618   C620    1.401   .     A
C618   C653    1.413   .     A
C619   C639    1.396   .     A
C619   C654    1.400   .     A
C620   C649    1.399   .     A
C620   C91     1.524   1_556 S
C621   O699    1.287   .     A
C621   O701    1.289   .     A
C621   C623    1.403   .     S
C622   O700    1.284   .     A
C622   C624    1.403   .     S
C622   O702    1.292   .     A
C624   C711    1.330   .     S
C624   H754    1.083   .     S
C625   C636    1.398   .     A
C625   C627    1.380   .     A
C625   H677    1.084   .     S
C626   H687    1.084   .     S
C626   C637    1.399   .     A
C626   C629    1.381   .     A
C627   C630    1.399   .     A
C627   H688    1.082   .     S
C628   C631    1.436   .     S
C628   O698    1.297   .     A
C628   O696    1.296   .     A
C629   H689    1.083   .     S
C629   C631    1.399   .     A
C630   C632    1.400   .     A
C631   C633    1.398   .     A
C632   H690    1.083   .     S
C632   C634    1.381   .     A
C633   C635    1.380   .     A
C633   H691    1.082   .     S
C634   C636    1.398   .     A
C634   H692    1.084   .     S
C635   C637    1.399   .     A
C635   H656    1.084   .     S
C636   C901    1.442   1_545 S
C637   C900    1.442   .     S
C638   H664    1.099   .     S
C638   C640    1.529   .     S
C638   C650    1.521   .     S
C638   H665    1.113   .     S
C639   C650    1.415   .     A
C639   H657    1.079   .     S
C640   H661    1.110   .     S
C640   H663    1.111   .     S
C640   H662    1.108   .     S
C641   H670    1.088   .     S
C641   C642    1.528   .     S
C641   C651    1.511   .     S
C641   H671    1.111   .     S
C642   H668    1.111   .     S
C642   H669    1.110   .     S
C642   H667    1.108   .     S
C643   H678    1.087   .     S
C643   H679    1.112   .     S
C643   C652    1.515   .     S
C643   C644    1.541   .     S
C644   C645    1.529   .     S
C644   H676    1.112   .     S
C644   H675    1.111   .     S
C645   H674    1.110   .     S
C645   H673    1.109   .     S
C645   H672    1.111   .     S
C646   C647    1.541   .     S
C646   H686    1.111   .     S
C646   C653    1.514   .     S
C646   H685    1.089   .     S
C647   H683    1.108   .     S
C647   H684    1.112   .     S
C647   C648    1.529   .     S
C648   H680    1.110   .     S
C648   H681    1.108   .     S
C649   H658    1.080   .     S
C649   C651    1.416   .     A
C650   N693    1.393   .     A
C651   N694    1.387   .     A
C652   N693    1.388   .     A
C652   C654    1.416   .     A
C653   N694    1.387   .     A
C654   H659    1.081   .     S
H655   C711    1.088   .     S
H682   C736    1.111   .     S
N693   Zn704   2.032   .     S
N694   Zn703   2.032   .     S
O695   Zn703   2.000   .     S
O696   Zn704   2.000   .     S
O697   Zn704   2.001   .     S
O698   Zn703   2.001   .     S
O699   Zn703   1.967   .     S
O700   Zn704   1.967   .     S
O701   Zn704   1.978   .     S
O702   Zn703   1.978   .     S
C705   O785    1.298   .     A
C705   O783    1.297   .     A
C705   C718    1.440   .     S
C706   H748    1.079   .     S
C706   C708    1.401   .     A
C706   C741    1.413   .     A
C707   C727    1.396   .     A
C707   C742    1.400   .     A
C708   C737    1.399   .     A
C708   C179    1.524   1_556 S
C709   O787    1.287   .     A
C709   O789    1.289   .     A
C709   C711    1.403   .     S
C710   O788    1.284   .     A
C710   C712    1.403   .     S
C710   O790    1.292   .     A
C712   C535    1.330   1_655 S
C712   H578    1.083   1_655 S
C713   C724    1.398   .     A
C713   C715    1.380   .     A
C713   H765    1.084   .     S
C714   H775    1.084   .     S
C714   C725    1.399   .     A
C714   C717    1.381   .     A
C715   C718    1.399   .     A
C715   H776    1.082   .     S
C716   C719    1.436   .     S
C716   O786    1.297   .     A
C716   O784    1.296   .     A
C717   H777    1.083   .     S
C717   C719    1.399   .     A
C718   C720    1.400   .     A
C719   C721    1.398   .     A
C720   H778    1.083   .     S
C720   C722    1.381   .     A
C721   C723    1.380   .     A
C721   H779    1.082   .     S
C722   C724    1.398   .     A
C722   H780    1.084   .     S
C723   C725    1.399   .     A
C723   H744    1.084   .     S
C724   C989    1.442   1_545 S
C725   C988    1.442   .     S
C726   H752    1.099   .     S
C726   C728    1.529   .     S
C726   C738    1.521   .     S
C726   H753    1.113   .     S
C727   C738    1.415   .     A
C727   H745    1.079   .     S
C728   H749    1.110   .     S
C728   H751    1.111   .     S
C728   H750    1.108   .     S
C729   H758    1.088   .     S
C729   C730    1.528   .     S
C729   C739    1.511   .     S
C729   H759    1.111   .     S
C730   H756    1.111   .     S
C730   H757    1.110   .     S
C730   H755    1.108   .     S
C731   H766    1.087   .     S
C731   H767    1.112   .     S
C731   C740    1.515   .     S
C731   C732    1.541   .     S
C732   C733    1.529   .     S
C732   H764    1.112   .     S
C732   H763    1.111   .     S
C733   H762    1.110   .     S
C733   H761    1.109   .     S
C733   H760    1.111   .     S
C734   C735    1.541   .     S
C734   H774    1.111   .     S
C734   C741    1.514   .     S
C734   H773    1.089   .     S
C735   H771    1.108   .     S
C735   H772    1.112   .     S
C735   C736    1.529   .     S
C736   H768    1.110   .     S
C736   H769    1.108   .     S
C737   H746    1.080   .     S
C737   C739    1.416   .     A
C738   N781    1.393   .     A
C739   N782    1.387   .     A
C740   N781    1.388   .     A
C740   C742    1.416   .     A
C741   N782    1.387   .     A
C742   H747    1.081   .     S
H743   C535    1.088   1_655 S
H770   C560    1.111   1_655 S
N781   Zn792   2.032   .     S
N782   Zn791   2.032   .     S
O783   Zn791   2.000   .     S
O784   Zn792   2.000   .     S
O785   Zn792   2.001   .     S
O786   Zn791   2.001   .     S
O787   Zn791   1.967   .     S
O788   Zn792   1.967   .     S
O789   Zn792   1.978   .     S
O790   Zn791   1.978   .     S
C793   O873    1.298   .     A
C793   O871    1.297   .     A
C793   C806    1.440   .     S
C794   H836    1.079   .     S
C794   C796    1.401   .     A
C794   C829    1.413   .     A
C795   C815    1.396   .     A
C795   C830    1.400   .     A
C796   C825    1.399   .     A
C796   C267    1.524   1_556 S
C797   O875    1.287   .     A
C797   O877    1.289   .     A
C797   C799    1.403   .     S
C798   O876    1.284   .     A
C798   C800    1.403   .     S
C798   O878    1.292   .     A
C799   C976    1.330   1_455 S
C799   H1007   1.088   1_455 S
C800   C887    1.330   .     S
C800   H930    1.083   .     S
C801   C812    1.398   .     A
C801   C803    1.380   .     A
C801   H853    1.084   .     S
C802   H863    1.084   .     S
C802   C813    1.399   .     A
C802   C805    1.381   .     A
C803   C806    1.399   .     A
C803   H864    1.082   .     S
C804   C807    1.436   .     S
C804   O874    1.297   .     A
C804   O872    1.296   .     A
C805   H865    1.083   .     S
C805   C807    1.399   .     A
C806   C808    1.400   .     A
C807   C809    1.398   .     A
C808   H866    1.083   .     S
C808   C810    1.381   .     A
C809   C811    1.380   .     A
C809   H867    1.082   .     S
C810   C812    1.398   .     A
C810   H868    1.084   .     S
C811   C813    1.399   .     A
C811   H832    1.084   .     S
C813   C548    1.442   1_565 S
C814   H840    1.099   .     S
C814   C816    1.529   .     S
C814   C826    1.521   .     S
C814   H841    1.113   .     S
C815   C826    1.415   .     A
C815   H833    1.079   .     S
C816   H837    1.110   .     S
C816   H839    1.111   .     S
C816   H838    1.108   .     S
C817   H846    1.088   .     S
C817   C818    1.528   .     S
C817   C827    1.511   .     S
C817   H847    1.111   .     S
C818   H844    1.111   .     S
C818   H845    1.110   .     S
C818   H843    1.108   .     S
C819   H854    1.087   .     S
C819   H855    1.112   .     S
C819   C828    1.515   .     S
C819   C820    1.541   .     S
C820   C821    1.529   .     S
C820   H852    1.112   .     S
C820   H851    1.111   .     S
C821   H850    1.110   .     S
C821   H849    1.109   .     S
C821   H848    1.111   .     S
C822   C823    1.541   .     S
C822   H862    1.111   .     S
C822   C829    1.514   .     S
C822   H861    1.089   .     S
C823   H859    1.108   .     S
C823   H860    1.112   .     S
C823   C824    1.529   .     S
C824   H856    1.110   .     S
C824   H857    1.108   .     S
C824   H1034   1.111   1_455 S
C825   H834    1.080   .     S
C825   C827    1.416   .     A
C826   N869    1.393   .     A
C827   N870    1.387   .     A
C828   N869    1.388   .     A
C828   C830    1.416   .     A
C829   N870    1.387   .     A
C830   H835    1.081   .     S
H831   C887    1.088   .     S
H842   C976    1.083   1_455 S
H858   C912    1.111   .     S
N869   Zn880   2.032   .     S
N870   Zn879   2.032   .     S
O871   Zn879   2.000   .     S
O872   Zn880   2.000   .     S
O873   Zn880   2.001   .     S
O874   Zn879   2.001   .     S
O875   Zn879   1.967   .     S
O876   Zn880   1.967   .     S
O877   Zn880   1.978   .     S
O878   Zn879   1.978   .     S
C881   O961    1.298   .     A
C881   O959    1.297   .     A
C881   C894    1.440   .     S
C882   H924    1.079   .     S
C882   C884    1.401   .     A
C882   C917    1.413   .     A
C883   C903    1.396   .     A
C883   C918    1.400   .     A
C884   C913    1.399   .     A
C884   C355    1.524   1_556 S
C885   O963    1.287   .     A
C885   O965    1.289   .     A
C885   C887    1.403   .     S
C886   O964    1.284   .     A
C886   C888    1.403   .     S
C886   O966    1.292   .     A
C888   C975    1.330   .     S
C888   H1018   1.083   .     S
C889   C900    1.398   .     A
C889   C891    1.380   .     A
C889   H941    1.084   .     S
C890   H951    1.084   .     S
C890   C901    1.399   .     A
C890   C893    1.381   .     A
C891   C894    1.399   .     A
C891   H952    1.082   .     S
C892   C895    1.436   .     S
C892   O962    1.297   .     A
C892   O960    1.296   .     A
C893   H953    1.083   .     S
C893   C895    1.399   .     A
C894   C896    1.400   .     A
C895   C897    1.398   .     A
C896   H954    1.083   .     S
C896   C898    1.381   .     A
C897   C899    1.380   .     A
C897   H955    1.082   .     S
C898   C900    1.398   .     A
C898   H956    1.084   .     S
C899   C901    1.399   .     A
C899   H920    1.084   .     S
C901   C636    1.442   1_565 S
C902   H928    1.099   .     S
C902   C904    1.529   .     S
C902   C914    1.521   .     S
C902   H929    1.113   .     S
C903   C914    1.415   .     A
C903   H921    1.079   .     S
C904   H925    1.110   .     S
C904   H927    1.111   .     S
C904   H926    1.108   .     S
C905   H934    1.088   .     S
C905   C906    1.528   .     S
C905   C915    1.511   .     S
C905   H935    1.111   .     S
C906   H932    1.111   .     S
C906   H933    1.110   .     S
C906   H931    1.108   .     S
C907   H942    1.087   .     S
C907   H943    1.112   .     S
C907   C916    1.515   .     S
C907   C908    1.541   .     S
C908   C909    1.529   .     S
C908   H940    1.112   .     S
C908   H939    1.111   .     S
C909   H938    1.110   .     S
C909   H937    1.109   .     S
C909   H936    1.111   .     S
C910   C911    1.541   .     S
C910   H950    1.111   .     S
C910   C917    1.514   .     S
C910   H949    1.089   .     S
C911   H947    1.108   .     S
C911   H948    1.112   .     S
C911   C912    1.529   .     S
C912   H944    1.110   .     S
C912   H945    1.108   .     S
C913   H922    1.080   .     S
C913   C915    1.416   .     A
C914   N957    1.393   .     A
C915   N958    1.387   .     A
C916   N957    1.388   .     A
C916   C918    1.416   .     A
C917   N958    1.387   .     A
C918   H923    1.081   .     S
H919   C975    1.088   .     S
H946   C1000   1.111   .     S
N957   Zn968   2.032   .     S
N958   Zn967   2.032   .     S
O959   Zn967   2.000   .     S
O960   Zn968   2.000   .     S
O961   Zn968   2.001   .     S
O962   Zn967   2.001   .     S
O963   Zn967   1.967   .     S
O964   Zn968   1.967   .     S
O965   Zn968   1.978   .     S
O966   Zn967   1.978   .     S
C969   O1049   1.298   .     A
C969   O1047   1.297   .     A
C969   C982    1.440   .     S
C970   H1012   1.079   .     S
C970   C972    1.401   .     A
C970   C1005   1.413   .     A
C971   C991    1.396   .     A
C971   C1006   1.400   .     A
C972   C1001   1.399   .     A
C972   C443    1.524   1_556 S
C973   O1051   1.287   .     A
C973   O1053   1.289   .     A
C973   C975    1.403   .     S
C974   O1052   1.284   .     A
C974   C976    1.403   .     S
C974   O1054   1.292   .     A
C976   C799    1.330   1_655 S
C976   H842    1.083   1_655 S
C977   C988    1.398   .     A
C977   C979    1.380   .     A
C977   H1029   1.084   .     S
C978   H1039   1.084   .     S
C978   C989    1.399   .     A
C978   C981    1.381   .     A
C979   C982    1.399   .     A
C979   H1040   1.082   .     S
C980   C983    1.436   .     S
C980   O1050   1.297   .     A
C980   O1048   1.296   .     A
C981   H1041   1.083   .     S
C981   C983    1.399   .     A
C982   C984    1.400   .     A
C983   C985    1.398   .     A
C984   H1042   1.083   .     S
C984   C986    1.381   .     A
C985   C987    1.380   .     A
C985   H1043   1.082   .     S
C986   C988    1.398   .     A
C986   H1044   1.084   .     S
C987   C989    1.399   .     A
C987   H1008   1.084   .     S
C989   C724    1.442   1_565 S
C990   H1016   1.099   .     S
C990   C992    1.529   .     S
C990   C1002   1.521   .     S
C990   H1017   1.113   .     S
C991   C1002   1.415   .     A
C991   H1009   1.079   .     S
C992   H1013   1.110   .     S
C992   H1015   1.111   .     S
C992   H1014   1.108   .     S
C993   H1022   1.088   .     S
C993   C994    1.528   .     S
C993   C1003   1.511   .     S
C993   H1023   1.111   .     S
C994   H1020   1.111   .     S
C994   H1021   1.110   .     S
C994   H1019   1.108   .     S
C995   H1030   1.087   .     S
C995   H1031   1.112   .     S
C995   C1004   1.515   .     S
C995   C996    1.541   .     S
C996   C997    1.529   .     S
C996   H1028   1.112   .     S
C996   H1027   1.111   .     S
C997   H1026   1.110   .     S
C997   H1025   1.109   .     S
C997   H1024   1.111   .     S
C998   C999    1.541   .     S
C998   H1038   1.111   .     S
C998   C1005   1.514   .     S
C998   H1037   1.089   .     S
C999   H1035   1.108   .     S
C999   H1036   1.112   .     S
C999   C1000   1.529   .     S
C1000  H1032   1.110   .     S
C1000  H1033   1.108   .     S
C1001  H1010   1.080   .     S
C1001  C1003   1.416   .     A
C1002  N1045   1.393   .     A
C1003  N1046   1.387   .     A
C1004  N1045   1.388   .     A
C1004  C1006   1.416   .     A
C1005  N1046   1.387   .     A
C1006  H1011   1.081   .     S
H1007  C799    1.088   1_655 S
H1034  C824    1.111   1_655 S
N1045  Zn1056  2.032   .     S
N1046  Zn1055  2.032   .     S
O1047  Zn1055  2.000   .     S
O1048  Zn1056  2.000   .     S
O1049  Zn1056  2.001   .     S
O1050  Zn1055  2.001   .     S
O1051  Zn1055  1.967   .     S
O1052  Zn1056  1.967   .     S
O1053  Zn1056  1.978   .     S
O1054  Zn1055  1.978   .     S
