data_str_m3_o1_o17_pcu_sym.156
_audit_creation_date              2020-01-03
_audit_creation_method            'Materials Studio'
_symmetry_space_group_name_H-M    'P1'
_symmetry_Int_Tables_number       1
_symmetry_cell_setting            triclinic
loop_
_symmetry_equiv_pos_as_xyz
  x,y,z
_cell_length_a                    32.0605
_cell_length_b                    29.5412
_cell_length_c                    29.7814
_cell_angle_alpha                 89.9170
_cell_angle_beta                  89.9029
_cell_angle_gamma                 90.1088
loop_
_atom_site_label
_atom_site_type_symbol
_atom_site_fract_x
_atom_site_fract_y
_atom_site_fract_z
_atom_site_U_iso_or_equiv
_atom_site_adp_type
_atom_site_occupancy
O1     O     0.10559   0.20487   0.25000   0.00000  Uiso   1.00
O2     O     0.22774   0.12846   0.25000   0.00000  Uiso   1.00
O3     O     0.22774   0.20487   0.25001   0.00000  Uiso   1.00
O4     O     0.10559   0.12846   0.25000   0.00000  Uiso   1.00
C5     C     0.08665   0.16664   0.24992   0.00000  Uiso   1.00
C6     C     0.24668   0.16670   0.25011   0.00000  Uiso   1.00
O7     O     0.16666   0.20489   0.18393   0.00000  Uiso   1.00
O8     O     0.16667   0.12844   0.31607   0.00000  Uiso   1.00
O9     O     0.16667   0.20489   0.31608   0.00000  Uiso   1.00
O10    O     0.16666   0.12844   0.18392   0.00000  Uiso   1.00
C11    C     0.16556   0.16668   0.16348   0.00000  Uiso   1.00
C12    C     0.16695   0.16659   0.33643   0.00000  Uiso   1.00
Zn13   Zn    0.16667   0.21771   0.25000   0.00000  Uiso   1.00
Zn14   Zn    0.16667   0.11563   0.25000   0.00000  Uiso   1.00
C15    C     0.20485   0.15552   0.40703   0.00000  Uiso   1.00
C16    C     0.12795   0.18020   0.09244   0.00000  Uiso   1.00
C17    C     0.16778   0.16585   0.38414   0.00000  Uiso   1.00
C18    C     0.16390   0.16607   0.11562   0.00000  Uiso   1.00
C19    C     0.13006   0.17191   0.40598   0.00000  Uiso   1.00
C20    C     0.19825   0.14805   0.09372   0.00000  Uiso   1.00
C21    C     0.12840   0.16944   0.45214   0.00000  Uiso   1.00
C22    C     0.19883   0.14608   0.04752   0.00000  Uiso   1.00
C23    C     0.16460   0.15803   0.47636   0.00000  Uiso   1.00
C24    C     0.16293   0.15824   0.02325   0.00000  Uiso   1.00
C25    C     0.20252   0.14728   0.45372   0.00000  Uiso   1.00
C26    C     0.12566   0.17129   0.04588   0.00000  Uiso   1.00
C27    C     0.09048   0.17626   0.47406   0.00000  Uiso   1.00
C28    C     0.23448   0.13056   0.02561   0.00000  Uiso   1.00
C29    C     0.08821   0.17520   0.02074   0.00000  Uiso   1.00
C30    C     0.23628   0.12938   0.47893   0.00000  Uiso   1.00
H31    H     0.10206   0.17914   0.38678   0.00000  Uiso   1.00
H32    H     0.22525   0.13720   0.11288   0.00000  Uiso   1.00
H33    H     0.06218   0.18078   0.45467   0.00000  Uiso   1.00
H34    H     0.26068   0.11800   0.04494   0.00000  Uiso   1.00
C35    C     0.02127   0.12800   0.26456   0.00000  Uiso   1.00
C36    C     0.31206   0.20537   0.23562   0.00000  Uiso   1.00
C37    C     0.31187   0.12809   0.26477   0.00000  Uiso   1.00
C38    C     0.02146   0.20528   0.23541   0.00000  Uiso   1.00
H39    H     0.03759   0.09813   0.27622   0.00000  Uiso   1.00
H40    H     0.29575   0.23525   0.22395   0.00000  Uiso   1.00
H41    H     0.29540   0.09828   0.27657   0.00000  Uiso   1.00
H42    H     0.03792   0.23509   0.22359   0.00000  Uiso   1.00
C43    C     0.29082   0.16675   0.25023   0.00000  Uiso   1.00
C44    C     0.04251   0.16661   0.24990   0.00000  Uiso   1.00
C45    C     0.19425   0.02400   0.27592   0.00000  Uiso   1.00
C46    C     0.13905   0.30934   0.22412   0.00000  Uiso   1.00
C47    C     0.13907   0.02396   0.22410   0.00000  Uiso   1.00
C48    C     0.19426   0.30938   0.27591   0.00000  Uiso   1.00
H49    H     0.21629   0.04218   0.29667   0.00000  Uiso   1.00
H50    H     0.11694   0.29118   0.20347   0.00000  Uiso   1.00
H51    H     0.11700   0.04210   0.20339   0.00000  Uiso   1.00
H52    H     0.21631   0.29123   0.29664   0.00000  Uiso   1.00
N53    N     0.16667   0.28573   0.25000   0.00000  Uiso   1.00
N54    N     0.16667   0.04760   0.25000   0.00000  Uiso   1.00
C55    C     0.24599   0.15904   0.38182   0.00000  Uiso   1.00
H56    H     0.27223   0.16802   0.40432   0.00000  Uiso   1.00
H57    H     0.25250   0.12706   0.36362   0.00000  Uiso   1.00
H58    H     0.24492   0.18699   0.35685   0.00000  Uiso   1.00
C59    C     0.09529   0.20786   0.11718   0.00000  Uiso   1.00
H60    H     0.07401   0.22629   0.09443   0.00000  Uiso   1.00
H61    H     0.07722   0.18590   0.14045   0.00000  Uiso   1.00
H62    H     0.11049   0.23514   0.13674   0.00000  Uiso   1.00
N63    N     0.04767   0.17219   0.04125   0.00000  Uiso   1.00
O64    O     0.01638   0.19450   0.02445   0.00000  Uiso   1.00
O65    O     0.04049   0.14172   0.07191   0.00000  Uiso   1.00
N66    N     0.27006   0.10515   0.45838   0.00000  Uiso   1.00
O67    O     0.30779   0.10949   0.47389   0.00000  Uiso   1.00
O68    O     0.26201   0.07256   0.43033   0.00000  Uiso   1.00
O69    O     0.43892   0.20487   0.25000   0.00000  Uiso   1.00
O70    O     0.56108   0.12846   0.25000   0.00000  Uiso   1.00
O71    O     0.56108   0.20487   0.25001   0.00000  Uiso   1.00
O72    O     0.43892   0.12846   0.25000   0.00000  Uiso   1.00
C73    C     0.41998   0.16664   0.24992   0.00000  Uiso   1.00
C74    C     0.58002   0.16670   0.25011   0.00000  Uiso   1.00
O75    O     0.49999   0.20489   0.18393   0.00000  Uiso   1.00
O76    O     0.50001   0.12844   0.31607   0.00000  Uiso   1.00
O77    O     0.50001   0.20489   0.31608   0.00000  Uiso   1.00
O78    O     0.49999   0.12844   0.18392   0.00000  Uiso   1.00
C79    C     0.49889   0.16668   0.16348   0.00000  Uiso   1.00
C80    C     0.50029   0.16659   0.33643   0.00000  Uiso   1.00
Zn81   Zn    0.50000   0.21771   0.25000   0.00000  Uiso   1.00
Zn82   Zn    0.50000   0.11563   0.25000   0.00000  Uiso   1.00
C83    C     0.53818   0.15552   0.40703   0.00000  Uiso   1.00
C84    C     0.46129   0.18020   0.09244   0.00000  Uiso   1.00
C85    C     0.50111   0.16585   0.38414   0.00000  Uiso   1.00
C86    C     0.49724   0.16607   0.11562   0.00000  Uiso   1.00
C87    C     0.46339   0.17191   0.40598   0.00000  Uiso   1.00
C88    C     0.53158   0.14805   0.09372   0.00000  Uiso   1.00
C89    C     0.46174   0.16944   0.45214   0.00000  Uiso   1.00
C90    C     0.53216   0.14608   0.04752   0.00000  Uiso   1.00
C91    C     0.49793   0.15803   0.47636   0.00000  Uiso   1.00
C92    C     0.49626   0.15824   0.02325   0.00000  Uiso   1.00
C93    C     0.53585   0.14728   0.45372   0.00000  Uiso   1.00
C94    C     0.45899   0.17129   0.04588   0.00000  Uiso   1.00
C95    C     0.42381   0.17626   0.47406   0.00000  Uiso   1.00
C96    C     0.56782   0.13056   0.02561   0.00000  Uiso   1.00
C97    C     0.42154   0.17520   0.02074   0.00000  Uiso   1.00
C98    C     0.56961   0.12938   0.47893   0.00000  Uiso   1.00
H99    H     0.43540   0.17914   0.38678   0.00000  Uiso   1.00
H100   H     0.55859   0.13720   0.11288   0.00000  Uiso   1.00
H101   H     0.39551   0.18078   0.45467   0.00000  Uiso   1.00
H102   H     0.59401   0.11800   0.04494   0.00000  Uiso   1.00
C103   C     0.35460   0.12800   0.26456   0.00000  Uiso   1.00
C104   C     0.64540   0.20537   0.23562   0.00000  Uiso   1.00
C105   C     0.64521   0.12809   0.26477   0.00000  Uiso   1.00
C106   C     0.35479   0.20528   0.23541   0.00000  Uiso   1.00
H107   H     0.37093   0.09813   0.27622   0.00000  Uiso   1.00
H108   H     0.62908   0.23525   0.22395   0.00000  Uiso   1.00
H109   H     0.62874   0.09828   0.27657   0.00000  Uiso   1.00
H110   H     0.37126   0.23509   0.22359   0.00000  Uiso   1.00
C111   C     0.62415   0.16675   0.25023   0.00000  Uiso   1.00
C112   C     0.37584   0.16661   0.24990   0.00000  Uiso   1.00
C113   C     0.52758   0.02400   0.27592   0.00000  Uiso   1.00
C114   C     0.47239   0.30934   0.22412   0.00000  Uiso   1.00
C115   C     0.47240   0.02396   0.22410   0.00000  Uiso   1.00
C116   C     0.52759   0.30938   0.27591   0.00000  Uiso   1.00
H117   H     0.54963   0.04218   0.29667   0.00000  Uiso   1.00
H118   H     0.45027   0.29118   0.20347   0.00000  Uiso   1.00
H119   H     0.45034   0.04210   0.20339   0.00000  Uiso   1.00
H120   H     0.54964   0.29123   0.29664   0.00000  Uiso   1.00
N121   N     0.50000   0.28573   0.25000   0.00000  Uiso   1.00
N122   N     0.50000   0.04760   0.25000   0.00000  Uiso   1.00
C123   C     0.57932   0.15904   0.38182   0.00000  Uiso   1.00
H124   H     0.60556   0.16802   0.40432   0.00000  Uiso   1.00
H125   H     0.58583   0.12706   0.36362   0.00000  Uiso   1.00
H126   H     0.57825   0.18699   0.35685   0.00000  Uiso   1.00
C127   C     0.42863   0.20786   0.11718   0.00000  Uiso   1.00
H128   H     0.40735   0.22629   0.09443   0.00000  Uiso   1.00
H129   H     0.41056   0.18590   0.14045   0.00000  Uiso   1.00
H130   H     0.44383   0.23514   0.13674   0.00000  Uiso   1.00
N131   N     0.38100   0.17219   0.04125   0.00000  Uiso   1.00
O132   O     0.34972   0.19450   0.02445   0.00000  Uiso   1.00
O133   O     0.37382   0.14172   0.07191   0.00000  Uiso   1.00
N134   N     0.60339   0.10515   0.45838   0.00000  Uiso   1.00
O135   O     0.64112   0.10949   0.47389   0.00000  Uiso   1.00
O136   O     0.59535   0.07256   0.43033   0.00000  Uiso   1.00
O137   O     0.77226   0.20487   0.25000   0.00000  Uiso   1.00
O138   O     0.89441   0.12846   0.25000   0.00000  Uiso   1.00
O139   O     0.89441   0.20487   0.25001   0.00000  Uiso   1.00
O140   O     0.77226   0.12846   0.25000   0.00000  Uiso   1.00
C141   C     0.75332   0.16664   0.24992   0.00000  Uiso   1.00
C142   C     0.91335   0.16670   0.25011   0.00000  Uiso   1.00
O143   O     0.83333   0.20489   0.18393   0.00000  Uiso   1.00
O144   O     0.83334   0.12844   0.31607   0.00000  Uiso   1.00
O145   O     0.83334   0.20489   0.31608   0.00000  Uiso   1.00
O146   O     0.83333   0.12844   0.18392   0.00000  Uiso   1.00
C147   C     0.83222   0.16668   0.16348   0.00000  Uiso   1.00
C148   C     0.83362   0.16659   0.33643   0.00000  Uiso   1.00
Zn149  Zn    0.83333   0.21771   0.25000   0.00000  Uiso   1.00
Zn150  Zn    0.83333   0.11563   0.25000   0.00000  Uiso   1.00
C151   C     0.87152   0.15552   0.40703   0.00000  Uiso   1.00
C152   C     0.79462   0.18020   0.09244   0.00000  Uiso   1.00
C153   C     0.83445   0.16585   0.38414   0.00000  Uiso   1.00
C154   C     0.83057   0.16607   0.11562   0.00000  Uiso   1.00
C155   C     0.79673   0.17191   0.40598   0.00000  Uiso   1.00
C156   C     0.86491   0.14805   0.09372   0.00000  Uiso   1.00
C157   C     0.79507   0.16944   0.45214   0.00000  Uiso   1.00
C158   C     0.86550   0.14608   0.04752   0.00000  Uiso   1.00
C159   C     0.83126   0.15803   0.47636   0.00000  Uiso   1.00
C160   C     0.82960   0.15824   0.02325   0.00000  Uiso   1.00
C161   C     0.86919   0.14728   0.45372   0.00000  Uiso   1.00
C162   C     0.79233   0.17129   0.04588   0.00000  Uiso   1.00
C163   C     0.75714   0.17626   0.47406   0.00000  Uiso   1.00
C164   C     0.90115   0.13056   0.02561   0.00000  Uiso   1.00
C165   C     0.75488   0.17520   0.02074   0.00000  Uiso   1.00
C166   C     0.90294   0.12938   0.47893   0.00000  Uiso   1.00
H167   H     0.76873   0.17914   0.38678   0.00000  Uiso   1.00
H168   H     0.89192   0.13720   0.11288   0.00000  Uiso   1.00
H169   H     0.72885   0.18078   0.45467   0.00000  Uiso   1.00
H170   H     0.92735   0.11800   0.04494   0.00000  Uiso   1.00
C171   C     0.68794   0.12800   0.26456   0.00000  Uiso   1.00
C172   C     0.97873   0.20537   0.23562   0.00000  Uiso   1.00
C173   C     0.97854   0.12809   0.26477   0.00000  Uiso   1.00
C174   C     0.68812   0.20528   0.23541   0.00000  Uiso   1.00
H175   H     0.70426   0.09813   0.27622   0.00000  Uiso   1.00
H176   H     0.96241   0.23525   0.22395   0.00000  Uiso   1.00
H177   H     0.96207   0.09828   0.27657   0.00000  Uiso   1.00
H178   H     0.70459   0.23509   0.22359   0.00000  Uiso   1.00
C179   C     0.95749   0.16675   0.25023   0.00000  Uiso   1.00
C180   C     0.70918   0.16661   0.24990   0.00000  Uiso   1.00
C181   C     0.86092   0.02400   0.27592   0.00000  Uiso   1.00
C182   C     0.80572   0.30934   0.22412   0.00000  Uiso   1.00
C183   C     0.80574   0.02396   0.22410   0.00000  Uiso   1.00
C184   C     0.86092   0.30938   0.27591   0.00000  Uiso   1.00
H185   H     0.88296   0.04218   0.29667   0.00000  Uiso   1.00
H186   H     0.78361   0.29118   0.20347   0.00000  Uiso   1.00
H187   H     0.78367   0.04210   0.20339   0.00000  Uiso   1.00
H188   H     0.88298   0.29123   0.29664   0.00000  Uiso   1.00
N189   N     0.83333   0.28573   0.25000   0.00000  Uiso   1.00
N190   N     0.83333   0.04760   0.25000   0.00000  Uiso   1.00
C191   C     0.91265   0.15904   0.38182   0.00000  Uiso   1.00
H192   H     0.93890   0.16802   0.40432   0.00000  Uiso   1.00
H193   H     0.91916   0.12706   0.36362   0.00000  Uiso   1.00
H194   H     0.91159   0.18699   0.35685   0.00000  Uiso   1.00
C195   C     0.76196   0.20786   0.11718   0.00000  Uiso   1.00
H196   H     0.74068   0.22629   0.09443   0.00000  Uiso   1.00
H197   H     0.74389   0.18590   0.14045   0.00000  Uiso   1.00
H198   H     0.77716   0.23514   0.13674   0.00000  Uiso   1.00
N199   N     0.71434   0.17219   0.04125   0.00000  Uiso   1.00
O200   O     0.68305   0.19450   0.02445   0.00000  Uiso   1.00
O201   O     0.70715   0.14172   0.07191   0.00000  Uiso   1.00
N202   N     0.93672   0.10515   0.45838   0.00000  Uiso   1.00
O203   O     0.97445   0.10949   0.47389   0.00000  Uiso   1.00
O204   O     0.92868   0.07256   0.43033   0.00000  Uiso   1.00
O205   O     0.10559   0.53821   0.25000   0.00000  Uiso   1.00
O206   O     0.22774   0.46179   0.25000   0.00000  Uiso   1.00
O207   O     0.22774   0.53821   0.25001   0.00000  Uiso   1.00
O208   O     0.10559   0.46179   0.25000   0.00000  Uiso   1.00
C209   C     0.08665   0.49997   0.24992   0.00000  Uiso   1.00
C210   C     0.24668   0.50003   0.25011   0.00000  Uiso   1.00
O211   O     0.16666   0.53823   0.18393   0.00000  Uiso   1.00
O212   O     0.16667   0.46177   0.31607   0.00000  Uiso   1.00
O213   O     0.16667   0.53823   0.31608   0.00000  Uiso   1.00
O214   O     0.16666   0.46177   0.18392   0.00000  Uiso   1.00
C215   C     0.16556   0.50001   0.16348   0.00000  Uiso   1.00
C216   C     0.16695   0.49992   0.33643   0.00000  Uiso   1.00
Zn217  Zn    0.16667   0.55104   0.25000   0.00000  Uiso   1.00
Zn218  Zn    0.16667   0.44896   0.25000   0.00000  Uiso   1.00
C219   C     0.20485   0.48886   0.40703   0.00000  Uiso   1.00
C220   C     0.12795   0.51353   0.09244   0.00000  Uiso   1.00
C221   C     0.16778   0.49918   0.38414   0.00000  Uiso   1.00
C222   C     0.16390   0.49940   0.11562   0.00000  Uiso   1.00
C223   C     0.13006   0.50524   0.40598   0.00000  Uiso   1.00
C224   C     0.19825   0.48138   0.09372   0.00000  Uiso   1.00
C225   C     0.12840   0.50277   0.45214   0.00000  Uiso   1.00
C226   C     0.19883   0.47941   0.04752   0.00000  Uiso   1.00
C227   C     0.16460   0.49137   0.47636   0.00000  Uiso   1.00
C228   C     0.16293   0.49157   0.02325   0.00000  Uiso   1.00
C229   C     0.20252   0.48062   0.45372   0.00000  Uiso   1.00
C230   C     0.12566   0.50462   0.04588   0.00000  Uiso   1.00
C231   C     0.09048   0.50959   0.47406   0.00000  Uiso   1.00
C232   C     0.23448   0.46389   0.02561   0.00000  Uiso   1.00
C233   C     0.08821   0.50854   0.02074   0.00000  Uiso   1.00
C234   C     0.23628   0.46271   0.47893   0.00000  Uiso   1.00
H235   H     0.10206   0.51247   0.38678   0.00000  Uiso   1.00
H236   H     0.22525   0.47053   0.11288   0.00000  Uiso   1.00
H237   H     0.06218   0.51412   0.45467   0.00000  Uiso   1.00
H238   H     0.26068   0.45134   0.04494   0.00000  Uiso   1.00
C239   C     0.02127   0.46134   0.26456   0.00000  Uiso   1.00
C240   C     0.31206   0.53870   0.23562   0.00000  Uiso   1.00
C241   C     0.31187   0.46142   0.26477   0.00000  Uiso   1.00
C242   C     0.02146   0.53862   0.23541   0.00000  Uiso   1.00
H243   H     0.03759   0.43147   0.27622   0.00000  Uiso   1.00
H244   H     0.29575   0.56858   0.22395   0.00000  Uiso   1.00
H245   H     0.29540   0.43161   0.27657   0.00000  Uiso   1.00
H246   H     0.03792   0.56843   0.22359   0.00000  Uiso   1.00
C247   C     0.29082   0.50009   0.25023   0.00000  Uiso   1.00
C248   C     0.04251   0.49994   0.24990   0.00000  Uiso   1.00
C249   C     0.19425   0.35733   0.27592   0.00000  Uiso   1.00
C250   C     0.13905   0.64267   0.22412   0.00000  Uiso   1.00
C251   C     0.13907   0.35729   0.22410   0.00000  Uiso   1.00
C252   C     0.19426   0.64271   0.27591   0.00000  Uiso   1.00
H253   H     0.21629   0.37551   0.29667   0.00000  Uiso   1.00
H254   H     0.11694   0.62452   0.20347   0.00000  Uiso   1.00
H255   H     0.11700   0.37543   0.20339   0.00000  Uiso   1.00
H256   H     0.21631   0.62457   0.29664   0.00000  Uiso   1.00
N257   N     0.16667   0.61907   0.25000   0.00000  Uiso   1.00
N258   N     0.16667   0.38093   0.25000   0.00000  Uiso   1.00
C259   C     0.24599   0.49237   0.38182   0.00000  Uiso   1.00
H260   H     0.27223   0.50135   0.40432   0.00000  Uiso   1.00
H261   H     0.25250   0.46039   0.36362   0.00000  Uiso   1.00
H262   H     0.24492   0.52032   0.35685   0.00000  Uiso   1.00
C263   C     0.09529   0.54119   0.11718   0.00000  Uiso   1.00
H264   H     0.07401   0.55962   0.09443   0.00000  Uiso   1.00
H265   H     0.07722   0.51923   0.14045   0.00000  Uiso   1.00
H266   H     0.11049   0.56848   0.13674   0.00000  Uiso   1.00
N267   N     0.04767   0.50552   0.04125   0.00000  Uiso   1.00
O268   O     0.01638   0.52784   0.02445   0.00000  Uiso   1.00
O269   O     0.04049   0.47505   0.07191   0.00000  Uiso   1.00
N270   N     0.27006   0.43848   0.45838   0.00000  Uiso   1.00
O271   O     0.30779   0.44282   0.47389   0.00000  Uiso   1.00
O272   O     0.26201   0.40589   0.43033   0.00000  Uiso   1.00
O273   O     0.43892   0.53821   0.25000   0.00000  Uiso   1.00
O274   O     0.56108   0.46179   0.25000   0.00000  Uiso   1.00
O275   O     0.56108   0.53821   0.25001   0.00000  Uiso   1.00
O276   O     0.43892   0.46179   0.25000   0.00000  Uiso   1.00
C277   C     0.41998   0.49997   0.24992   0.00000  Uiso   1.00
C278   C     0.58002   0.50003   0.25011   0.00000  Uiso   1.00
O279   O     0.49999   0.53823   0.18393   0.00000  Uiso   1.00
O280   O     0.50001   0.46177   0.31607   0.00000  Uiso   1.00
O281   O     0.50001   0.53823   0.31608   0.00000  Uiso   1.00
O282   O     0.49999   0.46177   0.18392   0.00000  Uiso   1.00
C283   C     0.49889   0.50001   0.16348   0.00000  Uiso   1.00
C284   C     0.50029   0.49992   0.33643   0.00000  Uiso   1.00
Zn285  Zn    0.50000   0.55104   0.25000   0.00000  Uiso   1.00
Zn286  Zn    0.50000   0.44896   0.25000   0.00000  Uiso   1.00
C287   C     0.53818   0.48886   0.40703   0.00000  Uiso   1.00
C288   C     0.46129   0.51353   0.09244   0.00000  Uiso   1.00
C289   C     0.50111   0.49918   0.38414   0.00000  Uiso   1.00
C290   C     0.49724   0.49940   0.11562   0.00000  Uiso   1.00
C291   C     0.46339   0.50524   0.40598   0.00000  Uiso   1.00
C292   C     0.53158   0.48138   0.09372   0.00000  Uiso   1.00
C293   C     0.46174   0.50277   0.45214   0.00000  Uiso   1.00
C294   C     0.53216   0.47941   0.04752   0.00000  Uiso   1.00
C295   C     0.49793   0.49137   0.47636   0.00000  Uiso   1.00
C296   C     0.49626   0.49157   0.02325   0.00000  Uiso   1.00
C297   C     0.53585   0.48062   0.45372   0.00000  Uiso   1.00
C298   C     0.45899   0.50462   0.04588   0.00000  Uiso   1.00
C299   C     0.42381   0.50959   0.47406   0.00000  Uiso   1.00
C300   C     0.56782   0.46389   0.02561   0.00000  Uiso   1.00
C301   C     0.42154   0.50854   0.02074   0.00000  Uiso   1.00
C302   C     0.56961   0.46271   0.47893   0.00000  Uiso   1.00
H303   H     0.43540   0.51247   0.38678   0.00000  Uiso   1.00
H304   H     0.55859   0.47053   0.11288   0.00000  Uiso   1.00
H305   H     0.39551   0.51412   0.45467   0.00000  Uiso   1.00
H306   H     0.59401   0.45134   0.04494   0.00000  Uiso   1.00
C307   C     0.35460   0.46134   0.26456   0.00000  Uiso   1.00
C308   C     0.64540   0.53870   0.23562   0.00000  Uiso   1.00
C309   C     0.64521   0.46142   0.26477   0.00000  Uiso   1.00
C310   C     0.35479   0.53862   0.23541   0.00000  Uiso   1.00
H311   H     0.37093   0.43147   0.27622   0.00000  Uiso   1.00
H312   H     0.62908   0.56858   0.22395   0.00000  Uiso   1.00
H313   H     0.62874   0.43161   0.27657   0.00000  Uiso   1.00
H314   H     0.37126   0.56843   0.22359   0.00000  Uiso   1.00
C315   C     0.62415   0.50009   0.25023   0.00000  Uiso   1.00
C316   C     0.37584   0.49994   0.24990   0.00000  Uiso   1.00
C317   C     0.52758   0.35733   0.27592   0.00000  Uiso   1.00
C318   C     0.47239   0.64267   0.22412   0.00000  Uiso   1.00
C319   C     0.47240   0.35729   0.22410   0.00000  Uiso   1.00
C320   C     0.52759   0.64271   0.27591   0.00000  Uiso   1.00
H321   H     0.54963   0.37551   0.29667   0.00000  Uiso   1.00
H322   H     0.45027   0.62452   0.20347   0.00000  Uiso   1.00
H323   H     0.45034   0.37543   0.20339   0.00000  Uiso   1.00
H324   H     0.54964   0.62457   0.29664   0.00000  Uiso   1.00
N325   N     0.50000   0.61907   0.25000   0.00000  Uiso   1.00
N326   N     0.50000   0.38093   0.25000   0.00000  Uiso   1.00
C327   C     0.57932   0.49237   0.38182   0.00000  Uiso   1.00
H328   H     0.60556   0.50135   0.40432   0.00000  Uiso   1.00
H329   H     0.58583   0.46039   0.36362   0.00000  Uiso   1.00
H330   H     0.57825   0.52032   0.35685   0.00000  Uiso   1.00
C331   C     0.42863   0.54119   0.11718   0.00000  Uiso   1.00
H332   H     0.40735   0.55962   0.09443   0.00000  Uiso   1.00
H333   H     0.41056   0.51923   0.14045   0.00000  Uiso   1.00
H334   H     0.44383   0.56848   0.13674   0.00000  Uiso   1.00
N335   N     0.38100   0.50552   0.04125   0.00000  Uiso   1.00
O336   O     0.34972   0.52784   0.02445   0.00000  Uiso   1.00
O337   O     0.37382   0.47505   0.07191   0.00000  Uiso   1.00
N338   N     0.60339   0.43848   0.45838   0.00000  Uiso   1.00
O339   O     0.64112   0.44282   0.47389   0.00000  Uiso   1.00
O340   O     0.59535   0.40589   0.43033   0.00000  Uiso   1.00
O341   O     0.77226   0.53821   0.25000   0.00000  Uiso   1.00
O342   O     0.89441   0.46179   0.25000   0.00000  Uiso   1.00
O343   O     0.89441   0.53821   0.25001   0.00000  Uiso   1.00
O344   O     0.77226   0.46179   0.25000   0.00000  Uiso   1.00
C345   C     0.75332   0.49997   0.24992   0.00000  Uiso   1.00
C346   C     0.91335   0.50003   0.25011   0.00000  Uiso   1.00
O347   O     0.83333   0.53823   0.18393   0.00000  Uiso   1.00
O348   O     0.83334   0.46177   0.31607   0.00000  Uiso   1.00
O349   O     0.83334   0.53823   0.31608   0.00000  Uiso   1.00
O350   O     0.83333   0.46177   0.18392   0.00000  Uiso   1.00
C351   C     0.83222   0.50001   0.16348   0.00000  Uiso   1.00
C352   C     0.83362   0.49992   0.33643   0.00000  Uiso   1.00
Zn353  Zn    0.83333   0.55104   0.25000   0.00000  Uiso   1.00
Zn354  Zn    0.83333   0.44896   0.25000   0.00000  Uiso   1.00
C355   C     0.87152   0.48886   0.40703   0.00000  Uiso   1.00
C356   C     0.79462   0.51353   0.09244   0.00000  Uiso   1.00
C357   C     0.83445   0.49918   0.38414   0.00000  Uiso   1.00
C358   C     0.83057   0.49940   0.11562   0.00000  Uiso   1.00
C359   C     0.79673   0.50524   0.40598   0.00000  Uiso   1.00
C360   C     0.86491   0.48138   0.09372   0.00000  Uiso   1.00
C361   C     0.79507   0.50277   0.45214   0.00000  Uiso   1.00
C362   C     0.86550   0.47941   0.04752   0.00000  Uiso   1.00
C363   C     0.83126   0.49137   0.47636   0.00000  Uiso   1.00
C364   C     0.82960   0.49157   0.02325   0.00000  Uiso   1.00
C365   C     0.86919   0.48062   0.45372   0.00000  Uiso   1.00
C366   C     0.79233   0.50462   0.04588   0.00000  Uiso   1.00
C367   C     0.75714   0.50959   0.47406   0.00000  Uiso   1.00
C368   C     0.90115   0.46389   0.02561   0.00000  Uiso   1.00
C369   C     0.75488   0.50854   0.02074   0.00000  Uiso   1.00
C370   C     0.90294   0.46271   0.47893   0.00000  Uiso   1.00
H371   H     0.76873   0.51247   0.38678   0.00000  Uiso   1.00
H372   H     0.89192   0.47053   0.11288   0.00000  Uiso   1.00
H373   H     0.72885   0.51412   0.45467   0.00000  Uiso   1.00
H374   H     0.92735   0.45134   0.04494   0.00000  Uiso   1.00
C375   C     0.68794   0.46134   0.26456   0.00000  Uiso   1.00
C376   C     0.97873   0.53870   0.23562   0.00000  Uiso   1.00
C377   C     0.97854   0.46142   0.26477   0.00000  Uiso   1.00
C378   C     0.68812   0.53862   0.23541   0.00000  Uiso   1.00
H379   H     0.70426   0.43147   0.27622   0.00000  Uiso   1.00
H380   H     0.96241   0.56858   0.22395   0.00000  Uiso   1.00
H381   H     0.96207   0.43161   0.27657   0.00000  Uiso   1.00
H382   H     0.70459   0.56843   0.22359   0.00000  Uiso   1.00
C383   C     0.95749   0.50009   0.25023   0.00000  Uiso   1.00
C384   C     0.70918   0.49994   0.24990   0.00000  Uiso   1.00
C385   C     0.86092   0.35733   0.27592   0.00000  Uiso   1.00
C386   C     0.80572   0.64267   0.22412   0.00000  Uiso   1.00
C387   C     0.80574   0.35729   0.22410   0.00000  Uiso   1.00
C388   C     0.86092   0.64271   0.27591   0.00000  Uiso   1.00
H389   H     0.88296   0.37551   0.29667   0.00000  Uiso   1.00
H390   H     0.78361   0.62452   0.20347   0.00000  Uiso   1.00
H391   H     0.78367   0.37543   0.20339   0.00000  Uiso   1.00
H392   H     0.88298   0.62457   0.29664   0.00000  Uiso   1.00
N393   N     0.83333   0.61907   0.25000   0.00000  Uiso   1.00
N394   N     0.83333   0.38093   0.25000   0.00000  Uiso   1.00
C395   C     0.91265   0.49237   0.38182   0.00000  Uiso   1.00
H396   H     0.93890   0.50135   0.40432   0.00000  Uiso   1.00
H397   H     0.91916   0.46039   0.36362   0.00000  Uiso   1.00
H398   H     0.91159   0.52032   0.35685   0.00000  Uiso   1.00
C399   C     0.76196   0.54119   0.11718   0.00000  Uiso   1.00
H400   H     0.74068   0.55962   0.09443   0.00000  Uiso   1.00
H401   H     0.74389   0.51923   0.14045   0.00000  Uiso   1.00
H402   H     0.77716   0.56848   0.13674   0.00000  Uiso   1.00
N403   N     0.71434   0.50552   0.04125   0.00000  Uiso   1.00
O404   O     0.68305   0.52784   0.02445   0.00000  Uiso   1.00
O405   O     0.70715   0.47505   0.07191   0.00000  Uiso   1.00
N406   N     0.93672   0.43848   0.45838   0.00000  Uiso   1.00
O407   O     0.97445   0.44282   0.47389   0.00000  Uiso   1.00
O408   O     0.92868   0.40589   0.43033   0.00000  Uiso   1.00
O409   O     0.10559   0.87154   0.25000   0.00000  Uiso   1.00
O410   O     0.22774   0.79513   0.25000   0.00000  Uiso   1.00
O411   O     0.22774   0.87154   0.25001   0.00000  Uiso   1.00
O412   O     0.10559   0.79513   0.25000   0.00000  Uiso   1.00
C413   C     0.08665   0.83330   0.24992   0.00000  Uiso   1.00
C414   C     0.24668   0.83337   0.25011   0.00000  Uiso   1.00
O415   O     0.16666   0.87156   0.18393   0.00000  Uiso   1.00
O416   O     0.16667   0.79511   0.31607   0.00000  Uiso   1.00
O417   O     0.16667   0.87156   0.31608   0.00000  Uiso   1.00
O418   O     0.16666   0.79511   0.18392   0.00000  Uiso   1.00
C419   C     0.16556   0.83335   0.16348   0.00000  Uiso   1.00
C420   C     0.16695   0.83326   0.33643   0.00000  Uiso   1.00
Zn421  Zn    0.16667   0.88437   0.25000   0.00000  Uiso   1.00
Zn422  Zn    0.16667   0.78229   0.25000   0.00000  Uiso   1.00
C423   C     0.20485   0.82219   0.40703   0.00000  Uiso   1.00
C424   C     0.12795   0.84686   0.09244   0.00000  Uiso   1.00
C425   C     0.16778   0.83251   0.38414   0.00000  Uiso   1.00
C426   C     0.16390   0.83273   0.11562   0.00000  Uiso   1.00
C427   C     0.13006   0.83857   0.40598   0.00000  Uiso   1.00
C428   C     0.19825   0.81471   0.09372   0.00000  Uiso   1.00
C429   C     0.12840   0.83610   0.45214   0.00000  Uiso   1.00
C430   C     0.19883   0.81274   0.04752   0.00000  Uiso   1.00
C431   C     0.16460   0.82470   0.47636   0.00000  Uiso   1.00
C432   C     0.16293   0.82490   0.02325   0.00000  Uiso   1.00
C433   C     0.20252   0.81395   0.45372   0.00000  Uiso   1.00
C434   C     0.12566   0.83796   0.04588   0.00000  Uiso   1.00
C435   C     0.09048   0.84293   0.47406   0.00000  Uiso   1.00
C436   C     0.23448   0.79723   0.02561   0.00000  Uiso   1.00
C437   C     0.08821   0.84187   0.02074   0.00000  Uiso   1.00
C438   C     0.23628   0.79604   0.47893   0.00000  Uiso   1.00
H439   H     0.10206   0.84580   0.38678   0.00000  Uiso   1.00
H440   H     0.22525   0.80386   0.11288   0.00000  Uiso   1.00
H441   H     0.06218   0.84745   0.45467   0.00000  Uiso   1.00
H442   H     0.26068   0.78467   0.04494   0.00000  Uiso   1.00
C443   C     0.02127   0.79467   0.26456   0.00000  Uiso   1.00
C444   C     0.31206   0.87204   0.23562   0.00000  Uiso   1.00
C445   C     0.31187   0.79476   0.26477   0.00000  Uiso   1.00
C446   C     0.02146   0.87195   0.23541   0.00000  Uiso   1.00
H447   H     0.03759   0.76480   0.27622   0.00000  Uiso   1.00
H448   H     0.29575   0.90191   0.22395   0.00000  Uiso   1.00
H449   H     0.29540   0.76494   0.27657   0.00000  Uiso   1.00
H450   H     0.03792   0.90176   0.22359   0.00000  Uiso   1.00
C451   C     0.29082   0.83342   0.25023   0.00000  Uiso   1.00
C452   C     0.04251   0.83327   0.24990   0.00000  Uiso   1.00
C453   C     0.19425   0.69067   0.27592   0.00000  Uiso   1.00
C454   C     0.13905   0.97601   0.22412   0.00000  Uiso   1.00
C455   C     0.13907   0.69062   0.22410   0.00000  Uiso   1.00
C456   C     0.19426   0.97604   0.27591   0.00000  Uiso   1.00
H457   H     0.21629   0.70884   0.29667   0.00000  Uiso   1.00
H458   H     0.11694   0.95785   0.20347   0.00000  Uiso   1.00
H459   H     0.11700   0.70876   0.20339   0.00000  Uiso   1.00
H460   H     0.21631   0.95790   0.29664   0.00000  Uiso   1.00
N461   N     0.16667   0.95240   0.25000   0.00000  Uiso   1.00
N462   N     0.16667   0.71427   0.25000   0.00000  Uiso   1.00
C463   C     0.24599   0.82571   0.38182   0.00000  Uiso   1.00
H464   H     0.27223   0.83469   0.40432   0.00000  Uiso   1.00
H465   H     0.25250   0.79372   0.36362   0.00000  Uiso   1.00
H466   H     0.24492   0.85366   0.35685   0.00000  Uiso   1.00
C467   C     0.09529   0.87453   0.11718   0.00000  Uiso   1.00
H468   H     0.07401   0.89295   0.09443   0.00000  Uiso   1.00
H469   H     0.07722   0.85257   0.14045   0.00000  Uiso   1.00
H470   H     0.11049   0.90181   0.13674   0.00000  Uiso   1.00
N471   N     0.04767   0.83886   0.04125   0.00000  Uiso   1.00
O472   O     0.01638   0.86117   0.02445   0.00000  Uiso   1.00
O473   O     0.04049   0.80839   0.07191   0.00000  Uiso   1.00
N474   N     0.27006   0.77182   0.45838   0.00000  Uiso   1.00
O475   O     0.30779   0.77615   0.47389   0.00000  Uiso   1.00
O476   O     0.26201   0.73922   0.43033   0.00000  Uiso   1.00
O477   O     0.43892   0.87154   0.25000   0.00000  Uiso   1.00
O478   O     0.56108   0.79513   0.25000   0.00000  Uiso   1.00
O479   O     0.56108   0.87154   0.25001   0.00000  Uiso   1.00
O480   O     0.43892   0.79513   0.25000   0.00000  Uiso   1.00
C481   C     0.41998   0.83330   0.24992   0.00000  Uiso   1.00
C482   C     0.58002   0.83337   0.25011   0.00000  Uiso   1.00
O483   O     0.49999   0.87156   0.18393   0.00000  Uiso   1.00
O484   O     0.50001   0.79511   0.31607   0.00000  Uiso   1.00
O485   O     0.50001   0.87156   0.31608   0.00000  Uiso   1.00
O486   O     0.49999   0.79511   0.18392   0.00000  Uiso   1.00
C487   C     0.49889   0.83335   0.16348   0.00000  Uiso   1.00
C488   C     0.50029   0.83326   0.33643   0.00000  Uiso   1.00
Zn489  Zn    0.50000   0.88437   0.25000   0.00000  Uiso   1.00
Zn490  Zn    0.50000   0.78229   0.25000   0.00000  Uiso   1.00
C491   C     0.53818   0.82219   0.40703   0.00000  Uiso   1.00
C492   C     0.46129   0.84686   0.09244   0.00000  Uiso   1.00
C493   C     0.50111   0.83251   0.38414   0.00000  Uiso   1.00
C494   C     0.49724   0.83273   0.11562   0.00000  Uiso   1.00
C495   C     0.46339   0.83857   0.40598   0.00000  Uiso   1.00
C496   C     0.53158   0.81471   0.09372   0.00000  Uiso   1.00
C497   C     0.46174   0.83610   0.45214   0.00000  Uiso   1.00
C498   C     0.53216   0.81274   0.04752   0.00000  Uiso   1.00
C499   C     0.49793   0.82470   0.47636   0.00000  Uiso   1.00
C500   C     0.49626   0.82490   0.02325   0.00000  Uiso   1.00
C501   C     0.53585   0.81395   0.45372   0.00000  Uiso   1.00
C502   C     0.45899   0.83796   0.04588   0.00000  Uiso   1.00
C503   C     0.42381   0.84293   0.47406   0.00000  Uiso   1.00
C504   C     0.56782   0.79723   0.02561   0.00000  Uiso   1.00
C505   C     0.42154   0.84187   0.02074   0.00000  Uiso   1.00
C506   C     0.56961   0.79604   0.47893   0.00000  Uiso   1.00
H507   H     0.43540   0.84580   0.38678   0.00000  Uiso   1.00
H508   H     0.55859   0.80386   0.11288   0.00000  Uiso   1.00
H509   H     0.39551   0.84745   0.45467   0.00000  Uiso   1.00
H510   H     0.59401   0.78467   0.04494   0.00000  Uiso   1.00
C511   C     0.35460   0.79467   0.26456   0.00000  Uiso   1.00
C512   C     0.64540   0.87204   0.23562   0.00000  Uiso   1.00
C513   C     0.64521   0.79476   0.26477   0.00000  Uiso   1.00
C514   C     0.35479   0.87195   0.23541   0.00000  Uiso   1.00
H515   H     0.37093   0.76480   0.27622   0.00000  Uiso   1.00
H516   H     0.62908   0.90191   0.22395   0.00000  Uiso   1.00
H517   H     0.62874   0.76494   0.27657   0.00000  Uiso   1.00
H518   H     0.37126   0.90176   0.22359   0.00000  Uiso   1.00
C519   C     0.62415   0.83342   0.25023   0.00000  Uiso   1.00
C520   C     0.37584   0.83327   0.24990   0.00000  Uiso   1.00
C521   C     0.52758   0.69067   0.27592   0.00000  Uiso   1.00
C522   C     0.47239   0.97601   0.22412   0.00000  Uiso   1.00
C523   C     0.47240   0.69062   0.22410   0.00000  Uiso   1.00
C524   C     0.52759   0.97604   0.27591   0.00000  Uiso   1.00
H525   H     0.54963   0.70884   0.29667   0.00000  Uiso   1.00
H526   H     0.45027   0.95785   0.20347   0.00000  Uiso   1.00
H527   H     0.45034   0.70876   0.20339   0.00000  Uiso   1.00
H528   H     0.54964   0.95790   0.29664   0.00000  Uiso   1.00
N529   N     0.50000   0.95240   0.25000   0.00000  Uiso   1.00
N530   N     0.50000   0.71427   0.25000   0.00000  Uiso   1.00
C531   C     0.57932   0.82571   0.38182   0.00000  Uiso   1.00
H532   H     0.60556   0.83469   0.40432   0.00000  Uiso   1.00
H533   H     0.58583   0.79372   0.36362   0.00000  Uiso   1.00
H534   H     0.57825   0.85366   0.35685   0.00000  Uiso   1.00
C535   C     0.42863   0.87453   0.11718   0.00000  Uiso   1.00
H536   H     0.40735   0.89295   0.09443   0.00000  Uiso   1.00
H537   H     0.41056   0.85257   0.14045   0.00000  Uiso   1.00
H538   H     0.44383   0.90181   0.13674   0.00000  Uiso   1.00
N539   N     0.38100   0.83886   0.04125   0.00000  Uiso   1.00
O540   O     0.34972   0.86117   0.02445   0.00000  Uiso   1.00
O541   O     0.37382   0.80839   0.07191   0.00000  Uiso   1.00
N542   N     0.60339   0.77182   0.45838   0.00000  Uiso   1.00
O543   O     0.64112   0.77615   0.47389   0.00000  Uiso   1.00
O544   O     0.59535   0.73922   0.43033   0.00000  Uiso   1.00
O545   O     0.77226   0.87154   0.25000   0.00000  Uiso   1.00
O546   O     0.89441   0.79513   0.25000   0.00000  Uiso   1.00
O547   O     0.89441   0.87154   0.25001   0.00000  Uiso   1.00
O548   O     0.77226   0.79513   0.25000   0.00000  Uiso   1.00
C549   C     0.75332   0.83330   0.24992   0.00000  Uiso   1.00
C550   C     0.91335   0.83337   0.25011   0.00000  Uiso   1.00
O551   O     0.83333   0.87156   0.18393   0.00000  Uiso   1.00
O552   O     0.83334   0.79511   0.31607   0.00000  Uiso   1.00
O553   O     0.83334   0.87156   0.31608   0.00000  Uiso   1.00
O554   O     0.83333   0.79511   0.18392   0.00000  Uiso   1.00
C555   C     0.83222   0.83335   0.16348   0.00000  Uiso   1.00
C556   C     0.83362   0.83326   0.33643   0.00000  Uiso   1.00
Zn557  Zn    0.83333   0.88437   0.25000   0.00000  Uiso   1.00
Zn558  Zn    0.83333   0.78229   0.25000   0.00000  Uiso   1.00
C559   C     0.87152   0.82219   0.40703   0.00000  Uiso   1.00
C560   C     0.79462   0.84686   0.09244   0.00000  Uiso   1.00
C561   C     0.83445   0.83251   0.38414   0.00000  Uiso   1.00
C562   C     0.83057   0.83273   0.11562   0.00000  Uiso   1.00
C563   C     0.79673   0.83857   0.40598   0.00000  Uiso   1.00
C564   C     0.86491   0.81471   0.09372   0.00000  Uiso   1.00
C565   C     0.79507   0.83610   0.45214   0.00000  Uiso   1.00
C566   C     0.86550   0.81274   0.04752   0.00000  Uiso   1.00
C567   C     0.83126   0.82470   0.47636   0.00000  Uiso   1.00
C568   C     0.82960   0.82490   0.02325   0.00000  Uiso   1.00
C569   C     0.86919   0.81395   0.45372   0.00000  Uiso   1.00
C570   C     0.79233   0.83796   0.04588   0.00000  Uiso   1.00
C571   C     0.75714   0.84293   0.47406   0.00000  Uiso   1.00
C572   C     0.90115   0.79723   0.02561   0.00000  Uiso   1.00
C573   C     0.75488   0.84187   0.02074   0.00000  Uiso   1.00
C574   C     0.90294   0.79604   0.47893   0.00000  Uiso   1.00
H575   H     0.76873   0.84580   0.38678   0.00000  Uiso   1.00
H576   H     0.89192   0.80386   0.11288   0.00000  Uiso   1.00
H577   H     0.72885   0.84745   0.45467   0.00000  Uiso   1.00
H578   H     0.92735   0.78467   0.04494   0.00000  Uiso   1.00
C579   C     0.68794   0.79467   0.26456   0.00000  Uiso   1.00
C580   C     0.97873   0.87204   0.23562   0.00000  Uiso   1.00
C581   C     0.97854   0.79476   0.26477   0.00000  Uiso   1.00
C582   C     0.68812   0.87195   0.23541   0.00000  Uiso   1.00
H583   H     0.70426   0.76480   0.27622   0.00000  Uiso   1.00
H584   H     0.96241   0.90191   0.22395   0.00000  Uiso   1.00
H585   H     0.96207   0.76494   0.27657   0.00000  Uiso   1.00
H586   H     0.70459   0.90176   0.22359   0.00000  Uiso   1.00
C587   C     0.95749   0.83342   0.25023   0.00000  Uiso   1.00
C588   C     0.70918   0.83327   0.24990   0.00000  Uiso   1.00
C589   C     0.86092   0.69067   0.27592   0.00000  Uiso   1.00
C590   C     0.80572   0.97601   0.22412   0.00000  Uiso   1.00
C591   C     0.80574   0.69062   0.22410   0.00000  Uiso   1.00
C592   C     0.86092   0.97604   0.27591   0.00000  Uiso   1.00
H593   H     0.88296   0.70884   0.29667   0.00000  Uiso   1.00
H594   H     0.78361   0.95785   0.20347   0.00000  Uiso   1.00
H595   H     0.78367   0.70876   0.20339   0.00000  Uiso   1.00
H596   H     0.88298   0.95790   0.29664   0.00000  Uiso   1.00
N597   N     0.83333   0.95240   0.25000   0.00000  Uiso   1.00
N598   N     0.83333   0.71427   0.25000   0.00000  Uiso   1.00
C599   C     0.91265   0.82571   0.38182   0.00000  Uiso   1.00
H600   H     0.93890   0.83469   0.40432   0.00000  Uiso   1.00
H601   H     0.91916   0.79372   0.36362   0.00000  Uiso   1.00
H602   H     0.91159   0.85366   0.35685   0.00000  Uiso   1.00
C603   C     0.76196   0.87453   0.11718   0.00000  Uiso   1.00
H604   H     0.74068   0.89295   0.09443   0.00000  Uiso   1.00
H605   H     0.74389   0.85257   0.14045   0.00000  Uiso   1.00
H606   H     0.77716   0.90181   0.13674   0.00000  Uiso   1.00
N607   N     0.71434   0.83886   0.04125   0.00000  Uiso   1.00
O608   O     0.68305   0.86117   0.02445   0.00000  Uiso   1.00
O609   O     0.70715   0.80839   0.07191   0.00000  Uiso   1.00
N610   N     0.93672   0.77182   0.45838   0.00000  Uiso   1.00
O611   O     0.97445   0.77615   0.47389   0.00000  Uiso   1.00
O612   O     0.92868   0.73922   0.43033   0.00000  Uiso   1.00
O613   O     0.10559   0.20487   0.75000   0.00000  Uiso   1.00
O614   O     0.22774   0.12846   0.75000   0.00000  Uiso   1.00
O615   O     0.22774   0.20487   0.75001   0.00000  Uiso   1.00
O616   O     0.10559   0.12846   0.75000   0.00000  Uiso   1.00
C617   C     0.08665   0.16664   0.74992   0.00000  Uiso   1.00
C618   C     0.24668   0.16670   0.75011   0.00000  Uiso   1.00
O619   O     0.16666   0.20489   0.68393   0.00000  Uiso   1.00
O620   O     0.16667   0.12844   0.81607   0.00000  Uiso   1.00
O621   O     0.16667   0.20489   0.81608   0.00000  Uiso   1.00
O622   O     0.16666   0.12844   0.68392   0.00000  Uiso   1.00
C623   C     0.16556   0.16668   0.66348   0.00000  Uiso   1.00
C624   C     0.16695   0.16659   0.83643   0.00000  Uiso   1.00
Zn625  Zn    0.16667   0.21771   0.75000   0.00000  Uiso   1.00
Zn626  Zn    0.16667   0.11563   0.75000   0.00000  Uiso   1.00
C627   C     0.20485   0.15552   0.90703   0.00000  Uiso   1.00
C628   C     0.12795   0.18020   0.59244   0.00000  Uiso   1.00
C629   C     0.16778   0.16585   0.88414   0.00000  Uiso   1.00
C630   C     0.16390   0.16607   0.61562   0.00000  Uiso   1.00
C631   C     0.13006   0.17191   0.90598   0.00000  Uiso   1.00
C632   C     0.19825   0.14805   0.59372   0.00000  Uiso   1.00
C633   C     0.12840   0.16944   0.95214   0.00000  Uiso   1.00
C634   C     0.19883   0.14608   0.54752   0.00000  Uiso   1.00
C635   C     0.16460   0.15803   0.97636   0.00000  Uiso   1.00
C636   C     0.16293   0.15824   0.52325   0.00000  Uiso   1.00
C637   C     0.20252   0.14728   0.95372   0.00000  Uiso   1.00
C638   C     0.12566   0.17129   0.54588   0.00000  Uiso   1.00
C639   C     0.09048   0.17626   0.97406   0.00000  Uiso   1.00
C640   C     0.23448   0.13056   0.52561   0.00000  Uiso   1.00
C641   C     0.08821   0.17520   0.52074   0.00000  Uiso   1.00
C642   C     0.23628   0.12938   0.97893   0.00000  Uiso   1.00
H643   H     0.10206   0.17914   0.88678   0.00000  Uiso   1.00
H644   H     0.22525   0.13720   0.61288   0.00000  Uiso   1.00
H645   H     0.06218   0.18078   0.95467   0.00000  Uiso   1.00
H646   H     0.26068   0.11800   0.54494   0.00000  Uiso   1.00
C647   C     0.02127   0.12800   0.76456   0.00000  Uiso   1.00
C648   C     0.31206   0.20537   0.73562   0.00000  Uiso   1.00
C649   C     0.31187   0.12809   0.76477   0.00000  Uiso   1.00
C650   C     0.02146   0.20528   0.73541   0.00000  Uiso   1.00
H651   H     0.03759   0.09813   0.77622   0.00000  Uiso   1.00
H652   H     0.29575   0.23525   0.72395   0.00000  Uiso   1.00
H653   H     0.29540   0.09828   0.77657   0.00000  Uiso   1.00
H654   H     0.03792   0.23509   0.72359   0.00000  Uiso   1.00
C655   C     0.29082   0.16675   0.75023   0.00000  Uiso   1.00
C656   C     0.04251   0.16661   0.74990   0.00000  Uiso   1.00
C657   C     0.19425   0.02400   0.77592   0.00000  Uiso   1.00
C658   C     0.13905   0.30934   0.72412   0.00000  Uiso   1.00
C659   C     0.13907   0.02396   0.72410   0.00000  Uiso   1.00
C660   C     0.19426   0.30938   0.77591   0.00000  Uiso   1.00
H661   H     0.21629   0.04218   0.79667   0.00000  Uiso   1.00
H662   H     0.11694   0.29118   0.70347   0.00000  Uiso   1.00
H663   H     0.11700   0.04210   0.70339   0.00000  Uiso   1.00
H664   H     0.21631   0.29123   0.79664   0.00000  Uiso   1.00
N665   N     0.16667   0.28573   0.75000   0.00000  Uiso   1.00
N666   N     0.16667   0.04760   0.75000   0.00000  Uiso   1.00
C667   C     0.24599   0.15904   0.88182   0.00000  Uiso   1.00
H668   H     0.27223   0.16802   0.90432   0.00000  Uiso   1.00
H669   H     0.25250   0.12706   0.86362   0.00000  Uiso   1.00
H670   H     0.24492   0.18699   0.85685   0.00000  Uiso   1.00
C671   C     0.09529   0.20786   0.61718   0.00000  Uiso   1.00
H672   H     0.07401   0.22629   0.59443   0.00000  Uiso   1.00
H673   H     0.07722   0.18590   0.64045   0.00000  Uiso   1.00
H674   H     0.11049   0.23514   0.63674   0.00000  Uiso   1.00
N675   N     0.04767   0.17219   0.54125   0.00000  Uiso   1.00
O676   O     0.01638   0.19450   0.52445   0.00000  Uiso   1.00
O677   O     0.04049   0.14172   0.57191   0.00000  Uiso   1.00
N678   N     0.27006   0.10515   0.95838   0.00000  Uiso   1.00
O679   O     0.30779   0.10949   0.97389   0.00000  Uiso   1.00
O680   O     0.26201   0.07256   0.93033   0.00000  Uiso   1.00
O681   O     0.43892   0.20487   0.75000   0.00000  Uiso   1.00
O682   O     0.56108   0.12846   0.75000   0.00000  Uiso   1.00
O683   O     0.56108   0.20487   0.75001   0.00000  Uiso   1.00
O684   O     0.43892   0.12846   0.75000   0.00000  Uiso   1.00
C685   C     0.41998   0.16664   0.74992   0.00000  Uiso   1.00
C686   C     0.58002   0.16670   0.75011   0.00000  Uiso   1.00
O687   O     0.49999   0.20489   0.68393   0.00000  Uiso   1.00
O688   O     0.50001   0.12844   0.81607   0.00000  Uiso   1.00
O689   O     0.50001   0.20489   0.81608   0.00000  Uiso   1.00
O690   O     0.49999   0.12844   0.68392   0.00000  Uiso   1.00
C691   C     0.49889   0.16668   0.66348   0.00000  Uiso   1.00
C692   C     0.50029   0.16659   0.83643   0.00000  Uiso   1.00
Zn693  Zn    0.50000   0.21771   0.75000   0.00000  Uiso   1.00
Zn694  Zn    0.50000   0.11563   0.75000   0.00000  Uiso   1.00
C695   C     0.53818   0.15552   0.90703   0.00000  Uiso   1.00
C696   C     0.46129   0.18020   0.59244   0.00000  Uiso   1.00
C697   C     0.50111   0.16585   0.88414   0.00000  Uiso   1.00
C698   C     0.49724   0.16607   0.61562   0.00000  Uiso   1.00
C699   C     0.46339   0.17191   0.90598   0.00000  Uiso   1.00
C700   C     0.53158   0.14805   0.59372   0.00000  Uiso   1.00
C701   C     0.46174   0.16944   0.95214   0.00000  Uiso   1.00
C702   C     0.53216   0.14608   0.54752   0.00000  Uiso   1.00
C703   C     0.49793   0.15803   0.97636   0.00000  Uiso   1.00
C704   C     0.49626   0.15824   0.52325   0.00000  Uiso   1.00
C705   C     0.53585   0.14728   0.95372   0.00000  Uiso   1.00
C706   C     0.45899   0.17129   0.54588   0.00000  Uiso   1.00
C707   C     0.42381   0.17626   0.97406   0.00000  Uiso   1.00
C708   C     0.56782   0.13056   0.52561   0.00000  Uiso   1.00
C709   C     0.42154   0.17520   0.52074   0.00000  Uiso   1.00
C710   C     0.56961   0.12938   0.97893   0.00000  Uiso   1.00
H711   H     0.43540   0.17914   0.88678   0.00000  Uiso   1.00
H712   H     0.55859   0.13720   0.61288   0.00000  Uiso   1.00
H713   H     0.39551   0.18078   0.95467   0.00000  Uiso   1.00
H714   H     0.59401   0.11800   0.54494   0.00000  Uiso   1.00
C715   C     0.35460   0.12800   0.76456   0.00000  Uiso   1.00
C716   C     0.64540   0.20537   0.73562   0.00000  Uiso   1.00
C717   C     0.64521   0.12809   0.76477   0.00000  Uiso   1.00
C718   C     0.35479   0.20528   0.73541   0.00000  Uiso   1.00
H719   H     0.37093   0.09813   0.77622   0.00000  Uiso   1.00
H720   H     0.62908   0.23525   0.72395   0.00000  Uiso   1.00
H721   H     0.62874   0.09828   0.77657   0.00000  Uiso   1.00
H722   H     0.37126   0.23509   0.72359   0.00000  Uiso   1.00
C723   C     0.62415   0.16675   0.75023   0.00000  Uiso   1.00
C724   C     0.37584   0.16661   0.74990   0.00000  Uiso   1.00
C725   C     0.52758   0.02400   0.77592   0.00000  Uiso   1.00
C726   C     0.47239   0.30934   0.72412   0.00000  Uiso   1.00
C727   C     0.47240   0.02396   0.72410   0.00000  Uiso   1.00
C728   C     0.52759   0.30938   0.77591   0.00000  Uiso   1.00
H729   H     0.54963   0.04218   0.79667   0.00000  Uiso   1.00
H730   H     0.45027   0.29118   0.70347   0.00000  Uiso   1.00
H731   H     0.45034   0.04210   0.70339   0.00000  Uiso   1.00
H732   H     0.54964   0.29123   0.79664   0.00000  Uiso   1.00
N733   N     0.50000   0.28573   0.75000   0.00000  Uiso   1.00
N734   N     0.50000   0.04760   0.75000   0.00000  Uiso   1.00
C735   C     0.57932   0.15904   0.88182   0.00000  Uiso   1.00
H736   H     0.60556   0.16802   0.90432   0.00000  Uiso   1.00
H737   H     0.58583   0.12706   0.86362   0.00000  Uiso   1.00
H738   H     0.57825   0.18699   0.85685   0.00000  Uiso   1.00
C739   C     0.42863   0.20786   0.61718   0.00000  Uiso   1.00
H740   H     0.40735   0.22629   0.59443   0.00000  Uiso   1.00
H741   H     0.41056   0.18590   0.64045   0.00000  Uiso   1.00
H742   H     0.44383   0.23514   0.63674   0.00000  Uiso   1.00
N743   N     0.38100   0.17219   0.54125   0.00000  Uiso   1.00
O744   O     0.34972   0.19450   0.52445   0.00000  Uiso   1.00
O745   O     0.37382   0.14172   0.57191   0.00000  Uiso   1.00
N746   N     0.60339   0.10515   0.95838   0.00000  Uiso   1.00
O747   O     0.64112   0.10949   0.97389   0.00000  Uiso   1.00
O748   O     0.59535   0.07256   0.93033   0.00000  Uiso   1.00
O749   O     0.77226   0.20487   0.75000   0.00000  Uiso   1.00
O750   O     0.89441   0.12846   0.75000   0.00000  Uiso   1.00
O751   O     0.89441   0.20487   0.75001   0.00000  Uiso   1.00
O752   O     0.77226   0.12846   0.75000   0.00000  Uiso   1.00
C753   C     0.75332   0.16664   0.74992   0.00000  Uiso   1.00
C754   C     0.91335   0.16670   0.75011   0.00000  Uiso   1.00
O755   O     0.83333   0.20489   0.68393   0.00000  Uiso   1.00
O756   O     0.83334   0.12844   0.81607   0.00000  Uiso   1.00
O757   O     0.83334   0.20489   0.81608   0.00000  Uiso   1.00
O758   O     0.83333   0.12844   0.68392   0.00000  Uiso   1.00
C759   C     0.83222   0.16668   0.66348   0.00000  Uiso   1.00
C760   C     0.83362   0.16659   0.83643   0.00000  Uiso   1.00
Zn761  Zn    0.83333   0.21771   0.75000   0.00000  Uiso   1.00
Zn762  Zn    0.83333   0.11563   0.75000   0.00000  Uiso   1.00
C763   C     0.87152   0.15552   0.90703   0.00000  Uiso   1.00
C764   C     0.79462   0.18020   0.59244   0.00000  Uiso   1.00
C765   C     0.83445   0.16585   0.88414   0.00000  Uiso   1.00
C766   C     0.83057   0.16607   0.61562   0.00000  Uiso   1.00
C767   C     0.79673   0.17191   0.90598   0.00000  Uiso   1.00
C768   C     0.86491   0.14805   0.59372   0.00000  Uiso   1.00
C769   C     0.79507   0.16944   0.95214   0.00000  Uiso   1.00
C770   C     0.86550   0.14608   0.54752   0.00000  Uiso   1.00
C771   C     0.83126   0.15803   0.97636   0.00000  Uiso   1.00
C772   C     0.82960   0.15824   0.52325   0.00000  Uiso   1.00
C773   C     0.86919   0.14728   0.95372   0.00000  Uiso   1.00
C774   C     0.79233   0.17129   0.54588   0.00000  Uiso   1.00
C775   C     0.75714   0.17626   0.97406   0.00000  Uiso   1.00
C776   C     0.90115   0.13056   0.52561   0.00000  Uiso   1.00
C777   C     0.75488   0.17520   0.52074   0.00000  Uiso   1.00
C778   C     0.90294   0.12938   0.97893   0.00000  Uiso   1.00
H779   H     0.76873   0.17914   0.88678   0.00000  Uiso   1.00
H780   H     0.89192   0.13720   0.61288   0.00000  Uiso   1.00
H781   H     0.72885   0.18078   0.95467   0.00000  Uiso   1.00
H782   H     0.92735   0.11800   0.54494   0.00000  Uiso   1.00
C783   C     0.68794   0.12800   0.76456   0.00000  Uiso   1.00
C784   C     0.97873   0.20537   0.73562   0.00000  Uiso   1.00
C785   C     0.97854   0.12809   0.76477   0.00000  Uiso   1.00
C786   C     0.68812   0.20528   0.73541   0.00000  Uiso   1.00
H787   H     0.70426   0.09813   0.77622   0.00000  Uiso   1.00
H788   H     0.96241   0.23525   0.72395   0.00000  Uiso   1.00
H789   H     0.96207   0.09828   0.77657   0.00000  Uiso   1.00
H790   H     0.70459   0.23509   0.72359   0.00000  Uiso   1.00
C791   C     0.95749   0.16675   0.75023   0.00000  Uiso   1.00
C792   C     0.70918   0.16661   0.74990   0.00000  Uiso   1.00
C793   C     0.86092   0.02400   0.77592   0.00000  Uiso   1.00
C794   C     0.80572   0.30934   0.72412   0.00000  Uiso   1.00
C795   C     0.80574   0.02396   0.72410   0.00000  Uiso   1.00
C796   C     0.86092   0.30938   0.77591   0.00000  Uiso   1.00
H797   H     0.88296   0.04218   0.79667   0.00000  Uiso   1.00
H798   H     0.78361   0.29118   0.70347   0.00000  Uiso   1.00
H799   H     0.78367   0.04210   0.70339   0.00000  Uiso   1.00
H800   H     0.88298   0.29123   0.79664   0.00000  Uiso   1.00
N801   N     0.83333   0.28573   0.75000   0.00000  Uiso   1.00
N802   N     0.83333   0.04760   0.75000   0.00000  Uiso   1.00
C803   C     0.91265   0.15904   0.88182   0.00000  Uiso   1.00
H804   H     0.93890   0.16802   0.90432   0.00000  Uiso   1.00
H805   H     0.91916   0.12706   0.86362   0.00000  Uiso   1.00
H806   H     0.91159   0.18699   0.85685   0.00000  Uiso   1.00
C807   C     0.76196   0.20786   0.61718   0.00000  Uiso   1.00
H808   H     0.74068   0.22629   0.59443   0.00000  Uiso   1.00
H809   H     0.74389   0.18590   0.64045   0.00000  Uiso   1.00
H810   H     0.77716   0.23514   0.63674   0.00000  Uiso   1.00
N811   N     0.71434   0.17219   0.54125   0.00000  Uiso   1.00
O812   O     0.68305   0.19450   0.52445   0.00000  Uiso   1.00
O813   O     0.70715   0.14172   0.57191   0.00000  Uiso   1.00
N814   N     0.93672   0.10515   0.95838   0.00000  Uiso   1.00
O815   O     0.97445   0.10949   0.97389   0.00000  Uiso   1.00
O816   O     0.92868   0.07256   0.93033   0.00000  Uiso   1.00
O817   O     0.10559   0.53821   0.75000   0.00000  Uiso   1.00
O818   O     0.22774   0.46179   0.75000   0.00000  Uiso   1.00
O819   O     0.22774   0.53821   0.75001   0.00000  Uiso   1.00
O820   O     0.10559   0.46179   0.75000   0.00000  Uiso   1.00
C821   C     0.08665   0.49997   0.74992   0.00000  Uiso   1.00
C822   C     0.24668   0.50003   0.75011   0.00000  Uiso   1.00
O823   O     0.16666   0.53823   0.68393   0.00000  Uiso   1.00
O824   O     0.16667   0.46177   0.81607   0.00000  Uiso   1.00
O825   O     0.16667   0.53823   0.81608   0.00000  Uiso   1.00
O826   O     0.16666   0.46177   0.68392   0.00000  Uiso   1.00
C827   C     0.16556   0.50001   0.66348   0.00000  Uiso   1.00
C828   C     0.16695   0.49992   0.83643   0.00000  Uiso   1.00
Zn829  Zn    0.16667   0.55104   0.75000   0.00000  Uiso   1.00
Zn830  Zn    0.16667   0.44896   0.75000   0.00000  Uiso   1.00
C831   C     0.20485   0.48886   0.90703   0.00000  Uiso   1.00
C832   C     0.12795   0.51353   0.59244   0.00000  Uiso   1.00
C833   C     0.16778   0.49918   0.88414   0.00000  Uiso   1.00
C834   C     0.16390   0.49940   0.61562   0.00000  Uiso   1.00
C835   C     0.13006   0.50524   0.90598   0.00000  Uiso   1.00
C836   C     0.19825   0.48138   0.59372   0.00000  Uiso   1.00
C837   C     0.12840   0.50277   0.95214   0.00000  Uiso   1.00
C838   C     0.19883   0.47941   0.54752   0.00000  Uiso   1.00
C839   C     0.16460   0.49137   0.97636   0.00000  Uiso   1.00
C840   C     0.16293   0.49157   0.52325   0.00000  Uiso   1.00
C841   C     0.20252   0.48062   0.95372   0.00000  Uiso   1.00
C842   C     0.12566   0.50462   0.54588   0.00000  Uiso   1.00
C843   C     0.09048   0.50959   0.97406   0.00000  Uiso   1.00
C844   C     0.23448   0.46389   0.52561   0.00000  Uiso   1.00
C845   C     0.08821   0.50854   0.52074   0.00000  Uiso   1.00
C846   C     0.23628   0.46271   0.97893   0.00000  Uiso   1.00
H847   H     0.10206   0.51247   0.88678   0.00000  Uiso   1.00
H848   H     0.22525   0.47053   0.61288   0.00000  Uiso   1.00
H849   H     0.06218   0.51412   0.95467   0.00000  Uiso   1.00
H850   H     0.26068   0.45134   0.54494   0.00000  Uiso   1.00
C851   C     0.02127   0.46134   0.76456   0.00000  Uiso   1.00
C852   C     0.31206   0.53870   0.73562   0.00000  Uiso   1.00
C853   C     0.31187   0.46142   0.76477   0.00000  Uiso   1.00
C854   C     0.02146   0.53862   0.73541   0.00000  Uiso   1.00
H855   H     0.03759   0.43147   0.77622   0.00000  Uiso   1.00
H856   H     0.29575   0.56858   0.72395   0.00000  Uiso   1.00
H857   H     0.29540   0.43161   0.77657   0.00000  Uiso   1.00
H858   H     0.03792   0.56843   0.72359   0.00000  Uiso   1.00
C859   C     0.29082   0.50009   0.75023   0.00000  Uiso   1.00
C860   C     0.04251   0.49994   0.74990   0.00000  Uiso   1.00
C861   C     0.19425   0.35733   0.77592   0.00000  Uiso   1.00
C862   C     0.13905   0.64267   0.72412   0.00000  Uiso   1.00
C863   C     0.13907   0.35729   0.72410   0.00000  Uiso   1.00
C864   C     0.19426   0.64271   0.77591   0.00000  Uiso   1.00
H865   H     0.21629   0.37551   0.79667   0.00000  Uiso   1.00
H866   H     0.11694   0.62452   0.70347   0.00000  Uiso   1.00
H867   H     0.11700   0.37543   0.70339   0.00000  Uiso   1.00
H868   H     0.21631   0.62457   0.79664   0.00000  Uiso   1.00
N869   N     0.16667   0.61907   0.75000   0.00000  Uiso   1.00
N870   N     0.16667   0.38093   0.75000   0.00000  Uiso   1.00
C871   C     0.24599   0.49237   0.88182   0.00000  Uiso   1.00
H872   H     0.27223   0.50135   0.90432   0.00000  Uiso   1.00
H873   H     0.25250   0.46039   0.86362   0.00000  Uiso   1.00
H874   H     0.24492   0.52032   0.85685   0.00000  Uiso   1.00
C875   C     0.09529   0.54119   0.61718   0.00000  Uiso   1.00
H876   H     0.07401   0.55962   0.59443   0.00000  Uiso   1.00
H877   H     0.07722   0.51923   0.64045   0.00000  Uiso   1.00
H878   H     0.11049   0.56848   0.63674   0.00000  Uiso   1.00
N879   N     0.04767   0.50552   0.54125   0.00000  Uiso   1.00
O880   O     0.01638   0.52784   0.52445   0.00000  Uiso   1.00
O881   O     0.04049   0.47505   0.57191   0.00000  Uiso   1.00
N882   N     0.27006   0.43848   0.95838   0.00000  Uiso   1.00
O883   O     0.30779   0.44282   0.97389   0.00000  Uiso   1.00
O884   O     0.26201   0.40589   0.93033   0.00000  Uiso   1.00
O885   O     0.43892   0.53821   0.75000   0.00000  Uiso   1.00
O886   O     0.56108   0.46179   0.75000   0.00000  Uiso   1.00
O887   O     0.56108   0.53821   0.75001   0.00000  Uiso   1.00
O888   O     0.43892   0.46179   0.75000   0.00000  Uiso   1.00
C889   C     0.41998   0.49997   0.74992   0.00000  Uiso   1.00
C890   C     0.58002   0.50003   0.75011   0.00000  Uiso   1.00
O891   O     0.49999   0.53823   0.68393   0.00000  Uiso   1.00
O892   O     0.50001   0.46177   0.81607   0.00000  Uiso   1.00
O893   O     0.50001   0.53823   0.81608   0.00000  Uiso   1.00
O894   O     0.49999   0.46177   0.68392   0.00000  Uiso   1.00
C895   C     0.49889   0.50001   0.66348   0.00000  Uiso   1.00
C896   C     0.50029   0.49992   0.83643   0.00000  Uiso   1.00
Zn897  Zn    0.50000   0.55104   0.75000   0.00000  Uiso   1.00
Zn898  Zn    0.50000   0.44896   0.75000   0.00000  Uiso   1.00
C899   C     0.53818   0.48886   0.90703   0.00000  Uiso   1.00
C900   C     0.46129   0.51353   0.59244   0.00000  Uiso   1.00
C901   C     0.50111   0.49918   0.88414   0.00000  Uiso   1.00
C902   C     0.49724   0.49940   0.61562   0.00000  Uiso   1.00
C903   C     0.46339   0.50524   0.90598   0.00000  Uiso   1.00
C904   C     0.53158   0.48138   0.59372   0.00000  Uiso   1.00
C905   C     0.46174   0.50277   0.95214   0.00000  Uiso   1.00
C906   C     0.53216   0.47941   0.54752   0.00000  Uiso   1.00
C907   C     0.49793   0.49137   0.97636   0.00000  Uiso   1.00
C908   C     0.49626   0.49157   0.52325   0.00000  Uiso   1.00
C909   C     0.53585   0.48062   0.95372   0.00000  Uiso   1.00
C910   C     0.45899   0.50462   0.54588   0.00000  Uiso   1.00
C911   C     0.42381   0.50959   0.97406   0.00000  Uiso   1.00
C912   C     0.56782   0.46389   0.52561   0.00000  Uiso   1.00
C913   C     0.42154   0.50854   0.52074   0.00000  Uiso   1.00
C914   C     0.56961   0.46271   0.97893   0.00000  Uiso   1.00
H915   H     0.43540   0.51247   0.88678   0.00000  Uiso   1.00
H916   H     0.55859   0.47053   0.61288   0.00000  Uiso   1.00
H917   H     0.39551   0.51412   0.95467   0.00000  Uiso   1.00
H918   H     0.59401   0.45134   0.54494   0.00000  Uiso   1.00
C919   C     0.35460   0.46134   0.76456   0.00000  Uiso   1.00
C920   C     0.64540   0.53870   0.73562   0.00000  Uiso   1.00
C921   C     0.64521   0.46142   0.76477   0.00000  Uiso   1.00
C922   C     0.35479   0.53862   0.73541   0.00000  Uiso   1.00
H923   H     0.37093   0.43147   0.77622   0.00000  Uiso   1.00
H924   H     0.62908   0.56858   0.72395   0.00000  Uiso   1.00
H925   H     0.62874   0.43161   0.77657   0.00000  Uiso   1.00
H926   H     0.37126   0.56843   0.72359   0.00000  Uiso   1.00
C927   C     0.62415   0.50009   0.75023   0.00000  Uiso   1.00
C928   C     0.37584   0.49994   0.74990   0.00000  Uiso   1.00
C929   C     0.52758   0.35733   0.77592   0.00000  Uiso   1.00
C930   C     0.47239   0.64267   0.72412   0.00000  Uiso   1.00
C931   C     0.47240   0.35729   0.72410   0.00000  Uiso   1.00
C932   C     0.52759   0.64271   0.77591   0.00000  Uiso   1.00
H933   H     0.54963   0.37551   0.79667   0.00000  Uiso   1.00
H934   H     0.45027   0.62452   0.70347   0.00000  Uiso   1.00
H935   H     0.45034   0.37543   0.70339   0.00000  Uiso   1.00
H936   H     0.54964   0.62457   0.79664   0.00000  Uiso   1.00
N937   N     0.50000   0.61907   0.75000   0.00000  Uiso   1.00
N938   N     0.50000   0.38093   0.75000   0.00000  Uiso   1.00
C939   C     0.57932   0.49237   0.88182   0.00000  Uiso   1.00
H940   H     0.60556   0.50135   0.90432   0.00000  Uiso   1.00
H941   H     0.58583   0.46039   0.86362   0.00000  Uiso   1.00
H942   H     0.57825   0.52032   0.85685   0.00000  Uiso   1.00
C943   C     0.42863   0.54119   0.61718   0.00000  Uiso   1.00
H944   H     0.40735   0.55962   0.59443   0.00000  Uiso   1.00
H945   H     0.41056   0.51923   0.64045   0.00000  Uiso   1.00
H946   H     0.44383   0.56848   0.63674   0.00000  Uiso   1.00
N947   N     0.38100   0.50552   0.54125   0.00000  Uiso   1.00
O948   O     0.34972   0.52784   0.52445   0.00000  Uiso   1.00
O949   O     0.37382   0.47505   0.57191   0.00000  Uiso   1.00
N950   N     0.60339   0.43848   0.95838   0.00000  Uiso   1.00
O951   O     0.64112   0.44282   0.97389   0.00000  Uiso   1.00
O952   O     0.59535   0.40589   0.93033   0.00000  Uiso   1.00
O953   O     0.77226   0.53821   0.75000   0.00000  Uiso   1.00
O954   O     0.89441   0.46179   0.75000   0.00000  Uiso   1.00
O955   O     0.89441   0.53821   0.75001   0.00000  Uiso   1.00
O956   O     0.77226   0.46179   0.75000   0.00000  Uiso   1.00
C957   C     0.75332   0.49997   0.74992   0.00000  Uiso   1.00
C958   C     0.91335   0.50003   0.75011   0.00000  Uiso   1.00
O959   O     0.83333   0.53823   0.68393   0.00000  Uiso   1.00
O960   O     0.83334   0.46177   0.81607   0.00000  Uiso   1.00
O961   O     0.83334   0.53823   0.81608   0.00000  Uiso   1.00
O962   O     0.83333   0.46177   0.68392   0.00000  Uiso   1.00
C963   C     0.83222   0.50001   0.66348   0.00000  Uiso   1.00
C964   C     0.83362   0.49992   0.83643   0.00000  Uiso   1.00
Zn965  Zn    0.83333   0.55104   0.75000   0.00000  Uiso   1.00
Zn966  Zn    0.83333   0.44896   0.75000   0.00000  Uiso   1.00
C967   C     0.87152   0.48886   0.90703   0.00000  Uiso   1.00
C968   C     0.79462   0.51353   0.59244   0.00000  Uiso   1.00
C969   C     0.83445   0.49918   0.88414   0.00000  Uiso   1.00
C970   C     0.83057   0.49940   0.61562   0.00000  Uiso   1.00
C971   C     0.79673   0.50524   0.90598   0.00000  Uiso   1.00
C972   C     0.86491   0.48138   0.59372   0.00000  Uiso   1.00
C973   C     0.79507   0.50277   0.95214   0.00000  Uiso   1.00
C974   C     0.86550   0.47941   0.54752   0.00000  Uiso   1.00
C975   C     0.83126   0.49137   0.97636   0.00000  Uiso   1.00
C976   C     0.82960   0.49157   0.52325   0.00000  Uiso   1.00
C977   C     0.86919   0.48062   0.95372   0.00000  Uiso   1.00
C978   C     0.79233   0.50462   0.54588   0.00000  Uiso   1.00
C979   C     0.75714   0.50959   0.97406   0.00000  Uiso   1.00
C980   C     0.90115   0.46389   0.52561   0.00000  Uiso   1.00
C981   C     0.75488   0.50854   0.52074   0.00000  Uiso   1.00
C982   C     0.90294   0.46271   0.97893   0.00000  Uiso   1.00
H983   H     0.76873   0.51247   0.88678   0.00000  Uiso   1.00
H984   H     0.89192   0.47053   0.61288   0.00000  Uiso   1.00
H985   H     0.72885   0.51412   0.95467   0.00000  Uiso   1.00
H986   H     0.92735   0.45134   0.54494   0.00000  Uiso   1.00
C987   C     0.68794   0.46134   0.76456   0.00000  Uiso   1.00
C988   C     0.97873   0.53870   0.73562   0.00000  Uiso   1.00
C989   C     0.97854   0.46142   0.76477   0.00000  Uiso   1.00
C990   C     0.68812   0.53862   0.73541   0.00000  Uiso   1.00
H991   H     0.70426   0.43147   0.77622   0.00000  Uiso   1.00
H992   H     0.96241   0.56858   0.72395   0.00000  Uiso   1.00
H993   H     0.96207   0.43161   0.77657   0.00000  Uiso   1.00
H994   H     0.70459   0.56843   0.72359   0.00000  Uiso   1.00
C995   C     0.95749   0.50009   0.75023   0.00000  Uiso   1.00
C996   C     0.70918   0.49994   0.74990   0.00000  Uiso   1.00
C997   C     0.86092   0.35733   0.77592   0.00000  Uiso   1.00
C998   C     0.80572   0.64267   0.72412   0.00000  Uiso   1.00
C999   C     0.80574   0.35729   0.72410   0.00000  Uiso   1.00
C1000  C     0.86092   0.64271   0.77591   0.00000  Uiso   1.00
H1001  H     0.88296   0.37551   0.79667   0.00000  Uiso   1.00
H1002  H     0.78361   0.62452   0.70347   0.00000  Uiso   1.00
H1003  H     0.78367   0.37543   0.70339   0.00000  Uiso   1.00
H1004  H     0.88298   0.62457   0.79664   0.00000  Uiso   1.00
N1005  N     0.83333   0.61907   0.75000   0.00000  Uiso   1.00
N1006  N     0.83333   0.38093   0.75000   0.00000  Uiso   1.00
C1007  C     0.91265   0.49237   0.88182   0.00000  Uiso   1.00
H1008  H     0.93890   0.50135   0.90432   0.00000  Uiso   1.00
H1009  H     0.91916   0.46039   0.86362   0.00000  Uiso   1.00
H1010  H     0.91159   0.52032   0.85685   0.00000  Uiso   1.00
C1011  C     0.76196   0.54119   0.61718   0.00000  Uiso   1.00
H1012  H     0.74068   0.55962   0.59443   0.00000  Uiso   1.00
H1013  H     0.74389   0.51923   0.64045   0.00000  Uiso   1.00
H1014  H     0.77716   0.56848   0.63674   0.00000  Uiso   1.00
N1015  N     0.71434   0.50552   0.54125   0.00000  Uiso   1.00
O1016  O     0.68305   0.52784   0.52445   0.00000  Uiso   1.00
O1017  O     0.70715   0.47505   0.57191   0.00000  Uiso   1.00
N1018  N     0.93672   0.43848   0.95838   0.00000  Uiso   1.00
O1019  O     0.97445   0.44282   0.97389   0.00000  Uiso   1.00
O1020  O     0.92868   0.40589   0.93033   0.00000  Uiso   1.00
O1021  O     0.10559   0.87154   0.75000   0.00000  Uiso   1.00
O1022  O     0.22774   0.79513   0.75000   0.00000  Uiso   1.00
O1023  O     0.22774   0.87154   0.75001   0.00000  Uiso   1.00
O1024  O     0.10559   0.79513   0.75000   0.00000  Uiso   1.00
C1025  C     0.08665   0.83330   0.74992   0.00000  Uiso   1.00
C1026  C     0.24668   0.83337   0.75011   0.00000  Uiso   1.00
O1027  O     0.16666   0.87156   0.68393   0.00000  Uiso   1.00
O1028  O     0.16667   0.79511   0.81607   0.00000  Uiso   1.00
O1029  O     0.16667   0.87156   0.81608   0.00000  Uiso   1.00
O1030  O     0.16666   0.79511   0.68392   0.00000  Uiso   1.00
C1031  C     0.16556   0.83335   0.66348   0.00000  Uiso   1.00
C1032  C     0.16695   0.83326   0.83643   0.00000  Uiso   1.00
Zn1033 Zn    0.16667   0.88437   0.75000   0.00000  Uiso   1.00
Zn1034 Zn    0.16667   0.78229   0.75000   0.00000  Uiso   1.00
C1035  C     0.20485   0.82219   0.90703   0.00000  Uiso   1.00
C1036  C     0.12795   0.84686   0.59244   0.00000  Uiso   1.00
C1037  C     0.16778   0.83251   0.88414   0.00000  Uiso   1.00
C1038  C     0.16390   0.83273   0.61562   0.00000  Uiso   1.00
C1039  C     0.13006   0.83857   0.90598   0.00000  Uiso   1.00
C1040  C     0.19825   0.81471   0.59372   0.00000  Uiso   1.00
C1041  C     0.12840   0.83610   0.95214   0.00000  Uiso   1.00
C1042  C     0.19883   0.81274   0.54752   0.00000  Uiso   1.00
C1043  C     0.16460   0.82470   0.97636   0.00000  Uiso   1.00
C1044  C     0.16293   0.82490   0.52325   0.00000  Uiso   1.00
C1045  C     0.20252   0.81395   0.95372   0.00000  Uiso   1.00
C1046  C     0.12566   0.83796   0.54588   0.00000  Uiso   1.00
C1047  C     0.09048   0.84293   0.97406   0.00000  Uiso   1.00
C1048  C     0.23448   0.79723   0.52561   0.00000  Uiso   1.00
C1049  C     0.08821   0.84187   0.52074   0.00000  Uiso   1.00
C1050  C     0.23628   0.79604   0.97893   0.00000  Uiso   1.00
H1051  H     0.10206   0.84580   0.88678   0.00000  Uiso   1.00
H1052  H     0.22525   0.80386   0.61288   0.00000  Uiso   1.00
H1053  H     0.06218   0.84745   0.95467   0.00000  Uiso   1.00
H1054  H     0.26068   0.78467   0.54494   0.00000  Uiso   1.00
C1055  C     0.02127   0.79467   0.76456   0.00000  Uiso   1.00
C1056  C     0.31206   0.87204   0.73562   0.00000  Uiso   1.00
C1057  C     0.31187   0.79476   0.76477   0.00000  Uiso   1.00
C1058  C     0.02146   0.87195   0.73541   0.00000  Uiso   1.00
H1059  H     0.03759   0.76480   0.77622   0.00000  Uiso   1.00
H1060  H     0.29575   0.90191   0.72395   0.00000  Uiso   1.00
H1061  H     0.29540   0.76494   0.77657   0.00000  Uiso   1.00
H1062  H     0.03792   0.90176   0.72359   0.00000  Uiso   1.00
C1063  C     0.29082   0.83342   0.75023   0.00000  Uiso   1.00
C1064  C     0.04251   0.83327   0.74990   0.00000  Uiso   1.00
C1065  C     0.19425   0.69067   0.77592   0.00000  Uiso   1.00
C1066  C     0.13905   0.97601   0.72412   0.00000  Uiso   1.00
C1067  C     0.13907   0.69062   0.72410   0.00000  Uiso   1.00
C1068  C     0.19426   0.97604   0.77591   0.00000  Uiso   1.00
H1069  H     0.21629   0.70884   0.79667   0.00000  Uiso   1.00
H1070  H     0.11694   0.95785   0.70347   0.00000  Uiso   1.00
H1071  H     0.11700   0.70876   0.70339   0.00000  Uiso   1.00
H1072  H     0.21631   0.95790   0.79664   0.00000  Uiso   1.00
N1073  N     0.16667   0.95240   0.75000   0.00000  Uiso   1.00
N1074  N     0.16667   0.71427   0.75000   0.00000  Uiso   1.00
C1075  C     0.24599   0.82571   0.88182   0.00000  Uiso   1.00
H1076  H     0.27223   0.83469   0.90432   0.00000  Uiso   1.00
H1077  H     0.25250   0.79372   0.86362   0.00000  Uiso   1.00
H1078  H     0.24492   0.85366   0.85685   0.00000  Uiso   1.00
C1079  C     0.09529   0.87453   0.61718   0.00000  Uiso   1.00
H1080  H     0.07401   0.89295   0.59443   0.00000  Uiso   1.00
H1081  H     0.07722   0.85257   0.64045   0.00000  Uiso   1.00
H1082  H     0.11049   0.90181   0.63674   0.00000  Uiso   1.00
N1083  N     0.04767   0.83886   0.54125   0.00000  Uiso   1.00
O1084  O     0.01638   0.86117   0.52445   0.00000  Uiso   1.00
O1085  O     0.04049   0.80839   0.57191   0.00000  Uiso   1.00
N1086  N     0.27006   0.77182   0.95838   0.00000  Uiso   1.00
O1087  O     0.30779   0.77615   0.97389   0.00000  Uiso   1.00
O1088  O     0.26201   0.73922   0.93033   0.00000  Uiso   1.00
O1089  O     0.43892   0.87154   0.75000   0.00000  Uiso   1.00
O1090  O     0.56108   0.79513   0.75000   0.00000  Uiso   1.00
O1091  O     0.56108   0.87154   0.75001   0.00000  Uiso   1.00
O1092  O     0.43892   0.79513   0.75000   0.00000  Uiso   1.00
C1093  C     0.41998   0.83330   0.74992   0.00000  Uiso   1.00
C1094  C     0.58002   0.83337   0.75011   0.00000  Uiso   1.00
O1095  O     0.49999   0.87156   0.68393   0.00000  Uiso   1.00
O1096  O     0.50001   0.79511   0.81607   0.00000  Uiso   1.00
O1097  O     0.50001   0.87156   0.81608   0.00000  Uiso   1.00
O1098  O     0.49999   0.79511   0.68392   0.00000  Uiso   1.00
C1099  C     0.49889   0.83335   0.66348   0.00000  Uiso   1.00
C1100  C     0.50029   0.83326   0.83643   0.00000  Uiso   1.00
Zn1101 Zn    0.50000   0.88437   0.75000   0.00000  Uiso   1.00
Zn1102 Zn    0.50000   0.78229   0.75000   0.00000  Uiso   1.00
C1103  C     0.53818   0.82219   0.90703   0.00000  Uiso   1.00
C1104  C     0.46129   0.84686   0.59244   0.00000  Uiso   1.00
C1105  C     0.50111   0.83251   0.88414   0.00000  Uiso   1.00
C1106  C     0.49724   0.83273   0.61562   0.00000  Uiso   1.00
C1107  C     0.46339   0.83857   0.90598   0.00000  Uiso   1.00
C1108  C     0.53158   0.81471   0.59372   0.00000  Uiso   1.00
C1109  C     0.46174   0.83610   0.95214   0.00000  Uiso   1.00
C1110  C     0.53216   0.81274   0.54752   0.00000  Uiso   1.00
C1111  C     0.49793   0.82470   0.97636   0.00000  Uiso   1.00
C1112  C     0.49626   0.82490   0.52325   0.00000  Uiso   1.00
C1113  C     0.53585   0.81395   0.95372   0.00000  Uiso   1.00
C1114  C     0.45899   0.83796   0.54588   0.00000  Uiso   1.00
C1115  C     0.42381   0.84293   0.97406   0.00000  Uiso   1.00
C1116  C     0.56782   0.79723   0.52561   0.00000  Uiso   1.00
C1117  C     0.42154   0.84187   0.52074   0.00000  Uiso   1.00
C1118  C     0.56961   0.79604   0.97893   0.00000  Uiso   1.00
H1119  H     0.43540   0.84580   0.88678   0.00000  Uiso   1.00
H1120  H     0.55859   0.80386   0.61288   0.00000  Uiso   1.00
H1121  H     0.39551   0.84745   0.95467   0.00000  Uiso   1.00
H1122  H     0.59401   0.78467   0.54494   0.00000  Uiso   1.00
C1123  C     0.35460   0.79467   0.76456   0.00000  Uiso   1.00
C1124  C     0.64540   0.87204   0.73562   0.00000  Uiso   1.00
C1125  C     0.64521   0.79476   0.76477   0.00000  Uiso   1.00
C1126  C     0.35479   0.87195   0.73541   0.00000  Uiso   1.00
H1127  H     0.37093   0.76480   0.77622   0.00000  Uiso   1.00
H1128  H     0.62908   0.90191   0.72395   0.00000  Uiso   1.00
H1129  H     0.62874   0.76494   0.77657   0.00000  Uiso   1.00
H1130  H     0.37126   0.90176   0.72359   0.00000  Uiso   1.00
C1131  C     0.62415   0.83342   0.75023   0.00000  Uiso   1.00
C1132  C     0.37584   0.83327   0.74990   0.00000  Uiso   1.00
C1133  C     0.52758   0.69067   0.77592   0.00000  Uiso   1.00
C1134  C     0.47239   0.97601   0.72412   0.00000  Uiso   1.00
C1135  C     0.47240   0.69062   0.72410   0.00000  Uiso   1.00
C1136  C     0.52759   0.97604   0.77591   0.00000  Uiso   1.00
H1137  H     0.54963   0.70884   0.79667   0.00000  Uiso   1.00
H1138  H     0.45027   0.95785   0.70347   0.00000  Uiso   1.00
H1139  H     0.45034   0.70876   0.70339   0.00000  Uiso   1.00
H1140  H     0.54964   0.95790   0.79664   0.00000  Uiso   1.00
N1141  N     0.50000   0.95240   0.75000   0.00000  Uiso   1.00
N1142  N     0.50000   0.71427   0.75000   0.00000  Uiso   1.00
C1143  C     0.57932   0.82571   0.88182   0.00000  Uiso   1.00
H1144  H     0.60556   0.83469   0.90432   0.00000  Uiso   1.00
H1145  H     0.58583   0.79372   0.86362   0.00000  Uiso   1.00
H1146  H     0.57825   0.85366   0.85685   0.00000  Uiso   1.00
C1147  C     0.42863   0.87453   0.61718   0.00000  Uiso   1.00
H1148  H     0.40735   0.89295   0.59443   0.00000  Uiso   1.00
H1149  H     0.41056   0.85257   0.64045   0.00000  Uiso   1.00
H1150  H     0.44383   0.90181   0.63674   0.00000  Uiso   1.00
N1151  N     0.38100   0.83886   0.54125   0.00000  Uiso   1.00
O1152  O     0.34972   0.86117   0.52445   0.00000  Uiso   1.00
O1153  O     0.37382   0.80839   0.57191   0.00000  Uiso   1.00
N1154  N     0.60339   0.77182   0.95838   0.00000  Uiso   1.00
O1155  O     0.64112   0.77615   0.97389   0.00000  Uiso   1.00
O1156  O     0.59535   0.73922   0.93033   0.00000  Uiso   1.00
O1157  O     0.77226   0.87154   0.75000   0.00000  Uiso   1.00
O1158  O     0.89441   0.79513   0.75000   0.00000  Uiso   1.00
O1159  O     0.89441   0.87154   0.75001   0.00000  Uiso   1.00
O1160  O     0.77226   0.79513   0.75000   0.00000  Uiso   1.00
C1161  C     0.75332   0.83330   0.74992   0.00000  Uiso   1.00
C1162  C     0.91335   0.83337   0.75011   0.00000  Uiso   1.00
O1163  O     0.83333   0.87156   0.68393   0.00000  Uiso   1.00
O1164  O     0.83334   0.79511   0.81607   0.00000  Uiso   1.00
O1165  O     0.83334   0.87156   0.81608   0.00000  Uiso   1.00
O1166  O     0.83333   0.79511   0.68392   0.00000  Uiso   1.00
C1167  C     0.83222   0.83335   0.66348   0.00000  Uiso   1.00
C1168  C     0.83362   0.83326   0.83643   0.00000  Uiso   1.00
Zn1169 Zn    0.83333   0.88437   0.75000   0.00000  Uiso   1.00
Zn1170 Zn    0.83333   0.78229   0.75000   0.00000  Uiso   1.00
C1171  C     0.87152   0.82219   0.90703   0.00000  Uiso   1.00
C1172  C     0.79462   0.84686   0.59244   0.00000  Uiso   1.00
C1173  C     0.83445   0.83251   0.88414   0.00000  Uiso   1.00
C1174  C     0.83057   0.83273   0.61562   0.00000  Uiso   1.00
C1175  C     0.79673   0.83857   0.90598   0.00000  Uiso   1.00
C1176  C     0.86491   0.81471   0.59372   0.00000  Uiso   1.00
C1177  C     0.79507   0.83610   0.95214   0.00000  Uiso   1.00
C1178  C     0.86550   0.81274   0.54752   0.00000  Uiso   1.00
C1179  C     0.83126   0.82470   0.97636   0.00000  Uiso   1.00
C1180  C     0.82960   0.82490   0.52325   0.00000  Uiso   1.00
C1181  C     0.86919   0.81395   0.95372   0.00000  Uiso   1.00
C1182  C     0.79233   0.83796   0.54588   0.00000  Uiso   1.00
C1183  C     0.75714   0.84293   0.97406   0.00000  Uiso   1.00
C1184  C     0.90115   0.79723   0.52561   0.00000  Uiso   1.00
C1185  C     0.75488   0.84187   0.52074   0.00000  Uiso   1.00
C1186  C     0.90294   0.79604   0.97893   0.00000  Uiso   1.00
H1187  H     0.76873   0.84580   0.88678   0.00000  Uiso   1.00
H1188  H     0.89192   0.80386   0.61288   0.00000  Uiso   1.00
H1189  H     0.72885   0.84745   0.95467   0.00000  Uiso   1.00
H1190  H     0.92735   0.78467   0.54494   0.00000  Uiso   1.00
C1191  C     0.68794   0.79467   0.76456   0.00000  Uiso   1.00
C1192  C     0.97873   0.87204   0.73562   0.00000  Uiso   1.00
C1193  C     0.97854   0.79476   0.76477   0.00000  Uiso   1.00
C1194  C     0.68812   0.87195   0.73541   0.00000  Uiso   1.00
H1195  H     0.70426   0.76480   0.77622   0.00000  Uiso   1.00
H1196  H     0.96241   0.90191   0.72395   0.00000  Uiso   1.00
H1197  H     0.96207   0.76494   0.77657   0.00000  Uiso   1.00
H1198  H     0.70459   0.90176   0.72359   0.00000  Uiso   1.00
C1199  C     0.95749   0.83342   0.75023   0.00000  Uiso   1.00
C1200  C     0.70918   0.83327   0.74990   0.00000  Uiso   1.00
C1201  C     0.86092   0.69067   0.77592   0.00000  Uiso   1.00
C1202  C     0.80572   0.97601   0.72412   0.00000  Uiso   1.00
C1203  C     0.80574   0.69062   0.72410   0.00000  Uiso   1.00
C1204  C     0.86092   0.97604   0.77591   0.00000  Uiso   1.00
H1205  H     0.88296   0.70884   0.79667   0.00000  Uiso   1.00
H1206  H     0.78361   0.95785   0.70347   0.00000  Uiso   1.00
H1207  H     0.78367   0.70876   0.70339   0.00000  Uiso   1.00
H1208  H     0.88298   0.95790   0.79664   0.00000  Uiso   1.00
N1209  N     0.83333   0.95240   0.75000   0.00000  Uiso   1.00
N1210  N     0.83333   0.71427   0.75000   0.00000  Uiso   1.00
C1211  C     0.91265   0.82571   0.88182   0.00000  Uiso   1.00
H1212  H     0.93890   0.83469   0.90432   0.00000  Uiso   1.00
H1213  H     0.91916   0.79372   0.86362   0.00000  Uiso   1.00
H1214  H     0.91159   0.85366   0.85685   0.00000  Uiso   1.00
C1215  C     0.76196   0.87453   0.61718   0.00000  Uiso   1.00
H1216  H     0.74068   0.89295   0.59443   0.00000  Uiso   1.00
H1217  H     0.74389   0.85257   0.64045   0.00000  Uiso   1.00
H1218  H     0.77716   0.90181   0.63674   0.00000  Uiso   1.00
N1219  N     0.71434   0.83886   0.54125   0.00000  Uiso   1.00
O1220  O     0.68305   0.86117   0.52445   0.00000  Uiso   1.00
O1221  O     0.70715   0.80839   0.57191   0.00000  Uiso   1.00
N1222  N     0.93672   0.77182   0.95838   0.00000  Uiso   1.00
O1223  O     0.97445   0.77615   0.97389   0.00000  Uiso   1.00
O1224  O     0.92868   0.73922   0.93033   0.00000  Uiso   1.00
loop_
_geom_bond_atom_site_label_1
_geom_bond_atom_site_label_2
_geom_bond_distance
_geom_bond_site_symmetry_2
_ccdc_geom_bond_type
O1     C5      1.281   .     A
O1     Zn13    1.994   .     S
O2     C6      1.282   .     A
O2     Zn14    1.994   .     S
O3     Zn13    1.995   .     S
O3     C6      1.282   .     A
O4     Zn14    1.995   .     S
O4     C5      1.282   .     A
C5     C44     1.415   .     S
C6     C43     1.415   .     S
O7     Zn13    2.004   .     S
O7     C11     1.284   .     A
O8     C12     1.281   .     A
O8     Zn14    2.004   .     S
O9     C12     1.283   .     A
O9     Zn13    2.003   .     S
O10    C11     1.283   .     A
O10    Zn14    2.003   .     S
C11    C18     1.427   .     S
C12    C17     1.421   .     S
Zn13   N53     2.010   .     S
Zn14   N54     2.010   .     S
C15    C25     1.413   .     A
C15    C17     1.405   .     A
C15    C55     1.520   .     S
C16    C26     1.414   .     A
C16    C18     1.408   .     A
C16    C59     1.520   .     S
C17    C19     1.384   .     A
C18    C20     1.386   .     A
C19    H31     1.086   .     S
C19    C21     1.377   .     A
C20    C22     1.377   .     A
C20    H32     1.086   .     S
C21    C27     1.394   .     A
C21    C23     1.408   .     A
C22    C28     1.394   .     A
C22    C24     1.407   .     A
C23    C25     1.426   .     A
C23    C636    1.398   .     S
C24    C26     1.425   .     A
C24    C635    1.398   1_554 S
C25    C30     1.421   .     A
C26    C29     1.421   .     A
C27    H33     1.085   .     S
C27    C641    1.392   .     S
C28    H34     1.085   .     S
C28    C642    1.392   1_554 S
C29    N63     1.438   .     S
C29    C639    1.392   1_554 S
C30    N66     1.436   .     S
C30    C640    1.392   .     S
C35    H39     1.084   .     S
C35    C44     1.396   .     A
C35    C173    1.370   1_455 S
C36    H40     1.084   .     S
C36    C43     1.396   .     A
C36    C106    1.370   .     S
C37    C43     1.396   .     A
C37    H41     1.084   .     S
C37    C103    1.370   .     S
C38    C44     1.396   .     A
C38    H42     1.084   .     S
C38    C172    1.370   1_455 S
C45    H49     1.082   .     S
C45    N54     1.366   .     A
C45    C456    1.417   1_545 S
C46    H50     1.082   .     S
C46    N53     1.366   .     A
C46    C251    1.416   .     S
C47    N54     1.366   .     A
C47    H51     1.082   .     S
C47    C454    1.416   1_545 S
C48    H52     1.082   .     S
C48    N53     1.367   .     A
C48    C249    1.417   .     S
C55    H56     1.108   .     S
C55    H57     1.110   .     S
C55    H58     1.111   .     S
C59    H60     1.106   .     S
C59    H61     1.110   .     S
C59    H62     1.108   .     S
N63    O65     1.301   .     A
N63    O64     1.302   .     A
N66    O68     1.302   .     A
N66    O67     1.302   .     A
O69    C73     1.281   .     A
O69    Zn81    1.994   .     S
O70    C74     1.282   .     A
O70    Zn82    1.994   .     S
O71    Zn81    1.995   .     S
O71    C74     1.282   .     A
O72    Zn82    1.995   .     S
O72    C73     1.282   .     A
C73    C112    1.415   .     S
C74    C111    1.415   .     S
O75    Zn81    2.004   .     S
O75    C79     1.284   .     A
O76    C80     1.281   .     A
O76    Zn82    2.004   .     S
O77    C80     1.283   .     A
O77    Zn81    2.003   .     S
O78    C79     1.283   .     A
O78    Zn82    2.003   .     S
C79    C86     1.427   .     S
C80    C85     1.421   .     S
Zn81   N121    2.010   .     S
Zn82   N122    2.010   .     S
C83    C93     1.413   .     A
C83    C85     1.405   .     A
C83    C123    1.520   .     S
C84    C94     1.414   .     A
C84    C86     1.408   .     A
C84    C127    1.520   .     S
C85    C87     1.384   .     A
C86    C88     1.386   .     A
C87    H99     1.086   .     S
C87    C89     1.377   .     A
C88    C90     1.377   .     A
C88    H100    1.086   .     S
C89    C95     1.394   .     A
C89    C91     1.408   .     A
C90    C96     1.394   .     A
C90    C92     1.407   .     A
C91    C93     1.426   .     A
C91    C704    1.398   .     S
C92    C94     1.425   .     A
C92    C703    1.398   1_554 S
C93    C98     1.421   .     A
C94    C97     1.421   .     A
C95    H101    1.085   .     S
C95    C709    1.392   .     S
C96    H102    1.085   .     S
C96    C710    1.392   1_554 S
C97    N131    1.438   .     S
C97    C707    1.392   1_554 S
C98    N134    1.436   .     S
C98    C708    1.392   .     S
C103   H107    1.084   .     S
C103   C112    1.396   .     A
C104   H108    1.084   .     S
C104   C111    1.396   .     A
C104   C174    1.370   .     S
C105   C111    1.396   .     A
C105   H109    1.084   .     S
C105   C171    1.370   .     S
C106   C112    1.396   .     A
C106   H110    1.084   .     S
C113   H117    1.082   .     S
C113   N122    1.366   .     A
C113   C524    1.417   1_545 S
C114   H118    1.082   .     S
C114   N121    1.366   .     A
C114   C319    1.416   .     S
C115   N122    1.366   .     A
C115   H119    1.082   .     S
C115   C522    1.416   1_545 S
C116   H120    1.082   .     S
C116   N121    1.367   .     A
C116   C317    1.417   .     S
C123   H124    1.108   .     S
C123   H125    1.110   .     S
C123   H126    1.111   .     S
C127   H128    1.106   .     S
C127   H129    1.110   .     S
C127   H130    1.108   .     S
N131   O133    1.301   .     A
N131   O132    1.302   .     A
N134   O136    1.302   .     A
N134   O135    1.302   .     A
O137   C141    1.281   .     A
O137   Zn149   1.994   .     S
O138   C142    1.282   .     A
O138   Zn150   1.994   .     S
O139   Zn149   1.995   .     S
O139   C142    1.282   .     A
O140   Zn150   1.995   .     S
O140   C141    1.282   .     A
C141   C180    1.415   .     S
C142   C179    1.415   .     S
O143   Zn149   2.004   .     S
O143   C147    1.284   .     A
O144   C148    1.281   .     A
O144   Zn150   2.004   .     S
O145   C148    1.283   .     A
O145   Zn149   2.003   .     S
O146   C147    1.283   .     A
O146   Zn150   2.003   .     S
C147   C154    1.427   .     S
C148   C153    1.421   .     S
Zn149  N189    2.010   .     S
Zn150  N190    2.010   .     S
C151   C161    1.413   .     A
C151   C153    1.405   .     A
C151   C191    1.520   .     S
C152   C162    1.414   .     A
C152   C154    1.408   .     A
C152   C195    1.520   .     S
C153   C155    1.384   .     A
C154   C156    1.386   .     A
C155   H167    1.086   .     S
C155   C157    1.377   .     A
C156   C158    1.377   .     A
C156   H168    1.086   .     S
C157   C163    1.394   .     A
C157   C159    1.408   .     A
C158   C164    1.394   .     A
C158   C160    1.407   .     A
C159   C161    1.426   .     A
C159   C772    1.398   .     S
C160   C162    1.425   .     A
C160   C771    1.398   1_554 S
C161   C166    1.421   .     A
C162   C165    1.421   .     A
C163   H169    1.085   .     S
C163   C777    1.392   .     S
C164   H170    1.085   .     S
C164   C778    1.392   1_554 S
C165   N199    1.438   .     S
C165   C775    1.392   1_554 S
C166   N202    1.436   .     S
C166   C776    1.392   .     S
C171   H175    1.084   .     S
C171   C180    1.396   .     A
C172   H176    1.084   .     S
C172   C179    1.396   .     A
C172   C38     1.370   1_655 S
C173   C179    1.396   .     A
C173   H177    1.084   .     S
C173   C35     1.370   1_655 S
C174   C180    1.396   .     A
C174   H178    1.084   .     S
C181   H185    1.082   .     S
C181   N190    1.366   .     A
C181   C592    1.417   1_545 S
C182   H186    1.082   .     S
C182   N189    1.366   .     A
C182   C387    1.416   .     S
C183   N190    1.366   .     A
C183   H187    1.082   .     S
C183   C590    1.416   1_545 S
C184   H188    1.082   .     S
C184   N189    1.367   .     A
C184   C385    1.417   .     S
C191   H192    1.108   .     S
C191   H193    1.110   .     S
C191   H194    1.111   .     S
C195   H196    1.106   .     S
C195   H197    1.110   .     S
C195   H198    1.108   .     S
N199   O201    1.301   .     A
N199   O200    1.302   .     A
N202   O204    1.302   .     A
N202   O203    1.302   .     A
O205   C209    1.281   .     A
O205   Zn217   1.994   .     S
O206   C210    1.282   .     A
O206   Zn218   1.994   .     S
O207   Zn217   1.995   .     S
O207   C210    1.282   .     A
O208   Zn218   1.995   .     S
O208   C209    1.282   .     A
C209   C248    1.415   .     S
C210   C247    1.415   .     S
O211   Zn217   2.004   .     S
O211   C215    1.284   .     A
O212   C216    1.281   .     A
O212   Zn218   2.004   .     S
O213   C216    1.283   .     A
O213   Zn217   2.003   .     S
O214   C215    1.283   .     A
O214   Zn218   2.003   .     S
C215   C222    1.427   .     S
C216   C221    1.421   .     S
Zn217  N257    2.010   .     S
Zn218  N258    2.010   .     S
C219   C229    1.413   .     A
C219   C221    1.405   .     A
C219   C259    1.520   .     S
C220   C230    1.414   .     A
C220   C222    1.408   .     A
C220   C263    1.520   .     S
C221   C223    1.384   .     A
C222   C224    1.386   .     A
C223   H235    1.086   .     S
C223   C225    1.377   .     A
C224   C226    1.377   .     A
C224   H236    1.086   .     S
C225   C231    1.394   .     A
C225   C227    1.408   .     A
C226   C232    1.394   .     A
C226   C228    1.407   .     A
C227   C229    1.426   .     A
C227   C840    1.398   .     S
C228   C230    1.425   .     A
C228   C839    1.398   1_554 S
C229   C234    1.421   .     A
C230   C233    1.421   .     A
C231   H237    1.085   .     S
C231   C845    1.392   .     S
C232   H238    1.085   .     S
C232   C846    1.392   1_554 S
C233   N267    1.438   .     S
C233   C843    1.392   1_554 S
C234   N270    1.436   .     S
C234   C844    1.392   .     S
C239   H243    1.084   .     S
C239   C248    1.396   .     A
C239   C377    1.370   1_455 S
C240   H244    1.084   .     S
C240   C247    1.396   .     A
C240   C310    1.370   .     S
C241   C247    1.396   .     A
C241   H245    1.084   .     S
C241   C307    1.370   .     S
C242   C248    1.396   .     A
C242   H246    1.084   .     S
C242   C376    1.370   1_455 S
C249   H253    1.082   .     S
C249   N258    1.366   .     A
C250   H254    1.082   .     S
C250   N257    1.366   .     A
C250   C455    1.416   .     S
C251   N258    1.366   .     A
C251   H255    1.082   .     S
C252   H256    1.082   .     S
C252   N257    1.367   .     A
C252   C453    1.417   .     S
C259   H260    1.108   .     S
C259   H261    1.110   .     S
C259   H262    1.111   .     S
C263   H264    1.106   .     S
C263   H265    1.110   .     S
C263   H266    1.108   .     S
N267   O269    1.301   .     A
N267   O268    1.302   .     A
N270   O272    1.302   .     A
N270   O271    1.302   .     A
O273   C277    1.281   .     A
O273   Zn285   1.994   .     S
O274   C278    1.282   .     A
O274   Zn286   1.994   .     S
O275   Zn285   1.995   .     S
O275   C278    1.282   .     A
O276   Zn286   1.995   .     S
O276   C277    1.282   .     A
C277   C316    1.415   .     S
C278   C315    1.415   .     S
O279   Zn285   2.004   .     S
O279   C283    1.284   .     A
O280   C284    1.281   .     A
O280   Zn286   2.004   .     S
O281   C284    1.283   .     A
O281   Zn285   2.003   .     S
O282   C283    1.283   .     A
O282   Zn286   2.003   .     S
C283   C290    1.427   .     S
C284   C289    1.421   .     S
Zn285  N325    2.010   .     S
Zn286  N326    2.010   .     S
C287   C297    1.413   .     A
C287   C289    1.405   .     A
C287   C327    1.520   .     S
C288   C298    1.414   .     A
C288   C290    1.408   .     A
C288   C331    1.520   .     S
C289   C291    1.384   .     A
C290   C292    1.386   .     A
C291   H303    1.086   .     S
C291   C293    1.377   .     A
C292   C294    1.377   .     A
C292   H304    1.086   .     S
C293   C299    1.394   .     A
C293   C295    1.408   .     A
C294   C300    1.394   .     A
C294   C296    1.407   .     A
C295   C297    1.426   .     A
C295   C908    1.398   .     S
C296   C298    1.425   .     A
C296   C907    1.398   1_554 S
C297   C302    1.421   .     A
C298   C301    1.421   .     A
C299   H305    1.085   .     S
C299   C913    1.392   .     S
C300   H306    1.085   .     S
C300   C914    1.392   1_554 S
C301   N335    1.438   .     S
C301   C911    1.392   1_554 S
C302   N338    1.436   .     S
C302   C912    1.392   .     S
C307   H311    1.084   .     S
C307   C316    1.396   .     A
C308   H312    1.084   .     S
C308   C315    1.396   .     A
C308   C378    1.370   .     S
C309   C315    1.396   .     A
C309   H313    1.084   .     S
C309   C375    1.370   .     S
C310   C316    1.396   .     A
C310   H314    1.084   .     S
C317   H321    1.082   .     S
C317   N326    1.366   .     A
C318   H322    1.082   .     S
C318   N325    1.366   .     A
C318   C523    1.416   .     S
C319   N326    1.366   .     A
C319   H323    1.082   .     S
C320   H324    1.082   .     S
C320   N325    1.367   .     A
C320   C521    1.417   .     S
C327   H328    1.108   .     S
C327   H329    1.110   .     S
C327   H330    1.111   .     S
C331   H332    1.106   .     S
C331   H333    1.110   .     S
C331   H334    1.108   .     S
N335   O337    1.301   .     A
N335   O336    1.302   .     A
N338   O340    1.302   .     A
N338   O339    1.302   .     A
O341   C345    1.281   .     A
O341   Zn353   1.994   .     S
O342   C346    1.282   .     A
O342   Zn354   1.994   .     S
O343   Zn353   1.995   .     S
O343   C346    1.282   .     A
O344   Zn354   1.995   .     S
O344   C345    1.282   .     A
C345   C384    1.415   .     S
C346   C383    1.415   .     S
O347   Zn353   2.004   .     S
O347   C351    1.284   .     A
O348   C352    1.281   .     A
O348   Zn354   2.004   .     S
O349   C352    1.283   .     A
O349   Zn353   2.003   .     S
O350   C351    1.283   .     A
O350   Zn354   2.003   .     S
C351   C358    1.427   .     S
C352   C357    1.421   .     S
Zn353  N393    2.010   .     S
Zn354  N394    2.010   .     S
C355   C365    1.413   .     A
C355   C357    1.405   .     A
C355   C395    1.520   .     S
C356   C366    1.414   .     A
C356   C358    1.408   .     A
C356   C399    1.520   .     S
C357   C359    1.384   .     A
C358   C360    1.386   .     A
C359   H371    1.086   .     S
C359   C361    1.377   .     A
C360   C362    1.377   .     A
C360   H372    1.086   .     S
C361   C367    1.394   .     A
C361   C363    1.408   .     A
C362   C368    1.394   .     A
C362   C364    1.407   .     A
C363   C365    1.426   .     A
C363   C976    1.398   .     S
C364   C366    1.425   .     A
C364   C975    1.398   1_554 S
C365   C370    1.421   .     A
C366   C369    1.421   .     A
C367   H373    1.085   .     S
C367   C981    1.392   .     S
C368   H374    1.085   .     S
C368   C982    1.392   1_554 S
C369   N403    1.438   .     S
C369   C979    1.392   1_554 S
C370   N406    1.436   .     S
C370   C980    1.392   .     S
C375   H379    1.084   .     S
C375   C384    1.396   .     A
C376   H380    1.084   .     S
C376   C383    1.396   .     A
C376   C242    1.370   1_655 S
C377   C383    1.396   .     A
C377   H381    1.084   .     S
C377   C239    1.370   1_655 S
C378   C384    1.396   .     A
C378   H382    1.084   .     S
C385   H389    1.082   .     S
C385   N394    1.366   .     A
C386   H390    1.082   .     S
C386   N393    1.366   .     A
C386   C591    1.416   .     S
C387   N394    1.366   .     A
C387   H391    1.082   .     S
C388   H392    1.082   .     S
C388   N393    1.367   .     A
C388   C589    1.417   .     S
C395   H396    1.108   .     S
C395   H397    1.110   .     S
C395   H398    1.111   .     S
C399   H400    1.106   .     S
C399   H401    1.110   .     S
C399   H402    1.108   .     S
N403   O405    1.301   .     A
N403   O404    1.302   .     A
N406   O408    1.302   .     A
N406   O407    1.302   .     A
O409   C413    1.281   .     A
O409   Zn421   1.994   .     S
O410   C414    1.282   .     A
O410   Zn422   1.994   .     S
O411   Zn421   1.995   .     S
O411   C414    1.282   .     A
O412   Zn422   1.995   .     S
O412   C413    1.282   .     A
C413   C452    1.415   .     S
C414   C451    1.415   .     S
O415   Zn421   2.004   .     S
O415   C419    1.284   .     A
O416   C420    1.281   .     A
O416   Zn422   2.004   .     S
O417   C420    1.283   .     A
O417   Zn421   2.003   .     S
O418   C419    1.283   .     A
O418   Zn422   2.003   .     S
C419   C426    1.427   .     S
C420   C425    1.421   .     S
Zn421  N461    2.010   .     S
Zn422  N462    2.010   .     S
C423   C433    1.413   .     A
C423   C425    1.405   .     A
C423   C463    1.520   .     S
C424   C434    1.414   .     A
C424   C426    1.408   .     A
C424   C467    1.520   .     S
C425   C427    1.384   .     A
C426   C428    1.386   .     A
C427   H439    1.086   .     S
C427   C429    1.377   .     A
C428   C430    1.377   .     A
C428   H440    1.086   .     S
C429   C435    1.394   .     A
C429   C431    1.408   .     A
C430   C436    1.394   .     A
C430   C432    1.407   .     A
C431   C433    1.426   .     A
C431   C1044   1.398   .     S
C432   C434    1.425   .     A
C432   C1043   1.398   1_554 S
C433   C438    1.421   .     A
C434   C437    1.421   .     A
C435   H441    1.085   .     S
C435   C1049   1.392   .     S
C436   H442    1.085   .     S
C436   C1050   1.392   1_554 S
C437   N471    1.438   .     S
C437   C1047   1.392   1_554 S
C438   N474    1.436   .     S
C438   C1048   1.392   .     S
C443   H447    1.084   .     S
C443   C452    1.396   .     A
C443   C581    1.370   1_455 S
C444   H448    1.084   .     S
C444   C451    1.396   .     A
C444   C514    1.370   .     S
C445   C451    1.396   .     A
C445   H449    1.084   .     S
C445   C511    1.370   .     S
C446   C452    1.396   .     A
C446   H450    1.084   .     S
C446   C580    1.370   1_455 S
C453   H457    1.082   .     S
C453   N462    1.366   .     A
C454   H458    1.082   .     S
C454   N461    1.366   .     A
C454   C47     1.416   1_565 S
C455   N462    1.366   .     A
C455   H459    1.082   .     S
C456   H460    1.082   .     S
C456   N461    1.367   .     A
C456   C45     1.417   1_565 S
C463   H464    1.108   .     S
C463   H465    1.110   .     S
C463   H466    1.111   .     S
C467   H468    1.106   .     S
C467   H469    1.110   .     S
C467   H470    1.108   .     S
N471   O473    1.301   .     A
N471   O472    1.302   .     A
N474   O476    1.302   .     A
N474   O475    1.302   .     A
O477   C481    1.281   .     A
O477   Zn489   1.994   .     S
O478   C482    1.282   .     A
O478   Zn490   1.994   .     S
O479   Zn489   1.995   .     S
O479   C482    1.282   .     A
O480   Zn490   1.995   .     S
O480   C481    1.282   .     A
C481   C520    1.415   .     S
C482   C519    1.415   .     S
O483   Zn489   2.004   .     S
O483   C487    1.284   .     A
O484   C488    1.281   .     A
O484   Zn490   2.004   .     S
O485   C488    1.283   .     A
O485   Zn489   2.003   .     S
O486   C487    1.283   .     A
O486   Zn490   2.003   .     S
C487   C494    1.427   .     S
C488   C493    1.421   .     S
Zn489  N529    2.010   .     S
Zn490  N530    2.010   .     S
C491   C501    1.413   .     A
C491   C493    1.405   .     A
C491   C531    1.520   .     S
C492   C502    1.414   .     A
C492   C494    1.408   .     A
C492   C535    1.520   .     S
C493   C495    1.384   .     A
C494   C496    1.386   .     A
C495   H507    1.086   .     S
C495   C497    1.377   .     A
C496   C498    1.377   .     A
C496   H508    1.086   .     S
C497   C503    1.394   .     A
C497   C499    1.408   .     A
C498   C504    1.394   .     A
C498   C500    1.407   .     A
C499   C501    1.426   .     A
C499   C1112   1.398   .     S
C500   C502    1.425   .     A
C500   C1111   1.398   1_554 S
C501   C506    1.421   .     A
C502   C505    1.421   .     A
C503   H509    1.085   .     S
C503   C1117   1.392   .     S
C504   H510    1.085   .     S
C504   C1118   1.392   1_554 S
C505   N539    1.438   .     S
C505   C1115   1.392   1_554 S
C506   N542    1.436   .     S
C506   C1116   1.392   .     S
C511   H515    1.084   .     S
C511   C520    1.396   .     A
C512   H516    1.084   .     S
C512   C519    1.396   .     A
C512   C582    1.370   .     S
C513   C519    1.396   .     A
C513   H517    1.084   .     S
C513   C579    1.370   .     S
C514   C520    1.396   .     A
C514   H518    1.084   .     S
C521   H525    1.082   .     S
C521   N530    1.366   .     A
C522   H526    1.082   .     S
C522   N529    1.366   .     A
C522   C115    1.416   1_565 S
C523   N530    1.366   .     A
C523   H527    1.082   .     S
C524   H528    1.082   .     S
C524   N529    1.367   .     A
C524   C113    1.417   1_565 S
C531   H532    1.108   .     S
C531   H533    1.110   .     S
C531   H534    1.111   .     S
C535   H536    1.106   .     S
C535   H537    1.110   .     S
C535   H538    1.108   .     S
N539   O541    1.301   .     A
N539   O540    1.302   .     A
N542   O544    1.302   .     A
N542   O543    1.302   .     A
O545   C549    1.281   .     A
O545   Zn557   1.994   .     S
O546   C550    1.282   .     A
O546   Zn558   1.994   .     S
O547   Zn557   1.995   .     S
O547   C550    1.282   .     A
O548   Zn558   1.995   .     S
O548   C549    1.282   .     A
C549   C588    1.415   .     S
C550   C587    1.415   .     S
O551   Zn557   2.004   .     S
O551   C555    1.284   .     A
O552   C556    1.281   .     A
O552   Zn558   2.004   .     S
O553   C556    1.283   .     A
O553   Zn557   2.003   .     S
O554   C555    1.283   .     A
O554   Zn558   2.003   .     S
C555   C562    1.427   .     S
C556   C561    1.421   .     S
Zn557  N597    2.010   .     S
Zn558  N598    2.010   .     S
C559   C569    1.413   .     A
C559   C561    1.405   .     A
C559   C599    1.520   .     S
C560   C570    1.414   .     A
C560   C562    1.408   .     A
C560   C603    1.520   .     S
C561   C563    1.384   .     A
C562   C564    1.386   .     A
C563   H575    1.086   .     S
C563   C565    1.377   .     A
C564   C566    1.377   .     A
C564   H576    1.086   .     S
C565   C571    1.394   .     A
C565   C567    1.408   .     A
C566   C572    1.394   .     A
C566   C568    1.407   .     A
C567   C569    1.426   .     A
C567   C1180   1.398   .     S
C568   C570    1.425   .     A
C568   C1179   1.398   1_554 S
C569   C574    1.421   .     A
C570   C573    1.421   .     A
C571   H577    1.085   .     S
C571   C1185   1.392   .     S
C572   H578    1.085   .     S
C572   C1186   1.392   1_554 S
C573   N607    1.438   .     S
C573   C1183   1.392   1_554 S
C574   N610    1.436   .     S
C574   C1184   1.392   .     S
C579   H583    1.084   .     S
C579   C588    1.396   .     A
C580   H584    1.084   .     S
C580   C587    1.396   .     A
C580   C446    1.370   1_655 S
C581   C587    1.396   .     A
C581   H585    1.084   .     S
C581   C443    1.370   1_655 S
C582   C588    1.396   .     A
C582   H586    1.084   .     S
C589   H593    1.082   .     S
C589   N598    1.366   .     A
C590   H594    1.082   .     S
C590   N597    1.366   .     A
C590   C183    1.416   1_565 S
C591   N598    1.366   .     A
C591   H595    1.082   .     S
C592   H596    1.082   .     S
C592   N597    1.367   .     A
C592   C181    1.417   1_565 S
C599   H600    1.108   .     S
C599   H601    1.110   .     S
C599   H602    1.111   .     S
C603   H604    1.106   .     S
C603   H605    1.110   .     S
C603   H606    1.108   .     S
N607   O609    1.301   .     A
N607   O608    1.302   .     A
N610   O612    1.302   .     A
N610   O611    1.302   .     A
O613   C617    1.281   .     A
O613   Zn625   1.994   .     S
O614   C618    1.282   .     A
O614   Zn626   1.994   .     S
O615   Zn625   1.995   .     S
O615   C618    1.282   .     A
O616   Zn626   1.995   .     S
O616   C617    1.282   .     A
C617   C656    1.415   .     S
C618   C655    1.415   .     S
O619   Zn625   2.004   .     S
O619   C623    1.284   .     A
O620   C624    1.281   .     A
O620   Zn626   2.004   .     S
O621   C624    1.283   .     A
O621   Zn625   2.003   .     S
O622   C623    1.283   .     A
O622   Zn626   2.003   .     S
C623   C630    1.427   .     S
C624   C629    1.421   .     S
Zn625  N665    2.010   .     S
Zn626  N666    2.010   .     S
C627   C637    1.413   .     A
C627   C629    1.405   .     A
C627   C667    1.520   .     S
C628   C638    1.414   .     A
C628   C630    1.408   .     A
C628   C671    1.520   .     S
C629   C631    1.384   .     A
C630   C632    1.386   .     A
C631   H643    1.086   .     S
C631   C633    1.377   .     A
C632   C634    1.377   .     A
C632   H644    1.086   .     S
C633   C639    1.394   .     A
C633   C635    1.408   .     A
C634   C640    1.394   .     A
C634   C636    1.407   .     A
C635   C637    1.426   .     A
C635   C24     1.398   1_556 S
C636   C638    1.425   .     A
C637   C642    1.421   .     A
C638   C641    1.421   .     A
C639   H645    1.085   .     S
C639   C29     1.392   1_556 S
C640   H646    1.085   .     S
C641   N675    1.438   .     S
C642   N678    1.436   .     S
C642   C28     1.392   1_556 S
C647   H651    1.084   .     S
C647   C656    1.396   .     A
C647   C785    1.370   1_455 S
C648   H652    1.084   .     S
C648   C655    1.396   .     A
C648   C718    1.370   .     S
C649   C655    1.396   .     A
C649   H653    1.084   .     S
C649   C715    1.370   .     S
C650   C656    1.396   .     A
C650   H654    1.084   .     S
C650   C784    1.370   1_455 S
C657   H661    1.082   .     S
C657   N666    1.366   .     A
C657   C1068   1.417   1_545 S
C658   H662    1.082   .     S
C658   N665    1.366   .     A
C658   C863    1.416   .     S
C659   N666    1.366   .     A
C659   H663    1.082   .     S
C659   C1066   1.416   1_545 S
C660   H664    1.082   .     S
C660   N665    1.367   .     A
C660   C861    1.417   .     S
C667   H668    1.108   .     S
C667   H669    1.110   .     S
C667   H670    1.111   .     S
C671   H672    1.106   .     S
C671   H673    1.110   .     S
C671   H674    1.108   .     S
N675   O677    1.301   .     A
N675   O676    1.302   .     A
N678   O680    1.302   .     A
N678   O679    1.302   .     A
O681   C685    1.281   .     A
O681   Zn693   1.994   .     S
O682   C686    1.282   .     A
O682   Zn694   1.994   .     S
O683   Zn693   1.995   .     S
O683   C686    1.282   .     A
O684   Zn694   1.995   .     S
O684   C685    1.282   .     A
C685   C724    1.415   .     S
C686   C723    1.415   .     S
O687   Zn693   2.004   .     S
O687   C691    1.284   .     A
O688   C692    1.281   .     A
O688   Zn694   2.004   .     S
O689   C692    1.283   .     A
O689   Zn693   2.003   .     S
O690   C691    1.283   .     A
O690   Zn694   2.003   .     S
C691   C698    1.427   .     S
C692   C697    1.421   .     S
Zn693  N733    2.010   .     S
Zn694  N734    2.010   .     S
C695   C705    1.413   .     A
C695   C697    1.405   .     A
C695   C735    1.520   .     S
C696   C706    1.414   .     A
C696   C698    1.408   .     A
C696   C739    1.520   .     S
C697   C699    1.384   .     A
C698   C700    1.386   .     A
C699   H711    1.086   .     S
C699   C701    1.377   .     A
C700   C702    1.377   .     A
C700   H712    1.086   .     S
C701   C707    1.394   .     A
C701   C703    1.408   .     A
C702   C708    1.394   .     A
C702   C704    1.407   .     A
C703   C705    1.426   .     A
C703   C92     1.398   1_556 S
C704   C706    1.425   .     A
C705   C710    1.421   .     A
C706   C709    1.421   .     A
C707   H713    1.085   .     S
C707   C97     1.392   1_556 S
C708   H714    1.085   .     S
C709   N743    1.438   .     S
C710   N746    1.436   .     S
C710   C96     1.392   1_556 S
C715   H719    1.084   .     S
C715   C724    1.396   .     A
C716   H720    1.084   .     S
C716   C723    1.396   .     A
C716   C786    1.370   .     S
C717   C723    1.396   .     A
C717   H721    1.084   .     S
C717   C783    1.370   .     S
C718   C724    1.396   .     A
C718   H722    1.084   .     S
C725   H729    1.082   .     S
C725   N734    1.366   .     A
C725   C1136   1.417   1_545 S
C726   H730    1.082   .     S
C726   N733    1.366   .     A
C726   C931    1.416   .     S
C727   N734    1.366   .     A
C727   H731    1.082   .     S
C727   C1134   1.416   1_545 S
C728   H732    1.082   .     S
C728   N733    1.367   .     A
C728   C929    1.417   .     S
C735   H736    1.108   .     S
C735   H737    1.110   .     S
C735   H738    1.111   .     S
C739   H740    1.106   .     S
C739   H741    1.110   .     S
C739   H742    1.108   .     S
N743   O745    1.301   .     A
N743   O744    1.302   .     A
N746   O748    1.302   .     A
N746   O747    1.302   .     A
O749   C753    1.281   .     A
O749   Zn761   1.994   .     S
O750   C754    1.282   .     A
O750   Zn762   1.994   .     S
O751   Zn761   1.995   .     S
O751   C754    1.282   .     A
O752   Zn762   1.995   .     S
O752   C753    1.282   .     A
C753   C792    1.415   .     S
C754   C791    1.415   .     S
O755   Zn761   2.004   .     S
O755   C759    1.284   .     A
O756   C760    1.281   .     A
O756   Zn762   2.004   .     S
O757   C760    1.283   .     A
O757   Zn761   2.003   .     S
O758   C759    1.283   .     A
O758   Zn762   2.003   .     S
C759   C766    1.427   .     S
C760   C765    1.421   .     S
Zn761  N801    2.010   .     S
Zn762  N802    2.010   .     S
C763   C773    1.413   .     A
C763   C765    1.405   .     A
C763   C803    1.520   .     S
C764   C774    1.414   .     A
C764   C766    1.408   .     A
C764   C807    1.520   .     S
C765   C767    1.384   .     A
C766   C768    1.386   .     A
C767   H779    1.086   .     S
C767   C769    1.377   .     A
C768   C770    1.377   .     A
C768   H780    1.086   .     S
C769   C775    1.394   .     A
C769   C771    1.408   .     A
C770   C776    1.394   .     A
C770   C772    1.407   .     A
C771   C773    1.426   .     A
C771   C160    1.398   1_556 S
C772   C774    1.425   .     A
C773   C778    1.421   .     A
C774   C777    1.421   .     A
C775   H781    1.085   .     S
C775   C165    1.392   1_556 S
C776   H782    1.085   .     S
C777   N811    1.438   .     S
C778   N814    1.436   .     S
C778   C164    1.392   1_556 S
C783   H787    1.084   .     S
C783   C792    1.396   .     A
C784   H788    1.084   .     S
C784   C791    1.396   .     A
C784   C650    1.370   1_655 S
C785   C791    1.396   .     A
C785   H789    1.084   .     S
C785   C647    1.370   1_655 S
C786   C792    1.396   .     A
C786   H790    1.084   .     S
C793   H797    1.082   .     S
C793   N802    1.366   .     A
C793   C1204   1.417   1_545 S
C794   H798    1.082   .     S
C794   N801    1.366   .     A
C794   C999    1.416   .     S
C795   N802    1.366   .     A
C795   H799    1.082   .     S
C795   C1202   1.416   1_545 S
C796   H800    1.082   .     S
C796   N801    1.367   .     A
C796   C997    1.417   .     S
C803   H804    1.108   .     S
C803   H805    1.110   .     S
C803   H806    1.111   .     S
C807   H808    1.106   .     S
C807   H809    1.110   .     S
C807   H810    1.108   .     S
N811   O813    1.301   .     A
N811   O812    1.302   .     A
N814   O816    1.302   .     A
N814   O815    1.302   .     A
O817   C821    1.281   .     A
O817   Zn829   1.994   .     S
O818   C822    1.282   .     A
O818   Zn830   1.994   .     S
O819   Zn829   1.995   .     S
O819   C822    1.282   .     A
O820   Zn830   1.995   .     S
O820   C821    1.282   .     A
C821   C860    1.415   .     S
C822   C859    1.415   .     S
O823   Zn829   2.004   .     S
O823   C827    1.284   .     A
O824   C828    1.281   .     A
O824   Zn830   2.004   .     S
O825   C828    1.283   .     A
O825   Zn829   2.003   .     S
O826   C827    1.283   .     A
O826   Zn830   2.003   .     S
C827   C834    1.427   .     S
C828   C833    1.421   .     S
Zn829  N869    2.010   .     S
Zn830  N870    2.010   .     S
C831   C841    1.413   .     A
C831   C833    1.405   .     A
C831   C871    1.520   .     S
C832   C842    1.414   .     A
C832   C834    1.408   .     A
C832   C875    1.520   .     S
C833   C835    1.384   .     A
C834   C836    1.386   .     A
C835   H847    1.086   .     S
C835   C837    1.377   .     A
C836   C838    1.377   .     A
C836   H848    1.086   .     S
C837   C843    1.394   .     A
C837   C839    1.408   .     A
C838   C844    1.394   .     A
C838   C840    1.407   .     A
C839   C841    1.426   .     A
C839   C228    1.398   1_556 S
C840   C842    1.425   .     A
C841   C846    1.421   .     A
C842   C845    1.421   .     A
C843   H849    1.085   .     S
C843   C233    1.392   1_556 S
C844   H850    1.085   .     S
C845   N879    1.438   .     S
C846   N882    1.436   .     S
C846   C232    1.392   1_556 S
C851   H855    1.084   .     S
C851   C860    1.396   .     A
C851   C989    1.370   1_455 S
C852   H856    1.084   .     S
C852   C859    1.396   .     A
C852   C922    1.370   .     S
C853   C859    1.396   .     A
C853   H857    1.084   .     S
C853   C919    1.370   .     S
C854   C860    1.396   .     A
C854   H858    1.084   .     S
C854   C988    1.370   1_455 S
C861   H865    1.082   .     S
C861   N870    1.366   .     A
C862   H866    1.082   .     S
C862   N869    1.366   .     A
C862   C1067   1.416   .     S
C863   N870    1.366   .     A
C863   H867    1.082   .     S
C864   H868    1.082   .     S
C864   N869    1.367   .     A
C864   C1065   1.417   .     S
C871   H872    1.108   .     S
C871   H873    1.110   .     S
C871   H874    1.111   .     S
C875   H876    1.106   .     S
C875   H877    1.110   .     S
C875   H878    1.108   .     S
N879   O881    1.301   .     A
N879   O880    1.302   .     A
N882   O884    1.302   .     A
N882   O883    1.302   .     A
O885   C889    1.281   .     A
O885   Zn897   1.994   .     S
O886   C890    1.282   .     A
O886   Zn898   1.994   .     S
O887   Zn897   1.995   .     S
O887   C890    1.282   .     A
O888   Zn898   1.995   .     S
O888   C889    1.282   .     A
C889   C928    1.415   .     S
C890   C927    1.415   .     S
O891   Zn897   2.004   .     S
O891   C895    1.284   .     A
O892   C896    1.281   .     A
O892   Zn898   2.004   .     S
O893   C896    1.283   .     A
O893   Zn897   2.003   .     S
O894   C895    1.283   .     A
O894   Zn898   2.003   .     S
C895   C902    1.427   .     S
C896   C901    1.421   .     S
Zn897  N937    2.010   .     S
Zn898  N938    2.010   .     S
C899   C909    1.413   .     A
C899   C901    1.405   .     A
C899   C939    1.520   .     S
C900   C910    1.414   .     A
C900   C902    1.408   .     A
C900   C943    1.520   .     S
C901   C903    1.384   .     A
C902   C904    1.386   .     A
C903   H915    1.086   .     S
C903   C905    1.377   .     A
C904   C906    1.377   .     A
C904   H916    1.086   .     S
C905   C911    1.394   .     A
C905   C907    1.408   .     A
C906   C912    1.394   .     A
C906   C908    1.407   .     A
C907   C909    1.426   .     A
C907   C296    1.398   1_556 S
C908   C910    1.425   .     A
C909   C914    1.421   .     A
C910   C913    1.421   .     A
C911   H917    1.085   .     S
C911   C301    1.392   1_556 S
C912   H918    1.085   .     S
C913   N947    1.438   .     S
C914   N950    1.436   .     S
C914   C300    1.392   1_556 S
C919   H923    1.084   .     S
C919   C928    1.396   .     A
C920   H924    1.084   .     S
C920   C927    1.396   .     A
C920   C990    1.370   .     S
C921   C927    1.396   .     A
C921   H925    1.084   .     S
C921   C987    1.370   .     S
C922   C928    1.396   .     A
C922   H926    1.084   .     S
C929   H933    1.082   .     S
C929   N938    1.366   .     A
C930   H934    1.082   .     S
C930   N937    1.366   .     A
C930   C1135   1.416   .     S
C931   N938    1.366   .     A
C931   H935    1.082   .     S
C932   H936    1.082   .     S
C932   N937    1.367   .     A
C932   C1133   1.417   .     S
C939   H940    1.108   .     S
C939   H941    1.110   .     S
C939   H942    1.111   .     S
C943   H944    1.106   .     S
C943   H945    1.110   .     S
C943   H946    1.108   .     S
N947   O949    1.301   .     A
N947   O948    1.302   .     A
N950   O952    1.302   .     A
N950   O951    1.302   .     A
O953   C957    1.281   .     A
O953   Zn965   1.994   .     S
O954   C958    1.282   .     A
O954   Zn966   1.994   .     S
O955   Zn965   1.995   .     S
O955   C958    1.282   .     A
O956   Zn966   1.995   .     S
O956   C957    1.282   .     A
C957   C996    1.415   .     S
C958   C995    1.415   .     S
O959   Zn965   2.004   .     S
O959   C963    1.284   .     A
O960   C964    1.281   .     A
O960   Zn966   2.004   .     S
O961   C964    1.283   .     A
O961   Zn965   2.003   .     S
O962   C963    1.283   .     A
O962   Zn966   2.003   .     S
C963   C970    1.427   .     S
C964   C969    1.421   .     S
Zn965  N1005   2.010   .     S
Zn966  N1006   2.010   .     S
C967   C977    1.413   .     A
C967   C969    1.405   .     A
C967   C1007   1.520   .     S
C968   C978    1.414   .     A
C968   C970    1.408   .     A
C968   C1011   1.520   .     S
C969   C971    1.384   .     A
C970   C972    1.386   .     A
C971   H983    1.086   .     S
C971   C973    1.377   .     A
C972   C974    1.377   .     A
C972   H984    1.086   .     S
C973   C979    1.394   .     A
C973   C975    1.408   .     A
C974   C980    1.394   .     A
C974   C976    1.407   .     A
C975   C977    1.426   .     A
C975   C364    1.398   1_556 S
C976   C978    1.425   .     A
C977   C982    1.421   .     A
C978   C981    1.421   .     A
C979   H985    1.085   .     S
C979   C369    1.392   1_556 S
C980   H986    1.085   .     S
C981   N1015   1.438   .     S
C982   N1018   1.436   .     S
C982   C368    1.392   1_556 S
C987   H991    1.084   .     S
C987   C996    1.396   .     A
C988   H992    1.084   .     S
C988   C995    1.396   .     A
C988   C854    1.370   1_655 S
C989   C995    1.396   .     A
C989   H993    1.084   .     S
C989   C851    1.370   1_655 S
C990   C996    1.396   .     A
C990   H994    1.084   .     S
C997   H1001   1.082   .     S
C997   N1006   1.366   .     A
C998   H1002   1.082   .     S
C998   N1005   1.366   .     A
C998   C1203   1.416   .     S
C999   N1006   1.366   .     A
C999   H1003   1.082   .     S
C1000  H1004   1.082   .     S
C1000  N1005   1.367   .     A
C1000  C1201   1.417   .     S
C1007  H1008   1.108   .     S
C1007  H1009   1.110   .     S
C1007  H1010   1.111   .     S
C1011  H1012   1.106   .     S
C1011  H1013   1.110   .     S
C1011  H1014   1.108   .     S
N1015  O1017   1.301   .     A
N1015  O1016   1.302   .     A
N1018  O1020   1.302   .     A
N1018  O1019   1.302   .     A
O1021  C1025   1.281   .     A
O1021  Zn1033  1.994   .     S
O1022  C1026   1.282   .     A
O1022  Zn1034  1.994   .     S
O1023  Zn1033  1.995   .     S
O1023  C1026   1.282   .     A
O1024  Zn1034  1.995   .     S
O1024  C1025   1.282   .     A
C1025  C1064   1.415   .     S
C1026  C1063   1.415   .     S
O1027  Zn1033  2.004   .     S
O1027  C1031   1.284   .     A
O1028  C1032   1.281   .     A
O1028  Zn1034  2.004   .     S
O1029  C1032   1.283   .     A
O1029  Zn1033  2.003   .     S
O1030  C1031   1.283   .     A
O1030  Zn1034  2.003   .     S
C1031  C1038   1.427   .     S
C1032  C1037   1.421   .     S
Zn1033 N1073   2.010   .     S
Zn1034 N1074   2.010   .     S
C1035  C1045   1.413   .     A
C1035  C1037   1.405   .     A
C1035  C1075   1.520   .     S
C1036  C1046   1.414   .     A
C1036  C1038   1.408   .     A
C1036  C1079   1.520   .     S
C1037  C1039   1.384   .     A
C1038  C1040   1.386   .     A
C1039  H1051   1.086   .     S
C1039  C1041   1.377   .     A
C1040  C1042   1.377   .     A
C1040  H1052   1.086   .     S
C1041  C1047   1.394   .     A
C1041  C1043   1.408   .     A
C1042  C1048   1.394   .     A
C1042  C1044   1.407   .     A
C1043  C1045   1.426   .     A
C1043  C432    1.398   1_556 S
C1044  C1046   1.425   .     A
C1045  C1050   1.421   .     A
C1046  C1049   1.421   .     A
C1047  H1053   1.085   .     S
C1047  C437    1.392   1_556 S
C1048  H1054   1.085   .     S
C1049  N1083   1.438   .     S
C1050  N1086   1.436   .     S
C1050  C436    1.392   1_556 S
C1055  H1059   1.084   .     S
C1055  C1064   1.396   .     A
C1055  C1193   1.370   1_455 S
C1056  H1060   1.084   .     S
C1056  C1063   1.396   .     A
C1056  C1126   1.370   .     S
C1057  C1063   1.396   .     A
C1057  H1061   1.084   .     S
C1057  C1123   1.370   .     S
C1058  C1064   1.396   .     A
C1058  H1062   1.084   .     S
C1058  C1192   1.370   1_455 S
C1065  H1069   1.082   .     S
C1065  N1074   1.366   .     A
C1066  H1070   1.082   .     S
C1066  N1073   1.366   .     A
C1066  C659    1.416   1_565 S
C1067  N1074   1.366   .     A
C1067  H1071   1.082   .     S
C1068  H1072   1.082   .     S
C1068  N1073   1.367   .     A
C1068  C657    1.417   1_565 S
C1075  H1076   1.108   .     S
C1075  H1077   1.110   .     S
C1075  H1078   1.111   .     S
C1079  H1080   1.106   .     S
C1079  H1081   1.110   .     S
C1079  H1082   1.108   .     S
N1083  O1085   1.301   .     A
N1083  O1084   1.302   .     A
N1086  O1088   1.302   .     A
N1086  O1087   1.302   .     A
O1089  C1093   1.281   .     A
O1089  Zn1101  1.994   .     S
O1090  C1094   1.282   .     A
O1090  Zn1102  1.994   .     S
O1091  Zn1101  1.995   .     S
O1091  C1094   1.282   .     A
O1092  Zn1102  1.995   .     S
O1092  C1093   1.282   .     A
C1093  C1132   1.415   .     S
C1094  C1131   1.415   .     S
O1095  Zn1101  2.004   .     S
O1095  C1099   1.284   .     A
O1096  C1100   1.281   .     A
O1096  Zn1102  2.004   .     S
O1097  C1100   1.283   .     A
O1097  Zn1101  2.003   .     S
O1098  C1099   1.283   .     A
O1098  Zn1102  2.003   .     S
C1099  C1106   1.427   .     S
C1100  C1105   1.421   .     S
Zn1101 N1141   2.010   .     S
Zn1102 N1142   2.010   .     S
C1103  C1113   1.413   .     A
C1103  C1105   1.405   .     A
C1103  C1143   1.520   .     S
C1104  C1114   1.414   .     A
C1104  C1106   1.408   .     A
C1104  C1147   1.520   .     S
C1105  C1107   1.384   .     A
C1106  C1108   1.386   .     A
C1107  H1119   1.086   .     S
C1107  C1109   1.377   .     A
C1108  C1110   1.377   .     A
C1108  H1120   1.086   .     S
C1109  C1115   1.394   .     A
C1109  C1111   1.408   .     A
C1110  C1116   1.394   .     A
C1110  C1112   1.407   .     A
C1111  C1113   1.426   .     A
C1111  C500    1.398   1_556 S
C1112  C1114   1.425   .     A
C1113  C1118   1.421   .     A
C1114  C1117   1.421   .     A
C1115  H1121   1.085   .     S
C1115  C505    1.392   1_556 S
C1116  H1122   1.085   .     S
C1117  N1151   1.438   .     S
C1118  N1154   1.436   .     S
C1118  C504    1.392   1_556 S
C1123  H1127   1.084   .     S
C1123  C1132   1.396   .     A
C1124  H1128   1.084   .     S
C1124  C1131   1.396   .     A
C1124  C1194   1.370   .     S
C1125  C1131   1.396   .     A
C1125  H1129   1.084   .     S
C1125  C1191   1.370   .     S
C1126  C1132   1.396   .     A
C1126  H1130   1.084   .     S
C1133  H1137   1.082   .     S
C1133  N1142   1.366   .     A
C1134  H1138   1.082   .     S
C1134  N1141   1.366   .     A
C1134  C727    1.416   1_565 S
C1135  N1142   1.366   .     A
C1135  H1139   1.082   .     S
C1136  H1140   1.082   .     S
C1136  N1141   1.367   .     A
C1136  C725    1.417   1_565 S
C1143  H1144   1.108   .     S
C1143  H1145   1.110   .     S
C1143  H1146   1.111   .     S
C1147  H1148   1.106   .     S
C1147  H1149   1.110   .     S
C1147  H1150   1.108   .     S
N1151  O1153   1.301   .     A
N1151  O1152   1.302   .     A
N1154  O1156   1.302   .     A
N1154  O1155   1.302   .     A
O1157  C1161   1.281   .     A
O1157  Zn1169  1.994   .     S
O1158  C1162   1.282   .     A
O1158  Zn1170  1.994   .     S
O1159  Zn1169  1.995   .     S
O1159  C1162   1.282   .     A
O1160  Zn1170  1.995   .     S
O1160  C1161   1.282   .     A
C1161  C1200   1.415   .     S
C1162  C1199   1.415   .     S
O1163  Zn1169  2.004   .     S
O1163  C1167   1.284   .     A
O1164  C1168   1.281   .     A
O1164  Zn1170  2.004   .     S
O1165  C1168   1.283   .     A
O1165  Zn1169  2.003   .     S
O1166  C1167   1.283   .     A
O1166  Zn1170  2.003   .     S
C1167  C1174   1.427   .     S
C1168  C1173   1.421   .     S
Zn1169 N1209   2.010   .     S
Zn1170 N1210   2.010   .     S
C1171  C1181   1.413   .     A
C1171  C1173   1.405   .     A
C1171  C1211   1.520   .     S
C1172  C1182   1.414   .     A
C1172  C1174   1.408   .     A
C1172  C1215   1.520   .     S
C1173  C1175   1.384   .     A
C1174  C1176   1.386   .     A
C1175  H1187   1.086   .     S
C1175  C1177   1.377   .     A
C1176  C1178   1.377   .     A
C1176  H1188   1.086   .     S
C1177  C1183   1.394   .     A
C1177  C1179   1.408   .     A
C1178  C1184   1.394   .     A
C1178  C1180   1.407   .     A
C1179  C1181   1.426   .     A
C1179  C568    1.398   1_556 S
C1180  C1182   1.425   .     A
C1181  C1186   1.421   .     A
C1182  C1185   1.421   .     A
C1183  H1189   1.085   .     S
C1183  C573    1.392   1_556 S
C1184  H1190   1.085   .     S
C1185  N1219   1.438   .     S
C1186  N1222   1.436   .     S
C1186  C572    1.392   1_556 S
C1191  H1195   1.084   .     S
C1191  C1200   1.396   .     A
C1192  H1196   1.084   .     S
C1192  C1199   1.396   .     A
C1192  C1058   1.370   1_655 S
C1193  C1199   1.396   .     A
C1193  H1197   1.084   .     S
C1193  C1055   1.370   1_655 S
C1194  C1200   1.396   .     A
C1194  H1198   1.084   .     S
C1201  H1205   1.082   .     S
C1201  N1210   1.366   .     A
C1202  H1206   1.082   .     S
C1202  N1209   1.366   .     A
C1202  C795    1.416   1_565 S
C1203  N1210   1.366   .     A
C1203  H1207   1.082   .     S
C1204  H1208   1.082   .     S
C1204  N1209   1.367   .     A
C1204  C793    1.417   1_565 S
C1211  H1212   1.108   .     S
C1211  H1213   1.110   .     S
C1211  H1214   1.111   .     S
C1215  H1216   1.106   .     S
C1215  H1217   1.110   .     S
C1215  H1218   1.108   .     S
N1219  O1221   1.301   .     A
N1219  O1220   1.302   .     A
N1222  O1224   1.302   .     A
N1222  O1223   1.302   .     A
