data_str_m3_o1_o17_pcu_sym.69
_audit_creation_date              2020-01-03
_audit_creation_method            'Materials Studio'
_symmetry_space_group_name_H-M    'P1'
_symmetry_Int_Tables_number       1
_symmetry_cell_setting            triclinic
loop_
_symmetry_equiv_pos_as_xyz
  x,y,z
_cell_length_a                    32.0783
_cell_length_b                    29.5353
_cell_length_c                    29.8485
_cell_angle_alpha                 90.3246
_cell_angle_beta                  90.0442
_cell_angle_gamma                 89.8212
loop_
_atom_site_label
_atom_site_type_symbol
_atom_site_fract_x
_atom_site_fract_y
_atom_site_fract_z
_atom_site_U_iso_or_equiv
_atom_site_adp_type
_atom_site_occupancy
C1     C     0.08664   0.16671   0.24996   0.00000  Uiso   1.00
C2     C     0.04250   0.16676   0.24985   0.00000  Uiso   1.00
C3     C     0.19713   0.02399   0.27186   0.00000  Uiso   1.00
C4     C     0.13625   0.30933   0.22806   0.00000  Uiso   1.00
C5     C     0.13627   0.02395   0.22802   0.00000  Uiso   1.00
C6     C     0.19720   0.30939   0.27173   0.00000  Uiso   1.00
C7     C     0.16629   0.16654   0.16358   0.00000  Uiso   1.00
C8     C     0.16742   0.16684   0.33653   0.00000  Uiso   1.00
C9     C     0.20091   0.18825   0.40732   0.00000  Uiso   1.00
C10    C     0.13002   0.15069   0.09328   0.00000  Uiso   1.00
C11    C     0.16814   0.16721   0.38428   0.00000  Uiso   1.00
C12    C     0.24669   0.16662   0.25007   0.00000  Uiso   1.00
C13    C     0.16539   0.16633   0.11602   0.00000  Uiso   1.00
C14    C     0.13548   0.14640   0.40641   0.00000  Uiso   1.00
C15    C     0.20043   0.18175   0.09388   0.00000  Uiso   1.00
C16    C     0.13423   0.14707   0.45263   0.00000  Uiso   1.00
C17    C     0.20129   0.18155   0.04769   0.00000  Uiso   1.00
C18    C     0.16785   0.16571   0.47685   0.00000  Uiso   1.00
C19    C     0.16657   0.16530   0.02356   0.00000  Uiso   1.00
C20    C     0.20278   0.18440   0.45424   0.00000  Uiso   1.00
C21    C     0.13077   0.14853   0.04622   0.00000  Uiso   1.00
C22    C     0.09984   0.12891   0.47460   0.00000  Uiso   1.00
C23    C     0.09692   0.13069   0.02133   0.00000  Uiso   1.00
C24    C     0.23700   0.19644   0.02569   0.00000  Uiso   1.00
C25    C     0.22350   0.25725   0.38455   0.00000  Uiso   1.00
C26    C     0.07012   0.17397   0.12702   0.00000  Uiso   1.00
C27    C     0.02528   0.13026   0.02785   0.00000  Uiso   1.00
C28    C     0.29484   0.24761   0.47502   0.00000  Uiso   1.00
C29    C     0.23820   0.19873   0.47883   0.00000  Uiso   1.00
C30    C     0.02146   0.12726   0.23756   0.00000  Uiso   1.00
C31    C     0.31188   0.20612   0.26233   0.00000  Uiso   1.00
C32    C     0.31210   0.12719   0.23767   0.00000  Uiso   1.00
C33    C     0.02124   0.20621   0.26215   0.00000  Uiso   1.00
C34    C     0.29083   0.16661   0.25008   0.00000  Uiso   1.00
H35    H     0.07511   0.11331   0.45526   0.00000  Uiso   1.00
H36    H     0.22715   0.19365   0.11292   0.00000  Uiso   1.00
H37    H     0.01465   0.11310   0.49670   0.00000  Uiso   1.00
H38    H     0.02737   0.16753   0.02265   0.00000  Uiso   1.00
H39    H     0.00108   0.12459   0.05373   0.00000  Uiso   1.00
H40    H     0.31554   0.23734   0.00302   0.00000  Uiso   1.00
H41    H     0.27237   0.27420   0.48623   0.00000  Uiso   1.00
H42    H     0.31486   0.26294   0.44893   0.00000  Uiso   1.00
H43    H     0.03788   0.09673   0.22752   0.00000  Uiso   1.00
H44    H     0.29546   0.23666   0.27235   0.00000  Uiso   1.00
H45    H     0.29586   0.09661   0.22775   0.00000  Uiso   1.00
H46    H     0.26411   0.20576   0.04526   0.00000  Uiso   1.00
H47    H     0.03748   0.23681   0.27202   0.00000  Uiso   1.00
H48    H     0.22148   0.04214   0.28937   0.00000  Uiso   1.00
H49    H     0.11194   0.29117   0.21048   0.00000  Uiso   1.00
H50    H     0.11200   0.04207   0.21038   0.00000  Uiso   1.00
H51    H     0.22173   0.29128   0.28889   0.00000  Uiso   1.00
H52    H     0.22289   0.27085   0.41935   0.00000  Uiso   1.00
H53    H     0.19356   0.26561   0.36776   0.00000  Uiso   1.00
H54    H     0.24882   0.27492   0.36644   0.00000  Uiso   1.00
H55    H     0.06158   0.19294   0.09621   0.00000  Uiso   1.00
H56    H     0.08525   0.19716   0.15149   0.00000  Uiso   1.00
H57    H     0.04077   0.16177   0.14236   0.00000  Uiso   1.00
H58    H     0.11028   0.13112   0.38736   0.00000  Uiso   1.00
N59    N     0.16667   0.28573   0.25000   0.00000  Uiso   1.00
N60    N     0.16667   0.04760   0.25000   0.00000  Uiso   1.00
O61    O     0.10559   0.20487   0.24999   0.00000  Uiso   1.00
O62    O     0.09572   0.13618   0.11740   0.00000  Uiso   1.00
O63    O     0.06319   0.11124   0.04306   0.00000  Uiso   1.00
O64    O     0.27485   0.20938   0.45625   0.00000  Uiso   1.00
O65    O     0.22774   0.12846   0.25000   0.00000  Uiso   1.00
O66    O     0.22774   0.20487   0.25000   0.00000  Uiso   1.00
O67    O     0.10559   0.12846   0.24999   0.00000  Uiso   1.00
O68    O     0.16666   0.20489   0.18392   0.00000  Uiso   1.00
O69    O     0.16667   0.12844   0.31607   0.00000  Uiso   1.00
O70    O     0.16667   0.20489   0.31607   0.00000  Uiso   1.00
O71    O     0.16666   0.12844   0.18392   0.00000  Uiso   1.00
O72    O     0.23171   0.21022   0.38335   0.00000  Uiso   1.00
Zn73   Zn    0.16667   0.21771   0.25000   0.00000  Uiso   1.00
Zn74   Zn    0.16667   0.11563   0.25000   0.00000  Uiso   1.00
C75    C     0.41998   0.16671   0.24996   0.00000  Uiso   1.00
C76    C     0.37584   0.16676   0.24985   0.00000  Uiso   1.00
C77    C     0.53046   0.02399   0.27186   0.00000  Uiso   1.00
C78    C     0.46958   0.30933   0.22806   0.00000  Uiso   1.00
C79    C     0.46961   0.02395   0.22802   0.00000  Uiso   1.00
C80    C     0.53053   0.30939   0.27173   0.00000  Uiso   1.00
C81    C     0.49962   0.16654   0.16358   0.00000  Uiso   1.00
C82    C     0.50076   0.16684   0.33653   0.00000  Uiso   1.00
C83    C     0.53424   0.18825   0.40732   0.00000  Uiso   1.00
C84    C     0.46335   0.15069   0.09328   0.00000  Uiso   1.00
C85    C     0.50147   0.16721   0.38428   0.00000  Uiso   1.00
C86    C     0.58002   0.16662   0.25007   0.00000  Uiso   1.00
C87    C     0.49872   0.16633   0.11602   0.00000  Uiso   1.00
C88    C     0.46882   0.14640   0.40641   0.00000  Uiso   1.00
C89    C     0.53376   0.18175   0.09388   0.00000  Uiso   1.00
C90    C     0.46757   0.14707   0.45263   0.00000  Uiso   1.00
C91    C     0.53462   0.18155   0.04769   0.00000  Uiso   1.00
C92    C     0.50118   0.16571   0.47685   0.00000  Uiso   1.00
C93    C     0.49990   0.16530   0.02356   0.00000  Uiso   1.00
C94    C     0.53611   0.18440   0.45424   0.00000  Uiso   1.00
C95    C     0.46410   0.14853   0.04622   0.00000  Uiso   1.00
C96    C     0.43317   0.12891   0.47460   0.00000  Uiso   1.00
C97    C     0.43025   0.13069   0.02133   0.00000  Uiso   1.00
C98    C     0.57033   0.19644   0.02569   0.00000  Uiso   1.00
C99    C     0.55684   0.25725   0.38455   0.00000  Uiso   1.00
C100   C     0.40345   0.17397   0.12702   0.00000  Uiso   1.00
C101   C     0.35861   0.13026   0.02785   0.00000  Uiso   1.00
C102   C     0.62817   0.24761   0.47502   0.00000  Uiso   1.00
C103   C     0.57154   0.19873   0.47883   0.00000  Uiso   1.00
C104   C     0.35479   0.12726   0.23756   0.00000  Uiso   1.00
C105   C     0.64521   0.20612   0.26233   0.00000  Uiso   1.00
C106   C     0.64544   0.12719   0.23767   0.00000  Uiso   1.00
C107   C     0.35457   0.20621   0.26215   0.00000  Uiso   1.00
C108   C     0.62417   0.16661   0.25008   0.00000  Uiso   1.00
H109   H     0.40844   0.11331   0.45526   0.00000  Uiso   1.00
H110   H     0.56048   0.19365   0.11292   0.00000  Uiso   1.00
H111   H     0.34799   0.11310   0.49670   0.00000  Uiso   1.00
H112   H     0.36071   0.16753   0.02265   0.00000  Uiso   1.00
H113   H     0.33441   0.12459   0.05373   0.00000  Uiso   1.00
H114   H     0.64887   0.23734   0.00302   0.00000  Uiso   1.00
H115   H     0.60571   0.27420   0.48623   0.00000  Uiso   1.00
H116   H     0.64819   0.26294   0.44893   0.00000  Uiso   1.00
H117   H     0.37121   0.09673   0.22752   0.00000  Uiso   1.00
H118   H     0.62880   0.23666   0.27235   0.00000  Uiso   1.00
H119   H     0.62919   0.09661   0.22775   0.00000  Uiso   1.00
H120   H     0.59745   0.20576   0.04526   0.00000  Uiso   1.00
H121   H     0.37082   0.23681   0.27202   0.00000  Uiso   1.00
H122   H     0.55482   0.04214   0.28937   0.00000  Uiso   1.00
H123   H     0.44527   0.29117   0.21048   0.00000  Uiso   1.00
H124   H     0.44533   0.04207   0.21038   0.00000  Uiso   1.00
H125   H     0.55506   0.29128   0.28889   0.00000  Uiso   1.00
H126   H     0.55622   0.27085   0.41935   0.00000  Uiso   1.00
H127   H     0.52689   0.26561   0.36776   0.00000  Uiso   1.00
H128   H     0.58215   0.27492   0.36644   0.00000  Uiso   1.00
H129   H     0.39492   0.19294   0.09621   0.00000  Uiso   1.00
H130   H     0.41859   0.19716   0.15149   0.00000  Uiso   1.00
H131   H     0.37411   0.16177   0.14236   0.00000  Uiso   1.00
H132   H     0.44361   0.13112   0.38736   0.00000  Uiso   1.00
N133   N     0.50000   0.28573   0.25000   0.00000  Uiso   1.00
N134   N     0.50000   0.04760   0.25000   0.00000  Uiso   1.00
O135   O     0.43892   0.20487   0.24999   0.00000  Uiso   1.00
O136   O     0.42906   0.13618   0.11740   0.00000  Uiso   1.00
O137   O     0.39652   0.11124   0.04306   0.00000  Uiso   1.00
O138   O     0.60819   0.20938   0.45625   0.00000  Uiso   1.00
O139   O     0.56108   0.12846   0.25000   0.00000  Uiso   1.00
O140   O     0.56108   0.20487   0.25000   0.00000  Uiso   1.00
O141   O     0.43892   0.12846   0.24999   0.00000  Uiso   1.00
O142   O     0.49999   0.20489   0.18392   0.00000  Uiso   1.00
O143   O     0.50001   0.12844   0.31607   0.00000  Uiso   1.00
O144   O     0.50001   0.20489   0.31607   0.00000  Uiso   1.00
O145   O     0.49999   0.12844   0.18392   0.00000  Uiso   1.00
O146   O     0.56505   0.21022   0.38335   0.00000  Uiso   1.00
Zn147  Zn    0.50000   0.21771   0.25000   0.00000  Uiso   1.00
Zn148  Zn    0.50000   0.11563   0.25000   0.00000  Uiso   1.00
C149   C     0.75331   0.16671   0.24996   0.00000  Uiso   1.00
C150   C     0.70917   0.16676   0.24985   0.00000  Uiso   1.00
C151   C     0.86379   0.02399   0.27186   0.00000  Uiso   1.00
C152   C     0.80291   0.30933   0.22806   0.00000  Uiso   1.00
C153   C     0.80294   0.02395   0.22802   0.00000  Uiso   1.00
C154   C     0.86386   0.30939   0.27173   0.00000  Uiso   1.00
C155   C     0.83295   0.16654   0.16358   0.00000  Uiso   1.00
C156   C     0.83409   0.16684   0.33653   0.00000  Uiso   1.00
C157   C     0.86757   0.18825   0.40732   0.00000  Uiso   1.00
C158   C     0.79668   0.15069   0.09328   0.00000  Uiso   1.00
C159   C     0.83481   0.16721   0.38428   0.00000  Uiso   1.00
C160   C     0.91336   0.16662   0.25007   0.00000  Uiso   1.00
C161   C     0.83206   0.16633   0.11602   0.00000  Uiso   1.00
C162   C     0.80215   0.14640   0.40641   0.00000  Uiso   1.00
C163   C     0.86709   0.18175   0.09388   0.00000  Uiso   1.00
C164   C     0.80090   0.14707   0.45263   0.00000  Uiso   1.00
C165   C     0.86796   0.18155   0.04769   0.00000  Uiso   1.00
C166   C     0.83452   0.16571   0.47685   0.00000  Uiso   1.00
C167   C     0.83323   0.16530   0.02356   0.00000  Uiso   1.00
C168   C     0.86945   0.18440   0.45424   0.00000  Uiso   1.00
C169   C     0.79744   0.14853   0.04622   0.00000  Uiso   1.00
C170   C     0.76651   0.12891   0.47460   0.00000  Uiso   1.00
C171   C     0.76358   0.13069   0.02133   0.00000  Uiso   1.00
C172   C     0.90366   0.19644   0.02569   0.00000  Uiso   1.00
C173   C     0.89017   0.25725   0.38455   0.00000  Uiso   1.00
C174   C     0.73678   0.17397   0.12702   0.00000  Uiso   1.00
C175   C     0.69194   0.13026   0.02785   0.00000  Uiso   1.00
C176   C     0.96150   0.24761   0.47502   0.00000  Uiso   1.00
C177   C     0.90487   0.19873   0.47883   0.00000  Uiso   1.00
C178   C     0.68813   0.12726   0.23756   0.00000  Uiso   1.00
C179   C     0.97855   0.20612   0.26233   0.00000  Uiso   1.00
C180   C     0.97877   0.12719   0.23767   0.00000  Uiso   1.00
C181   C     0.68790   0.20621   0.26215   0.00000  Uiso   1.00
C182   C     0.95750   0.16661   0.25008   0.00000  Uiso   1.00
H183   H     0.74178   0.11331   0.45526   0.00000  Uiso   1.00
H184   H     0.89382   0.19365   0.11292   0.00000  Uiso   1.00
H185   H     0.68132   0.11310   0.49670   0.00000  Uiso   1.00
H186   H     0.69404   0.16753   0.02265   0.00000  Uiso   1.00
H187   H     0.66774   0.12459   0.05373   0.00000  Uiso   1.00
H188   H     0.98221   0.23734   0.00302   0.00000  Uiso   1.00
H189   H     0.93904   0.27420   0.48623   0.00000  Uiso   1.00
H190   H     0.98153   0.26294   0.44893   0.00000  Uiso   1.00
H191   H     0.70455   0.09673   0.22752   0.00000  Uiso   1.00
H192   H     0.96213   0.23666   0.27235   0.00000  Uiso   1.00
H193   H     0.96252   0.09661   0.22775   0.00000  Uiso   1.00
H194   H     0.93078   0.20576   0.04526   0.00000  Uiso   1.00
H195   H     0.70415   0.23681   0.27202   0.00000  Uiso   1.00
H196   H     0.88815   0.04214   0.28937   0.00000  Uiso   1.00
H197   H     0.77861   0.29117   0.21048   0.00000  Uiso   1.00
H198   H     0.77867   0.04207   0.21038   0.00000  Uiso   1.00
H199   H     0.88839   0.29128   0.28889   0.00000  Uiso   1.00
H200   H     0.88956   0.27085   0.41935   0.00000  Uiso   1.00
H201   H     0.86022   0.26561   0.36776   0.00000  Uiso   1.00
H202   H     0.91548   0.27492   0.36644   0.00000  Uiso   1.00
H203   H     0.72825   0.19294   0.09621   0.00000  Uiso   1.00
H204   H     0.75192   0.19716   0.15149   0.00000  Uiso   1.00
H205   H     0.70744   0.16177   0.14236   0.00000  Uiso   1.00
H206   H     0.77695   0.13112   0.38736   0.00000  Uiso   1.00
N207   N     0.83333   0.28573   0.25000   0.00000  Uiso   1.00
N208   N     0.83333   0.04760   0.25000   0.00000  Uiso   1.00
O209   O     0.77226   0.20487   0.24999   0.00000  Uiso   1.00
O210   O     0.76239   0.13618   0.11740   0.00000  Uiso   1.00
O211   O     0.72985   0.11124   0.04306   0.00000  Uiso   1.00
O212   O     0.94152   0.20938   0.45625   0.00000  Uiso   1.00
O213   O     0.89441   0.12846   0.25000   0.00000  Uiso   1.00
O214   O     0.89441   0.20487   0.25000   0.00000  Uiso   1.00
O215   O     0.77226   0.12846   0.24999   0.00000  Uiso   1.00
O216   O     0.83333   0.20489   0.18392   0.00000  Uiso   1.00
O217   O     0.83334   0.12844   0.31607   0.00000  Uiso   1.00
O218   O     0.83334   0.20489   0.31607   0.00000  Uiso   1.00
O219   O     0.83333   0.12844   0.18392   0.00000  Uiso   1.00
O220   O     0.89838   0.21022   0.38335   0.00000  Uiso   1.00
Zn221  Zn    0.83333   0.21771   0.25000   0.00000  Uiso   1.00
Zn222  Zn    0.83333   0.11563   0.25000   0.00000  Uiso   1.00
C223   C     0.08664   0.50005   0.24996   0.00000  Uiso   1.00
C224   C     0.04250   0.50009   0.24985   0.00000  Uiso   1.00
C225   C     0.19713   0.35733   0.27186   0.00000  Uiso   1.00
C226   C     0.13625   0.64267   0.22806   0.00000  Uiso   1.00
C227   C     0.13627   0.35728   0.22802   0.00000  Uiso   1.00
C228   C     0.19720   0.64272   0.27173   0.00000  Uiso   1.00
C229   C     0.16629   0.49988   0.16358   0.00000  Uiso   1.00
C230   C     0.16742   0.50017   0.33653   0.00000  Uiso   1.00
C231   C     0.20091   0.52159   0.40732   0.00000  Uiso   1.00
C232   C     0.13002   0.48403   0.09328   0.00000  Uiso   1.00
C233   C     0.16814   0.50054   0.38428   0.00000  Uiso   1.00
C234   C     0.24669   0.49996   0.25007   0.00000  Uiso   1.00
C235   C     0.16539   0.49966   0.11602   0.00000  Uiso   1.00
C236   C     0.13548   0.47974   0.40641   0.00000  Uiso   1.00
C237   C     0.20043   0.51508   0.09388   0.00000  Uiso   1.00
C238   C     0.13423   0.48040   0.45263   0.00000  Uiso   1.00
C239   C     0.20129   0.51488   0.04769   0.00000  Uiso   1.00
C240   C     0.16785   0.49904   0.47685   0.00000  Uiso   1.00
C241   C     0.16657   0.49864   0.02356   0.00000  Uiso   1.00
C242   C     0.20278   0.51773   0.45424   0.00000  Uiso   1.00
C243   C     0.13077   0.48187   0.04622   0.00000  Uiso   1.00
C244   C     0.09984   0.46224   0.47460   0.00000  Uiso   1.00
C245   C     0.09692   0.46403   0.02133   0.00000  Uiso   1.00
C246   C     0.23700   0.52978   0.02569   0.00000  Uiso   1.00
C247   C     0.22350   0.59059   0.38455   0.00000  Uiso   1.00
C248   C     0.07012   0.50731   0.12702   0.00000  Uiso   1.00
C249   C     0.02528   0.46360   0.02785   0.00000  Uiso   1.00
C250   C     0.29484   0.58094   0.47502   0.00000  Uiso   1.00
C251   C     0.23820   0.53206   0.47883   0.00000  Uiso   1.00
C252   C     0.02146   0.46059   0.23756   0.00000  Uiso   1.00
C253   C     0.31188   0.53946   0.26233   0.00000  Uiso   1.00
C254   C     0.31210   0.46052   0.23767   0.00000  Uiso   1.00
C255   C     0.02124   0.53955   0.26215   0.00000  Uiso   1.00
C256   C     0.29083   0.49994   0.25008   0.00000  Uiso   1.00
H257   H     0.07511   0.44664   0.45526   0.00000  Uiso   1.00
H258   H     0.22715   0.52698   0.11292   0.00000  Uiso   1.00
H259   H     0.01465   0.44643   0.49670   0.00000  Uiso   1.00
H260   H     0.02737   0.50086   0.02265   0.00000  Uiso   1.00
H261   H     0.00108   0.45792   0.05373   0.00000  Uiso   1.00
H262   H     0.31554   0.57067   0.00302   0.00000  Uiso   1.00
H263   H     0.27237   0.60753   0.48623   0.00000  Uiso   1.00
H264   H     0.31486   0.59627   0.44893   0.00000  Uiso   1.00
H265   H     0.03788   0.43006   0.22752   0.00000  Uiso   1.00
H266   H     0.29546   0.57000   0.27235   0.00000  Uiso   1.00
H267   H     0.29586   0.42994   0.22775   0.00000  Uiso   1.00
H268   H     0.26411   0.53910   0.04526   0.00000  Uiso   1.00
H269   H     0.03748   0.57014   0.27202   0.00000  Uiso   1.00
H270   H     0.22148   0.37548   0.28937   0.00000  Uiso   1.00
H271   H     0.11194   0.62450   0.21048   0.00000  Uiso   1.00
H272   H     0.11200   0.37541   0.21038   0.00000  Uiso   1.00
H273   H     0.22173   0.62461   0.28889   0.00000  Uiso   1.00
H274   H     0.22289   0.60418   0.41935   0.00000  Uiso   1.00
H275   H     0.19356   0.59895   0.36776   0.00000  Uiso   1.00
H276   H     0.24882   0.60825   0.36644   0.00000  Uiso   1.00
H277   H     0.06158   0.52627   0.09621   0.00000  Uiso   1.00
H278   H     0.08525   0.53050   0.15149   0.00000  Uiso   1.00
H279   H     0.04077   0.49511   0.14236   0.00000  Uiso   1.00
H280   H     0.11028   0.46446   0.38736   0.00000  Uiso   1.00
N281   N     0.16667   0.61907   0.25000   0.00000  Uiso   1.00
N282   N     0.16667   0.38093   0.25000   0.00000  Uiso   1.00
O283   O     0.10559   0.53821   0.24999   0.00000  Uiso   1.00
O284   O     0.09572   0.46951   0.11740   0.00000  Uiso   1.00
O285   O     0.06319   0.44457   0.04306   0.00000  Uiso   1.00
O286   O     0.27485   0.54272   0.45625   0.00000  Uiso   1.00
O287   O     0.22774   0.46179   0.25000   0.00000  Uiso   1.00
O288   O     0.22774   0.53821   0.25000   0.00000  Uiso   1.00
O289   O     0.10559   0.46179   0.24999   0.00000  Uiso   1.00
O290   O     0.16666   0.53823   0.18392   0.00000  Uiso   1.00
O291   O     0.16667   0.46177   0.31607   0.00000  Uiso   1.00
O292   O     0.16667   0.53823   0.31607   0.00000  Uiso   1.00
O293   O     0.16666   0.46177   0.18392   0.00000  Uiso   1.00
O294   O     0.23171   0.54355   0.38335   0.00000  Uiso   1.00
Zn295  Zn    0.16667   0.55104   0.25000   0.00000  Uiso   1.00
Zn296  Zn    0.16667   0.44896   0.25000   0.00000  Uiso   1.00
C297   C     0.41998   0.50005   0.24996   0.00000  Uiso   1.00
C298   C     0.37584   0.50009   0.24985   0.00000  Uiso   1.00
C299   C     0.53046   0.35733   0.27186   0.00000  Uiso   1.00
C300   C     0.46958   0.64267   0.22806   0.00000  Uiso   1.00
C301   C     0.46961   0.35728   0.22802   0.00000  Uiso   1.00
C302   C     0.53053   0.64272   0.27173   0.00000  Uiso   1.00
C303   C     0.49962   0.49988   0.16358   0.00000  Uiso   1.00
C304   C     0.50076   0.50017   0.33653   0.00000  Uiso   1.00
C305   C     0.53424   0.52159   0.40732   0.00000  Uiso   1.00
C306   C     0.46335   0.48403   0.09328   0.00000  Uiso   1.00
C307   C     0.50147   0.50054   0.38428   0.00000  Uiso   1.00
C308   C     0.58002   0.49996   0.25007   0.00000  Uiso   1.00
C309   C     0.49872   0.49966   0.11602   0.00000  Uiso   1.00
C310   C     0.46882   0.47974   0.40641   0.00000  Uiso   1.00
C311   C     0.53376   0.51508   0.09388   0.00000  Uiso   1.00
C312   C     0.46757   0.48040   0.45263   0.00000  Uiso   1.00
C313   C     0.53462   0.51488   0.04769   0.00000  Uiso   1.00
C314   C     0.50118   0.49904   0.47685   0.00000  Uiso   1.00
C315   C     0.49990   0.49864   0.02356   0.00000  Uiso   1.00
C316   C     0.53611   0.51773   0.45424   0.00000  Uiso   1.00
C317   C     0.46410   0.48187   0.04622   0.00000  Uiso   1.00
C318   C     0.43317   0.46224   0.47460   0.00000  Uiso   1.00
C319   C     0.43025   0.46403   0.02133   0.00000  Uiso   1.00
C320   C     0.57033   0.52978   0.02569   0.00000  Uiso   1.00
C321   C     0.55684   0.59059   0.38455   0.00000  Uiso   1.00
C322   C     0.40345   0.50731   0.12702   0.00000  Uiso   1.00
C323   C     0.35861   0.46360   0.02785   0.00000  Uiso   1.00
C324   C     0.62817   0.58094   0.47502   0.00000  Uiso   1.00
C325   C     0.57154   0.53206   0.47883   0.00000  Uiso   1.00
C326   C     0.35479   0.46059   0.23756   0.00000  Uiso   1.00
C327   C     0.64521   0.53946   0.26233   0.00000  Uiso   1.00
C328   C     0.64544   0.46052   0.23767   0.00000  Uiso   1.00
C329   C     0.35457   0.53955   0.26215   0.00000  Uiso   1.00
C330   C     0.62417   0.49994   0.25008   0.00000  Uiso   1.00
H331   H     0.40844   0.44664   0.45526   0.00000  Uiso   1.00
H332   H     0.56048   0.52698   0.11292   0.00000  Uiso   1.00
H333   H     0.34799   0.44643   0.49670   0.00000  Uiso   1.00
H334   H     0.36071   0.50086   0.02265   0.00000  Uiso   1.00
H335   H     0.33441   0.45792   0.05373   0.00000  Uiso   1.00
H336   H     0.64887   0.57067   0.00302   0.00000  Uiso   1.00
H337   H     0.60571   0.60753   0.48623   0.00000  Uiso   1.00
H338   H     0.64819   0.59627   0.44893   0.00000  Uiso   1.00
H339   H     0.37121   0.43006   0.22752   0.00000  Uiso   1.00
H340   H     0.62880   0.57000   0.27235   0.00000  Uiso   1.00
H341   H     0.62919   0.42994   0.22775   0.00000  Uiso   1.00
H342   H     0.59745   0.53910   0.04526   0.00000  Uiso   1.00
H343   H     0.37082   0.57014   0.27202   0.00000  Uiso   1.00
H344   H     0.55482   0.37548   0.28937   0.00000  Uiso   1.00
H345   H     0.44527   0.62450   0.21048   0.00000  Uiso   1.00
H346   H     0.44533   0.37541   0.21038   0.00000  Uiso   1.00
H347   H     0.55506   0.62461   0.28889   0.00000  Uiso   1.00
H348   H     0.55622   0.60418   0.41935   0.00000  Uiso   1.00
H349   H     0.52689   0.59895   0.36776   0.00000  Uiso   1.00
H350   H     0.58215   0.60825   0.36644   0.00000  Uiso   1.00
H351   H     0.39492   0.52627   0.09621   0.00000  Uiso   1.00
H352   H     0.41859   0.53050   0.15149   0.00000  Uiso   1.00
H353   H     0.37411   0.49511   0.14236   0.00000  Uiso   1.00
H354   H     0.44361   0.46446   0.38736   0.00000  Uiso   1.00
N355   N     0.50000   0.61907   0.25000   0.00000  Uiso   1.00
N356   N     0.50000   0.38093   0.25000   0.00000  Uiso   1.00
O357   O     0.43892   0.53821   0.24999   0.00000  Uiso   1.00
O358   O     0.42906   0.46951   0.11740   0.00000  Uiso   1.00
O359   O     0.39652   0.44457   0.04306   0.00000  Uiso   1.00
O360   O     0.60819   0.54272   0.45625   0.00000  Uiso   1.00
O361   O     0.56108   0.46179   0.25000   0.00000  Uiso   1.00
O362   O     0.56108   0.53821   0.25000   0.00000  Uiso   1.00
O363   O     0.43892   0.46179   0.24999   0.00000  Uiso   1.00
O364   O     0.49999   0.53823   0.18392   0.00000  Uiso   1.00
O365   O     0.50001   0.46177   0.31607   0.00000  Uiso   1.00
O366   O     0.50001   0.53823   0.31607   0.00000  Uiso   1.00
O367   O     0.49999   0.46177   0.18392   0.00000  Uiso   1.00
O368   O     0.56505   0.54355   0.38335   0.00000  Uiso   1.00
Zn369  Zn    0.50000   0.55104   0.25000   0.00000  Uiso   1.00
Zn370  Zn    0.50000   0.44896   0.25000   0.00000  Uiso   1.00
C371   C     0.75331   0.50005   0.24996   0.00000  Uiso   1.00
C372   C     0.70917   0.50009   0.24985   0.00000  Uiso   1.00
C373   C     0.86379   0.35733   0.27186   0.00000  Uiso   1.00
C374   C     0.80291   0.64267   0.22806   0.00000  Uiso   1.00
C375   C     0.80294   0.35728   0.22802   0.00000  Uiso   1.00
C376   C     0.86386   0.64272   0.27173   0.00000  Uiso   1.00
C377   C     0.83295   0.49988   0.16358   0.00000  Uiso   1.00
C378   C     0.83409   0.50017   0.33653   0.00000  Uiso   1.00
C379   C     0.86757   0.52159   0.40732   0.00000  Uiso   1.00
C380   C     0.79668   0.48403   0.09328   0.00000  Uiso   1.00
C381   C     0.83481   0.50054   0.38428   0.00000  Uiso   1.00
C382   C     0.91336   0.49996   0.25007   0.00000  Uiso   1.00
C383   C     0.83206   0.49966   0.11602   0.00000  Uiso   1.00
C384   C     0.80215   0.47974   0.40641   0.00000  Uiso   1.00
C385   C     0.86709   0.51508   0.09388   0.00000  Uiso   1.00
C386   C     0.80090   0.48040   0.45263   0.00000  Uiso   1.00
C387   C     0.86796   0.51488   0.04769   0.00000  Uiso   1.00
C388   C     0.83452   0.49904   0.47685   0.00000  Uiso   1.00
C389   C     0.83323   0.49864   0.02356   0.00000  Uiso   1.00
C390   C     0.86945   0.51773   0.45424   0.00000  Uiso   1.00
C391   C     0.79744   0.48187   0.04622   0.00000  Uiso   1.00
C392   C     0.76651   0.46224   0.47460   0.00000  Uiso   1.00
C393   C     0.76358   0.46403   0.02133   0.00000  Uiso   1.00
C394   C     0.90366   0.52978   0.02569   0.00000  Uiso   1.00
C395   C     0.89017   0.59059   0.38455   0.00000  Uiso   1.00
C396   C     0.73678   0.50731   0.12702   0.00000  Uiso   1.00
C397   C     0.69194   0.46360   0.02785   0.00000  Uiso   1.00
C398   C     0.96150   0.58094   0.47502   0.00000  Uiso   1.00
C399   C     0.90487   0.53206   0.47883   0.00000  Uiso   1.00
C400   C     0.68813   0.46059   0.23756   0.00000  Uiso   1.00
C401   C     0.97855   0.53946   0.26233   0.00000  Uiso   1.00
C402   C     0.97877   0.46052   0.23767   0.00000  Uiso   1.00
C403   C     0.68790   0.53955   0.26215   0.00000  Uiso   1.00
C404   C     0.95750   0.49994   0.25008   0.00000  Uiso   1.00
H405   H     0.74178   0.44664   0.45526   0.00000  Uiso   1.00
H406   H     0.89382   0.52698   0.11292   0.00000  Uiso   1.00
H407   H     0.68132   0.44643   0.49670   0.00000  Uiso   1.00
H408   H     0.69404   0.50086   0.02265   0.00000  Uiso   1.00
H409   H     0.66774   0.45792   0.05373   0.00000  Uiso   1.00
H410   H     0.98221   0.57067   0.00302   0.00000  Uiso   1.00
H411   H     0.93904   0.60753   0.48623   0.00000  Uiso   1.00
H412   H     0.98153   0.59627   0.44893   0.00000  Uiso   1.00
H413   H     0.70455   0.43006   0.22752   0.00000  Uiso   1.00
H414   H     0.96213   0.57000   0.27235   0.00000  Uiso   1.00
H415   H     0.96252   0.42994   0.22775   0.00000  Uiso   1.00
H416   H     0.93078   0.53910   0.04526   0.00000  Uiso   1.00
H417   H     0.70415   0.57014   0.27202   0.00000  Uiso   1.00
H418   H     0.88815   0.37548   0.28937   0.00000  Uiso   1.00
H419   H     0.77861   0.62450   0.21048   0.00000  Uiso   1.00
H420   H     0.77867   0.37541   0.21038   0.00000  Uiso   1.00
H421   H     0.88839   0.62461   0.28889   0.00000  Uiso   1.00
H422   H     0.88956   0.60418   0.41935   0.00000  Uiso   1.00
H423   H     0.86022   0.59895   0.36776   0.00000  Uiso   1.00
H424   H     0.91548   0.60825   0.36644   0.00000  Uiso   1.00
H425   H     0.72825   0.52627   0.09621   0.00000  Uiso   1.00
H426   H     0.75192   0.53050   0.15149   0.00000  Uiso   1.00
H427   H     0.70744   0.49511   0.14236   0.00000  Uiso   1.00
H428   H     0.77695   0.46446   0.38736   0.00000  Uiso   1.00
N429   N     0.83333   0.61907   0.25000   0.00000  Uiso   1.00
N430   N     0.83333   0.38093   0.25000   0.00000  Uiso   1.00
O431   O     0.77226   0.53821   0.24999   0.00000  Uiso   1.00
O432   O     0.76239   0.46951   0.11740   0.00000  Uiso   1.00
O433   O     0.72985   0.44457   0.04306   0.00000  Uiso   1.00
O434   O     0.94152   0.54272   0.45625   0.00000  Uiso   1.00
O435   O     0.89441   0.46179   0.25000   0.00000  Uiso   1.00
O436   O     0.89441   0.53821   0.25000   0.00000  Uiso   1.00
O437   O     0.77226   0.46179   0.24999   0.00000  Uiso   1.00
O438   O     0.83333   0.53823   0.18392   0.00000  Uiso   1.00
O439   O     0.83334   0.46177   0.31607   0.00000  Uiso   1.00
O440   O     0.83334   0.53823   0.31607   0.00000  Uiso   1.00
O441   O     0.83333   0.46177   0.18392   0.00000  Uiso   1.00
O442   O     0.89838   0.54355   0.38335   0.00000  Uiso   1.00
Zn443  Zn    0.83333   0.55104   0.25000   0.00000  Uiso   1.00
Zn444  Zn    0.83333   0.44896   0.25000   0.00000  Uiso   1.00
C445   C     0.08664   0.83338   0.24996   0.00000  Uiso   1.00
C446   C     0.04250   0.83342   0.24985   0.00000  Uiso   1.00
C447   C     0.19713   0.69066   0.27186   0.00000  Uiso   1.00
C448   C     0.13625   0.97600   0.22806   0.00000  Uiso   1.00
C449   C     0.13627   0.69062   0.22802   0.00000  Uiso   1.00
C450   C     0.19720   0.97606   0.27173   0.00000  Uiso   1.00
C451   C     0.16629   0.83321   0.16358   0.00000  Uiso   1.00
C452   C     0.16742   0.83350   0.33653   0.00000  Uiso   1.00
C453   C     0.20091   0.85492   0.40732   0.00000  Uiso   1.00
C454   C     0.13002   0.81736   0.09328   0.00000  Uiso   1.00
C455   C     0.16814   0.83387   0.38428   0.00000  Uiso   1.00
C456   C     0.24669   0.83329   0.25007   0.00000  Uiso   1.00
C457   C     0.16539   0.83300   0.11602   0.00000  Uiso   1.00
C458   C     0.13548   0.81307   0.40641   0.00000  Uiso   1.00
C459   C     0.20043   0.84841   0.09388   0.00000  Uiso   1.00
C460   C     0.13423   0.81374   0.45263   0.00000  Uiso   1.00
C461   C     0.20129   0.84822   0.04769   0.00000  Uiso   1.00
C462   C     0.16785   0.83238   0.47685   0.00000  Uiso   1.00
C463   C     0.16657   0.83197   0.02356   0.00000  Uiso   1.00
C464   C     0.20278   0.85107   0.45424   0.00000  Uiso   1.00
C465   C     0.13077   0.81520   0.04622   0.00000  Uiso   1.00
C466   C     0.09984   0.79557   0.47460   0.00000  Uiso   1.00
C467   C     0.09692   0.79736   0.02133   0.00000  Uiso   1.00
C468   C     0.23700   0.86311   0.02569   0.00000  Uiso   1.00
C469   C     0.22350   0.92392   0.38455   0.00000  Uiso   1.00
C470   C     0.07012   0.84064   0.12702   0.00000  Uiso   1.00
C471   C     0.02528   0.79693   0.02785   0.00000  Uiso   1.00
C472   C     0.29484   0.91428   0.47502   0.00000  Uiso   1.00
C473   C     0.23820   0.86539   0.47883   0.00000  Uiso   1.00
C474   C     0.02146   0.79392   0.23756   0.00000  Uiso   1.00
C475   C     0.31188   0.87279   0.26233   0.00000  Uiso   1.00
C476   C     0.31210   0.79385   0.23767   0.00000  Uiso   1.00
C477   C     0.02124   0.87288   0.26215   0.00000  Uiso   1.00
C478   C     0.29083   0.83328   0.25008   0.00000  Uiso   1.00
H479   H     0.07511   0.77997   0.45526   0.00000  Uiso   1.00
H480   H     0.22715   0.86031   0.11292   0.00000  Uiso   1.00
H481   H     0.01465   0.77977   0.49670   0.00000  Uiso   1.00
H482   H     0.02737   0.83419   0.02265   0.00000  Uiso   1.00
H483   H     0.00108   0.79126   0.05373   0.00000  Uiso   1.00
H484   H     0.31554   0.90401   0.00302   0.00000  Uiso   1.00
H485   H     0.27237   0.94087   0.48623   0.00000  Uiso   1.00
H486   H     0.31486   0.92961   0.44893   0.00000  Uiso   1.00
H487   H     0.03788   0.76339   0.22752   0.00000  Uiso   1.00
H488   H     0.29546   0.90333   0.27235   0.00000  Uiso   1.00
H489   H     0.29586   0.76328   0.22775   0.00000  Uiso   1.00
H490   H     0.26411   0.87243   0.04526   0.00000  Uiso   1.00
H491   H     0.03748   0.90347   0.27202   0.00000  Uiso   1.00
H492   H     0.22148   0.70881   0.28937   0.00000  Uiso   1.00
H493   H     0.11194   0.95783   0.21048   0.00000  Uiso   1.00
H494   H     0.11200   0.70874   0.21038   0.00000  Uiso   1.00
H495   H     0.22173   0.95794   0.28889   0.00000  Uiso   1.00
H496   H     0.22289   0.93752   0.41935   0.00000  Uiso   1.00
H497   H     0.19356   0.93228   0.36776   0.00000  Uiso   1.00
H498   H     0.24882   0.94159   0.36644   0.00000  Uiso   1.00
H499   H     0.06158   0.85961   0.09621   0.00000  Uiso   1.00
H500   H     0.08525   0.86383   0.15149   0.00000  Uiso   1.00
H501   H     0.04077   0.82844   0.14236   0.00000  Uiso   1.00
H502   H     0.11028   0.79779   0.38736   0.00000  Uiso   1.00
N503   N     0.16667   0.95240   0.25000   0.00000  Uiso   1.00
N504   N     0.16667   0.71427   0.25000   0.00000  Uiso   1.00
O505   O     0.10559   0.87154   0.24999   0.00000  Uiso   1.00
O506   O     0.09572   0.80284   0.11740   0.00000  Uiso   1.00
O507   O     0.06319   0.77791   0.04306   0.00000  Uiso   1.00
O508   O     0.27485   0.87605   0.45625   0.00000  Uiso   1.00
O509   O     0.22774   0.79513   0.25000   0.00000  Uiso   1.00
O510   O     0.22774   0.87154   0.25000   0.00000  Uiso   1.00
O511   O     0.10559   0.79513   0.24999   0.00000  Uiso   1.00
O512   O     0.16666   0.87156   0.18392   0.00000  Uiso   1.00
O513   O     0.16667   0.79511   0.31607   0.00000  Uiso   1.00
O514   O     0.16667   0.87156   0.31607   0.00000  Uiso   1.00
O515   O     0.16666   0.79511   0.18392   0.00000  Uiso   1.00
O516   O     0.23171   0.87688   0.38335   0.00000  Uiso   1.00
Zn517  Zn    0.16667   0.88437   0.25000   0.00000  Uiso   1.00
Zn518  Zn    0.16667   0.78229   0.25000   0.00000  Uiso   1.00
C519   C     0.41998   0.83338   0.24996   0.00000  Uiso   1.00
C520   C     0.37584   0.83342   0.24985   0.00000  Uiso   1.00
C521   C     0.53046   0.69066   0.27186   0.00000  Uiso   1.00
C522   C     0.46958   0.97600   0.22806   0.00000  Uiso   1.00
C523   C     0.46961   0.69062   0.22802   0.00000  Uiso   1.00
C524   C     0.53053   0.97606   0.27173   0.00000  Uiso   1.00
C525   C     0.49962   0.83321   0.16358   0.00000  Uiso   1.00
C526   C     0.50076   0.83350   0.33653   0.00000  Uiso   1.00
C527   C     0.53424   0.85492   0.40732   0.00000  Uiso   1.00
C528   C     0.46335   0.81736   0.09328   0.00000  Uiso   1.00
C529   C     0.50147   0.83387   0.38428   0.00000  Uiso   1.00
C530   C     0.58002   0.83329   0.25007   0.00000  Uiso   1.00
C531   C     0.49872   0.83300   0.11602   0.00000  Uiso   1.00
C532   C     0.46882   0.81307   0.40641   0.00000  Uiso   1.00
C533   C     0.53376   0.84841   0.09388   0.00000  Uiso   1.00
C534   C     0.46757   0.81374   0.45263   0.00000  Uiso   1.00
C535   C     0.53462   0.84822   0.04769   0.00000  Uiso   1.00
C536   C     0.50118   0.83238   0.47685   0.00000  Uiso   1.00
C537   C     0.49990   0.83197   0.02356   0.00000  Uiso   1.00
C538   C     0.53611   0.85107   0.45424   0.00000  Uiso   1.00
C539   C     0.46410   0.81520   0.04622   0.00000  Uiso   1.00
C540   C     0.43317   0.79557   0.47460   0.00000  Uiso   1.00
C541   C     0.43025   0.79736   0.02133   0.00000  Uiso   1.00
C542   C     0.57033   0.86311   0.02569   0.00000  Uiso   1.00
C543   C     0.55684   0.92392   0.38455   0.00000  Uiso   1.00
C544   C     0.40345   0.84064   0.12702   0.00000  Uiso   1.00
C545   C     0.35861   0.79693   0.02785   0.00000  Uiso   1.00
C546   C     0.62817   0.91428   0.47502   0.00000  Uiso   1.00
C547   C     0.57154   0.86539   0.47883   0.00000  Uiso   1.00
C548   C     0.35479   0.79392   0.23756   0.00000  Uiso   1.00
C549   C     0.64521   0.87279   0.26233   0.00000  Uiso   1.00
C550   C     0.64544   0.79385   0.23767   0.00000  Uiso   1.00
C551   C     0.35457   0.87288   0.26215   0.00000  Uiso   1.00
C552   C     0.62417   0.83328   0.25008   0.00000  Uiso   1.00
H553   H     0.40844   0.77997   0.45526   0.00000  Uiso   1.00
H554   H     0.56048   0.86031   0.11292   0.00000  Uiso   1.00
H555   H     0.34799   0.77977   0.49670   0.00000  Uiso   1.00
H556   H     0.36071   0.83419   0.02265   0.00000  Uiso   1.00
H557   H     0.33441   0.79126   0.05373   0.00000  Uiso   1.00
H558   H     0.64887   0.90401   0.00302   0.00000  Uiso   1.00
H559   H     0.60571   0.94087   0.48623   0.00000  Uiso   1.00
H560   H     0.64819   0.92961   0.44893   0.00000  Uiso   1.00
H561   H     0.37121   0.76339   0.22752   0.00000  Uiso   1.00
H562   H     0.62880   0.90333   0.27235   0.00000  Uiso   1.00
H563   H     0.62919   0.76328   0.22775   0.00000  Uiso   1.00
H564   H     0.59745   0.87243   0.04526   0.00000  Uiso   1.00
H565   H     0.37082   0.90347   0.27202   0.00000  Uiso   1.00
H566   H     0.55482   0.70881   0.28937   0.00000  Uiso   1.00
H567   H     0.44527   0.95783   0.21048   0.00000  Uiso   1.00
H568   H     0.44533   0.70874   0.21038   0.00000  Uiso   1.00
H569   H     0.55506   0.95794   0.28889   0.00000  Uiso   1.00
H570   H     0.55622   0.93752   0.41935   0.00000  Uiso   1.00
H571   H     0.52689   0.93228   0.36776   0.00000  Uiso   1.00
H572   H     0.58215   0.94159   0.36644   0.00000  Uiso   1.00
H573   H     0.39492   0.85961   0.09621   0.00000  Uiso   1.00
H574   H     0.41859   0.86383   0.15149   0.00000  Uiso   1.00
H575   H     0.37411   0.82844   0.14236   0.00000  Uiso   1.00
H576   H     0.44361   0.79779   0.38736   0.00000  Uiso   1.00
N577   N     0.50000   0.95240   0.25000   0.00000  Uiso   1.00
N578   N     0.50000   0.71427   0.25000   0.00000  Uiso   1.00
O579   O     0.43892   0.87154   0.24999   0.00000  Uiso   1.00
O580   O     0.42906   0.80284   0.11740   0.00000  Uiso   1.00
O581   O     0.39652   0.77791   0.04306   0.00000  Uiso   1.00
O582   O     0.60819   0.87605   0.45625   0.00000  Uiso   1.00
O583   O     0.56108   0.79513   0.25000   0.00000  Uiso   1.00
O584   O     0.56108   0.87154   0.25000   0.00000  Uiso   1.00
O585   O     0.43892   0.79513   0.24999   0.00000  Uiso   1.00
O586   O     0.49999   0.87156   0.18392   0.00000  Uiso   1.00
O587   O     0.50001   0.79511   0.31607   0.00000  Uiso   1.00
O588   O     0.50001   0.87156   0.31607   0.00000  Uiso   1.00
O589   O     0.49999   0.79511   0.18392   0.00000  Uiso   1.00
O590   O     0.56505   0.87688   0.38335   0.00000  Uiso   1.00
Zn591  Zn    0.50000   0.88437   0.25000   0.00000  Uiso   1.00
Zn592  Zn    0.50000   0.78229   0.25000   0.00000  Uiso   1.00
C593   C     0.75331   0.83338   0.24996   0.00000  Uiso   1.00
C594   C     0.70917   0.83342   0.24985   0.00000  Uiso   1.00
C595   C     0.86379   0.69066   0.27186   0.00000  Uiso   1.00
C596   C     0.80291   0.97600   0.22806   0.00000  Uiso   1.00
C597   C     0.80294   0.69062   0.22802   0.00000  Uiso   1.00
C598   C     0.86386   0.97606   0.27173   0.00000  Uiso   1.00
C599   C     0.83295   0.83321   0.16358   0.00000  Uiso   1.00
C600   C     0.83409   0.83350   0.33653   0.00000  Uiso   1.00
C601   C     0.86757   0.85492   0.40732   0.00000  Uiso   1.00
C602   C     0.79668   0.81736   0.09328   0.00000  Uiso   1.00
C603   C     0.83481   0.83387   0.38428   0.00000  Uiso   1.00
C604   C     0.91336   0.83329   0.25007   0.00000  Uiso   1.00
C605   C     0.83206   0.83300   0.11602   0.00000  Uiso   1.00
C606   C     0.80215   0.81307   0.40641   0.00000  Uiso   1.00
C607   C     0.86709   0.84841   0.09388   0.00000  Uiso   1.00
C608   C     0.80090   0.81374   0.45263   0.00000  Uiso   1.00
C609   C     0.86796   0.84822   0.04769   0.00000  Uiso   1.00
C610   C     0.83452   0.83238   0.47685   0.00000  Uiso   1.00
C611   C     0.83323   0.83197   0.02356   0.00000  Uiso   1.00
C612   C     0.86945   0.85107   0.45424   0.00000  Uiso   1.00
C613   C     0.79744   0.81520   0.04622   0.00000  Uiso   1.00
C614   C     0.76651   0.79557   0.47460   0.00000  Uiso   1.00
C615   C     0.76358   0.79736   0.02133   0.00000  Uiso   1.00
C616   C     0.90366   0.86311   0.02569   0.00000  Uiso   1.00
C617   C     0.89017   0.92392   0.38455   0.00000  Uiso   1.00
C618   C     0.73678   0.84064   0.12702   0.00000  Uiso   1.00
C619   C     0.69194   0.79693   0.02785   0.00000  Uiso   1.00
C620   C     0.96150   0.91428   0.47502   0.00000  Uiso   1.00
C621   C     0.90487   0.86539   0.47883   0.00000  Uiso   1.00
C622   C     0.68813   0.79392   0.23756   0.00000  Uiso   1.00
C623   C     0.97855   0.87279   0.26233   0.00000  Uiso   1.00
C624   C     0.97877   0.79385   0.23767   0.00000  Uiso   1.00
C625   C     0.68790   0.87288   0.26215   0.00000  Uiso   1.00
C626   C     0.95750   0.83328   0.25008   0.00000  Uiso   1.00
H627   H     0.74178   0.77997   0.45526   0.00000  Uiso   1.00
H628   H     0.89382   0.86031   0.11292   0.00000  Uiso   1.00
H629   H     0.68132   0.77977   0.49670   0.00000  Uiso   1.00
H630   H     0.69404   0.83419   0.02265   0.00000  Uiso   1.00
H631   H     0.66774   0.79126   0.05373   0.00000  Uiso   1.00
H632   H     0.98221   0.90401   0.00302   0.00000  Uiso   1.00
H633   H     0.93904   0.94087   0.48623   0.00000  Uiso   1.00
H634   H     0.98153   0.92961   0.44893   0.00000  Uiso   1.00
H635   H     0.70455   0.76339   0.22752   0.00000  Uiso   1.00
H636   H     0.96213   0.90333   0.27235   0.00000  Uiso   1.00
H637   H     0.96252   0.76328   0.22775   0.00000  Uiso   1.00
H638   H     0.93078   0.87243   0.04526   0.00000  Uiso   1.00
H639   H     0.70415   0.90347   0.27202   0.00000  Uiso   1.00
H640   H     0.88815   0.70881   0.28937   0.00000  Uiso   1.00
H641   H     0.77861   0.95783   0.21048   0.00000  Uiso   1.00
H642   H     0.77867   0.70874   0.21038   0.00000  Uiso   1.00
H643   H     0.88839   0.95794   0.28889   0.00000  Uiso   1.00
H644   H     0.88956   0.93752   0.41935   0.00000  Uiso   1.00
H645   H     0.86022   0.93228   0.36776   0.00000  Uiso   1.00
H646   H     0.91548   0.94159   0.36644   0.00000  Uiso   1.00
H647   H     0.72825   0.85961   0.09621   0.00000  Uiso   1.00
H648   H     0.75192   0.86383   0.15149   0.00000  Uiso   1.00
H649   H     0.70744   0.82844   0.14236   0.00000  Uiso   1.00
H650   H     0.77695   0.79779   0.38736   0.00000  Uiso   1.00
N651   N     0.83333   0.95240   0.25000   0.00000  Uiso   1.00
N652   N     0.83333   0.71427   0.25000   0.00000  Uiso   1.00
O653   O     0.77226   0.87154   0.24999   0.00000  Uiso   1.00
O654   O     0.76239   0.80284   0.11740   0.00000  Uiso   1.00
O655   O     0.72985   0.77791   0.04306   0.00000  Uiso   1.00
O656   O     0.94152   0.87605   0.45625   0.00000  Uiso   1.00
O657   O     0.89441   0.79513   0.25000   0.00000  Uiso   1.00
O658   O     0.89441   0.87154   0.25000   0.00000  Uiso   1.00
O659   O     0.77226   0.79513   0.24999   0.00000  Uiso   1.00
O660   O     0.83333   0.87156   0.18392   0.00000  Uiso   1.00
O661   O     0.83334   0.79511   0.31607   0.00000  Uiso   1.00
O662   O     0.83334   0.87156   0.31607   0.00000  Uiso   1.00
O663   O     0.83333   0.79511   0.18392   0.00000  Uiso   1.00
O664   O     0.89838   0.87688   0.38335   0.00000  Uiso   1.00
Zn665  Zn    0.83333   0.88437   0.25000   0.00000  Uiso   1.00
Zn666  Zn    0.83333   0.78229   0.25000   0.00000  Uiso   1.00
C667   C     0.08664   0.16671   0.74996   0.00000  Uiso   1.00
C668   C     0.04250   0.16676   0.74985   0.00000  Uiso   1.00
C669   C     0.19713   0.02399   0.77186   0.00000  Uiso   1.00
C670   C     0.13625   0.30933   0.72806   0.00000  Uiso   1.00
C671   C     0.13627   0.02395   0.72802   0.00000  Uiso   1.00
C672   C     0.19720   0.30939   0.77173   0.00000  Uiso   1.00
C673   C     0.16629   0.16654   0.66358   0.00000  Uiso   1.00
C674   C     0.16742   0.16684   0.83653   0.00000  Uiso   1.00
C675   C     0.20091   0.18825   0.90732   0.00000  Uiso   1.00
C676   C     0.13002   0.15069   0.59328   0.00000  Uiso   1.00
C677   C     0.16814   0.16721   0.88428   0.00000  Uiso   1.00
C678   C     0.24669   0.16662   0.75007   0.00000  Uiso   1.00
C679   C     0.16539   0.16633   0.61602   0.00000  Uiso   1.00
C680   C     0.13548   0.14640   0.90641   0.00000  Uiso   1.00
C681   C     0.20043   0.18175   0.59388   0.00000  Uiso   1.00
C682   C     0.13423   0.14707   0.95263   0.00000  Uiso   1.00
C683   C     0.20129   0.18155   0.54769   0.00000  Uiso   1.00
C684   C     0.16785   0.16571   0.97685   0.00000  Uiso   1.00
C685   C     0.16657   0.16530   0.52356   0.00000  Uiso   1.00
C686   C     0.20278   0.18440   0.95424   0.00000  Uiso   1.00
C687   C     0.13077   0.14853   0.54622   0.00000  Uiso   1.00
C688   C     0.09984   0.12891   0.97460   0.00000  Uiso   1.00
C689   C     0.09692   0.13069   0.52133   0.00000  Uiso   1.00
C690   C     0.23700   0.19644   0.52569   0.00000  Uiso   1.00
C691   C     0.22350   0.25725   0.88455   0.00000  Uiso   1.00
C692   C     0.07012   0.17397   0.62702   0.00000  Uiso   1.00
C693   C     0.02528   0.13026   0.52785   0.00000  Uiso   1.00
C694   C     0.29484   0.24761   0.97502   0.00000  Uiso   1.00
C695   C     0.23820   0.19873   0.97883   0.00000  Uiso   1.00
C696   C     0.02146   0.12726   0.73756   0.00000  Uiso   1.00
C697   C     0.31188   0.20612   0.76233   0.00000  Uiso   1.00
C698   C     0.31210   0.12719   0.73767   0.00000  Uiso   1.00
C699   C     0.02124   0.20621   0.76215   0.00000  Uiso   1.00
C700   C     0.29083   0.16661   0.75008   0.00000  Uiso   1.00
H701   H     0.07511   0.11331   0.95526   0.00000  Uiso   1.00
H702   H     0.22715   0.19365   0.61292   0.00000  Uiso   1.00
H703   H     0.01465   0.11310   0.99670   0.00000  Uiso   1.00
H704   H     0.02737   0.16753   0.52265   0.00000  Uiso   1.00
H705   H     0.00108   0.12459   0.55373   0.00000  Uiso   1.00
H706   H     0.31554   0.23734   0.50302   0.00000  Uiso   1.00
H707   H     0.27237   0.27420   0.98623   0.00000  Uiso   1.00
H708   H     0.31486   0.26294   0.94893   0.00000  Uiso   1.00
H709   H     0.03788   0.09673   0.72752   0.00000  Uiso   1.00
H710   H     0.29546   0.23666   0.77235   0.00000  Uiso   1.00
H711   H     0.29586   0.09661   0.72775   0.00000  Uiso   1.00
H712   H     0.26411   0.20576   0.54526   0.00000  Uiso   1.00
H713   H     0.03748   0.23681   0.77202   0.00000  Uiso   1.00
H714   H     0.22148   0.04214   0.78937   0.00000  Uiso   1.00
H715   H     0.11194   0.29117   0.71048   0.00000  Uiso   1.00
H716   H     0.11200   0.04207   0.71038   0.00000  Uiso   1.00
H717   H     0.22173   0.29128   0.78889   0.00000  Uiso   1.00
H718   H     0.22289   0.27085   0.91935   0.00000  Uiso   1.00
H719   H     0.19356   0.26561   0.86776   0.00000  Uiso   1.00
H720   H     0.24882   0.27492   0.86644   0.00000  Uiso   1.00
H721   H     0.06158   0.19294   0.59621   0.00000  Uiso   1.00
H722   H     0.08525   0.19716   0.65149   0.00000  Uiso   1.00
H723   H     0.04077   0.16177   0.64236   0.00000  Uiso   1.00
H724   H     0.11028   0.13112   0.88736   0.00000  Uiso   1.00
N725   N     0.16667   0.28573   0.75000   0.00000  Uiso   1.00
N726   N     0.16667   0.04760   0.75000   0.00000  Uiso   1.00
O727   O     0.10559   0.20487   0.74999   0.00000  Uiso   1.00
O728   O     0.09572   0.13618   0.61740   0.00000  Uiso   1.00
O729   O     0.06319   0.11124   0.54306   0.00000  Uiso   1.00
O730   O     0.27485   0.20938   0.95625   0.00000  Uiso   1.00
O731   O     0.22774   0.12846   0.75000   0.00000  Uiso   1.00
O732   O     0.22774   0.20487   0.75000   0.00000  Uiso   1.00
O733   O     0.10559   0.12846   0.74999   0.00000  Uiso   1.00
O734   O     0.16666   0.20489   0.68392   0.00000  Uiso   1.00
O735   O     0.16667   0.12844   0.81607   0.00000  Uiso   1.00
O736   O     0.16667   0.20489   0.81607   0.00000  Uiso   1.00
O737   O     0.16666   0.12844   0.68392   0.00000  Uiso   1.00
O738   O     0.23171   0.21022   0.88335   0.00000  Uiso   1.00
Zn739  Zn    0.16667   0.21771   0.75000   0.00000  Uiso   1.00
Zn740  Zn    0.16667   0.11563   0.75000   0.00000  Uiso   1.00
C741   C     0.41998   0.16671   0.74996   0.00000  Uiso   1.00
C742   C     0.37584   0.16676   0.74985   0.00000  Uiso   1.00
C743   C     0.53046   0.02399   0.77186   0.00000  Uiso   1.00
C744   C     0.46958   0.30933   0.72806   0.00000  Uiso   1.00
C745   C     0.46961   0.02395   0.72802   0.00000  Uiso   1.00
C746   C     0.53053   0.30939   0.77173   0.00000  Uiso   1.00
C747   C     0.49962   0.16654   0.66358   0.00000  Uiso   1.00
C748   C     0.50076   0.16684   0.83653   0.00000  Uiso   1.00
C749   C     0.53424   0.18825   0.90732   0.00000  Uiso   1.00
C750   C     0.46335   0.15069   0.59328   0.00000  Uiso   1.00
C751   C     0.50147   0.16721   0.88428   0.00000  Uiso   1.00
C752   C     0.58002   0.16662   0.75007   0.00000  Uiso   1.00
C753   C     0.49872   0.16633   0.61602   0.00000  Uiso   1.00
C754   C     0.46882   0.14640   0.90641   0.00000  Uiso   1.00
C755   C     0.53376   0.18175   0.59388   0.00000  Uiso   1.00
C756   C     0.46757   0.14707   0.95263   0.00000  Uiso   1.00
C757   C     0.53462   0.18155   0.54769   0.00000  Uiso   1.00
C758   C     0.50118   0.16571   0.97685   0.00000  Uiso   1.00
C759   C     0.49990   0.16530   0.52356   0.00000  Uiso   1.00
C760   C     0.53611   0.18440   0.95424   0.00000  Uiso   1.00
C761   C     0.46410   0.14853   0.54622   0.00000  Uiso   1.00
C762   C     0.43317   0.12891   0.97460   0.00000  Uiso   1.00
C763   C     0.43025   0.13069   0.52133   0.00000  Uiso   1.00
C764   C     0.57033   0.19644   0.52569   0.00000  Uiso   1.00
C765   C     0.55684   0.25725   0.88455   0.00000  Uiso   1.00
C766   C     0.40345   0.17397   0.62702   0.00000  Uiso   1.00
C767   C     0.35861   0.13026   0.52785   0.00000  Uiso   1.00
C768   C     0.62817   0.24761   0.97502   0.00000  Uiso   1.00
C769   C     0.57154   0.19873   0.97883   0.00000  Uiso   1.00
C770   C     0.35479   0.12726   0.73756   0.00000  Uiso   1.00
C771   C     0.64521   0.20612   0.76233   0.00000  Uiso   1.00
C772   C     0.64544   0.12719   0.73767   0.00000  Uiso   1.00
C773   C     0.35457   0.20621   0.76215   0.00000  Uiso   1.00
C774   C     0.62417   0.16661   0.75008   0.00000  Uiso   1.00
H775   H     0.40844   0.11331   0.95526   0.00000  Uiso   1.00
H776   H     0.56048   0.19365   0.61292   0.00000  Uiso   1.00
H777   H     0.34799   0.11310   0.99670   0.00000  Uiso   1.00
H778   H     0.36071   0.16753   0.52265   0.00000  Uiso   1.00
H779   H     0.33441   0.12459   0.55373   0.00000  Uiso   1.00
H780   H     0.64887   0.23734   0.50302   0.00000  Uiso   1.00
H781   H     0.60571   0.27420   0.98623   0.00000  Uiso   1.00
H782   H     0.64819   0.26294   0.94893   0.00000  Uiso   1.00
H783   H     0.37121   0.09673   0.72752   0.00000  Uiso   1.00
H784   H     0.62880   0.23666   0.77235   0.00000  Uiso   1.00
H785   H     0.62919   0.09661   0.72775   0.00000  Uiso   1.00
H786   H     0.59745   0.20576   0.54526   0.00000  Uiso   1.00
H787   H     0.37082   0.23681   0.77202   0.00000  Uiso   1.00
H788   H     0.55482   0.04214   0.78937   0.00000  Uiso   1.00
H789   H     0.44527   0.29117   0.71048   0.00000  Uiso   1.00
H790   H     0.44533   0.04207   0.71038   0.00000  Uiso   1.00
H791   H     0.55506   0.29128   0.78889   0.00000  Uiso   1.00
H792   H     0.55622   0.27085   0.91935   0.00000  Uiso   1.00
H793   H     0.52689   0.26561   0.86776   0.00000  Uiso   1.00
H794   H     0.58215   0.27492   0.86644   0.00000  Uiso   1.00
H795   H     0.39492   0.19294   0.59621   0.00000  Uiso   1.00
H796   H     0.41859   0.19716   0.65149   0.00000  Uiso   1.00
H797   H     0.37411   0.16177   0.64236   0.00000  Uiso   1.00
H798   H     0.44361   0.13112   0.88736   0.00000  Uiso   1.00
N799   N     0.50000   0.28573   0.75000   0.00000  Uiso   1.00
N800   N     0.50000   0.04760   0.75000   0.00000  Uiso   1.00
O801   O     0.43892   0.20487   0.74999   0.00000  Uiso   1.00
O802   O     0.42906   0.13618   0.61740   0.00000  Uiso   1.00
O803   O     0.39652   0.11124   0.54306   0.00000  Uiso   1.00
O804   O     0.60819   0.20938   0.95625   0.00000  Uiso   1.00
O805   O     0.56108   0.12846   0.75000   0.00000  Uiso   1.00
O806   O     0.56108   0.20487   0.75000   0.00000  Uiso   1.00
O807   O     0.43892   0.12846   0.74999   0.00000  Uiso   1.00
O808   O     0.49999   0.20489   0.68392   0.00000  Uiso   1.00
O809   O     0.50001   0.12844   0.81607   0.00000  Uiso   1.00
O810   O     0.50001   0.20489   0.81607   0.00000  Uiso   1.00
O811   O     0.49999   0.12844   0.68392   0.00000  Uiso   1.00
O812   O     0.56505   0.21022   0.88335   0.00000  Uiso   1.00
Zn813  Zn    0.50000   0.21771   0.75000   0.00000  Uiso   1.00
Zn814  Zn    0.50000   0.11563   0.75000   0.00000  Uiso   1.00
C815   C     0.75331   0.16671   0.74996   0.00000  Uiso   1.00
C816   C     0.70917   0.16676   0.74985   0.00000  Uiso   1.00
C817   C     0.86379   0.02399   0.77186   0.00000  Uiso   1.00
C818   C     0.80291   0.30933   0.72806   0.00000  Uiso   1.00
C819   C     0.80294   0.02395   0.72802   0.00000  Uiso   1.00
C820   C     0.86386   0.30939   0.77173   0.00000  Uiso   1.00
C821   C     0.83295   0.16654   0.66358   0.00000  Uiso   1.00
C822   C     0.83409   0.16684   0.83653   0.00000  Uiso   1.00
C823   C     0.86757   0.18825   0.90732   0.00000  Uiso   1.00
C824   C     0.79668   0.15069   0.59328   0.00000  Uiso   1.00
C825   C     0.83481   0.16721   0.88428   0.00000  Uiso   1.00
C826   C     0.91336   0.16662   0.75007   0.00000  Uiso   1.00
C827   C     0.83206   0.16633   0.61602   0.00000  Uiso   1.00
C828   C     0.80215   0.14640   0.90641   0.00000  Uiso   1.00
C829   C     0.86709   0.18175   0.59388   0.00000  Uiso   1.00
C830   C     0.80090   0.14707   0.95263   0.00000  Uiso   1.00
C831   C     0.86796   0.18155   0.54769   0.00000  Uiso   1.00
C832   C     0.83452   0.16571   0.97685   0.00000  Uiso   1.00
C833   C     0.83323   0.16530   0.52356   0.00000  Uiso   1.00
C834   C     0.86945   0.18440   0.95424   0.00000  Uiso   1.00
C835   C     0.79744   0.14853   0.54622   0.00000  Uiso   1.00
C836   C     0.76651   0.12891   0.97460   0.00000  Uiso   1.00
C837   C     0.76358   0.13069   0.52133   0.00000  Uiso   1.00
C838   C     0.90366   0.19644   0.52569   0.00000  Uiso   1.00
C839   C     0.89017   0.25725   0.88455   0.00000  Uiso   1.00
C840   C     0.73678   0.17397   0.62702   0.00000  Uiso   1.00
C841   C     0.69194   0.13026   0.52785   0.00000  Uiso   1.00
C842   C     0.96150   0.24761   0.97502   0.00000  Uiso   1.00
C843   C     0.90487   0.19873   0.97883   0.00000  Uiso   1.00
C844   C     0.68813   0.12726   0.73756   0.00000  Uiso   1.00
C845   C     0.97855   0.20612   0.76233   0.00000  Uiso   1.00
C846   C     0.97877   0.12719   0.73767   0.00000  Uiso   1.00
C847   C     0.68790   0.20621   0.76215   0.00000  Uiso   1.00
C848   C     0.95750   0.16661   0.75008   0.00000  Uiso   1.00
H849   H     0.74178   0.11331   0.95526   0.00000  Uiso   1.00
H850   H     0.89382   0.19365   0.61292   0.00000  Uiso   1.00
H851   H     0.68132   0.11310   0.99670   0.00000  Uiso   1.00
H852   H     0.69404   0.16753   0.52265   0.00000  Uiso   1.00
H853   H     0.66774   0.12459   0.55373   0.00000  Uiso   1.00
H854   H     0.98221   0.23734   0.50302   0.00000  Uiso   1.00
H855   H     0.93904   0.27420   0.98623   0.00000  Uiso   1.00
H856   H     0.98153   0.26294   0.94893   0.00000  Uiso   1.00
H857   H     0.70455   0.09673   0.72752   0.00000  Uiso   1.00
H858   H     0.96213   0.23666   0.77235   0.00000  Uiso   1.00
H859   H     0.96252   0.09661   0.72775   0.00000  Uiso   1.00
H860   H     0.93078   0.20576   0.54526   0.00000  Uiso   1.00
H861   H     0.70415   0.23681   0.77202   0.00000  Uiso   1.00
H862   H     0.88815   0.04214   0.78937   0.00000  Uiso   1.00
H863   H     0.77861   0.29117   0.71048   0.00000  Uiso   1.00
H864   H     0.77867   0.04207   0.71038   0.00000  Uiso   1.00
H865   H     0.88839   0.29128   0.78889   0.00000  Uiso   1.00
H866   H     0.88956   0.27085   0.91935   0.00000  Uiso   1.00
H867   H     0.86022   0.26561   0.86776   0.00000  Uiso   1.00
H868   H     0.91548   0.27492   0.86644   0.00000  Uiso   1.00
H869   H     0.72825   0.19294   0.59621   0.00000  Uiso   1.00
H870   H     0.75192   0.19716   0.65149   0.00000  Uiso   1.00
H871   H     0.70744   0.16177   0.64236   0.00000  Uiso   1.00
H872   H     0.77695   0.13112   0.88736   0.00000  Uiso   1.00
N873   N     0.83333   0.28573   0.75000   0.00000  Uiso   1.00
N874   N     0.83333   0.04760   0.75000   0.00000  Uiso   1.00
O875   O     0.77226   0.20487   0.74999   0.00000  Uiso   1.00
O876   O     0.76239   0.13618   0.61740   0.00000  Uiso   1.00
O877   O     0.72985   0.11124   0.54306   0.00000  Uiso   1.00
O878   O     0.94152   0.20938   0.95625   0.00000  Uiso   1.00
O879   O     0.89441   0.12846   0.75000   0.00000  Uiso   1.00
O880   O     0.89441   0.20487   0.75000   0.00000  Uiso   1.00
O881   O     0.77226   0.12846   0.74999   0.00000  Uiso   1.00
O882   O     0.83333   0.20489   0.68392   0.00000  Uiso   1.00
O883   O     0.83334   0.12844   0.81607   0.00000  Uiso   1.00
O884   O     0.83334   0.20489   0.81607   0.00000  Uiso   1.00
O885   O     0.83333   0.12844   0.68392   0.00000  Uiso   1.00
O886   O     0.89838   0.21022   0.88335   0.00000  Uiso   1.00
Zn887  Zn    0.83333   0.21771   0.75000   0.00000  Uiso   1.00
Zn888  Zn    0.83333   0.11563   0.75000   0.00000  Uiso   1.00
C889   C     0.08664   0.50005   0.74996   0.00000  Uiso   1.00
C890   C     0.04250   0.50009   0.74985   0.00000  Uiso   1.00
C891   C     0.19713   0.35733   0.77186   0.00000  Uiso   1.00
C892   C     0.13625   0.64267   0.72806   0.00000  Uiso   1.00
C893   C     0.13627   0.35728   0.72802   0.00000  Uiso   1.00
C894   C     0.19720   0.64272   0.77173   0.00000  Uiso   1.00
C895   C     0.16629   0.49988   0.66358   0.00000  Uiso   1.00
C896   C     0.16742   0.50017   0.83653   0.00000  Uiso   1.00
C897   C     0.20091   0.52159   0.90732   0.00000  Uiso   1.00
C898   C     0.13002   0.48403   0.59328   0.00000  Uiso   1.00
C899   C     0.16814   0.50054   0.88428   0.00000  Uiso   1.00
C900   C     0.24669   0.49996   0.75007   0.00000  Uiso   1.00
C901   C     0.16539   0.49966   0.61602   0.00000  Uiso   1.00
C902   C     0.13548   0.47974   0.90641   0.00000  Uiso   1.00
C903   C     0.20043   0.51508   0.59388   0.00000  Uiso   1.00
C904   C     0.13423   0.48040   0.95263   0.00000  Uiso   1.00
C905   C     0.20129   0.51488   0.54769   0.00000  Uiso   1.00
C906   C     0.16785   0.49904   0.97685   0.00000  Uiso   1.00
C907   C     0.16657   0.49864   0.52356   0.00000  Uiso   1.00
C908   C     0.20278   0.51773   0.95424   0.00000  Uiso   1.00
C909   C     0.13077   0.48187   0.54622   0.00000  Uiso   1.00
C910   C     0.09984   0.46224   0.97460   0.00000  Uiso   1.00
C911   C     0.09692   0.46403   0.52133   0.00000  Uiso   1.00
C912   C     0.23700   0.52978   0.52569   0.00000  Uiso   1.00
C913   C     0.22350   0.59059   0.88455   0.00000  Uiso   1.00
C914   C     0.07012   0.50731   0.62702   0.00000  Uiso   1.00
C915   C     0.02528   0.46360   0.52785   0.00000  Uiso   1.00
C916   C     0.29484   0.58094   0.97502   0.00000  Uiso   1.00
C917   C     0.23820   0.53206   0.97883   0.00000  Uiso   1.00
C918   C     0.02146   0.46059   0.73756   0.00000  Uiso   1.00
C919   C     0.31188   0.53946   0.76233   0.00000  Uiso   1.00
C920   C     0.31210   0.46052   0.73767   0.00000  Uiso   1.00
C921   C     0.02124   0.53955   0.76215   0.00000  Uiso   1.00
C922   C     0.29083   0.49994   0.75008   0.00000  Uiso   1.00
H923   H     0.07511   0.44664   0.95526   0.00000  Uiso   1.00
H924   H     0.22715   0.52698   0.61292   0.00000  Uiso   1.00
H925   H     0.01465   0.44643   0.99670   0.00000  Uiso   1.00
H926   H     0.02737   0.50086   0.52265   0.00000  Uiso   1.00
H927   H     0.00108   0.45792   0.55373   0.00000  Uiso   1.00
H928   H     0.31554   0.57067   0.50302   0.00000  Uiso   1.00
H929   H     0.27237   0.60753   0.98623   0.00000  Uiso   1.00
H930   H     0.31486   0.59627   0.94893   0.00000  Uiso   1.00
H931   H     0.03788   0.43006   0.72752   0.00000  Uiso   1.00
H932   H     0.29546   0.57000   0.77235   0.00000  Uiso   1.00
H933   H     0.29586   0.42994   0.72775   0.00000  Uiso   1.00
H934   H     0.26411   0.53910   0.54526   0.00000  Uiso   1.00
H935   H     0.03748   0.57014   0.77202   0.00000  Uiso   1.00
H936   H     0.22148   0.37548   0.78937   0.00000  Uiso   1.00
H937   H     0.11194   0.62450   0.71048   0.00000  Uiso   1.00
H938   H     0.11200   0.37541   0.71038   0.00000  Uiso   1.00
H939   H     0.22173   0.62461   0.78889   0.00000  Uiso   1.00
H940   H     0.22289   0.60418   0.91935   0.00000  Uiso   1.00
H941   H     0.19356   0.59895   0.86776   0.00000  Uiso   1.00
H942   H     0.24882   0.60825   0.86644   0.00000  Uiso   1.00
H943   H     0.06158   0.52627   0.59621   0.00000  Uiso   1.00
H944   H     0.08525   0.53050   0.65149   0.00000  Uiso   1.00
H945   H     0.04077   0.49511   0.64236   0.00000  Uiso   1.00
H946   H     0.11028   0.46446   0.88736   0.00000  Uiso   1.00
N947   N     0.16667   0.61907   0.75000   0.00000  Uiso   1.00
N948   N     0.16667   0.38093   0.75000   0.00000  Uiso   1.00
O949   O     0.10559   0.53821   0.74999   0.00000  Uiso   1.00
O950   O     0.09572   0.46951   0.61740   0.00000  Uiso   1.00
O951   O     0.06319   0.44457   0.54306   0.00000  Uiso   1.00
O952   O     0.27485   0.54272   0.95625   0.00000  Uiso   1.00
O953   O     0.22774   0.46179   0.75000   0.00000  Uiso   1.00
O954   O     0.22774   0.53821   0.75000   0.00000  Uiso   1.00
O955   O     0.10559   0.46179   0.74999   0.00000  Uiso   1.00
O956   O     0.16666   0.53823   0.68392   0.00000  Uiso   1.00
O957   O     0.16667   0.46177   0.81607   0.00000  Uiso   1.00
O958   O     0.16667   0.53823   0.81607   0.00000  Uiso   1.00
O959   O     0.16666   0.46177   0.68392   0.00000  Uiso   1.00
O960   O     0.23171   0.54355   0.88335   0.00000  Uiso   1.00
Zn961  Zn    0.16667   0.55104   0.75000   0.00000  Uiso   1.00
Zn962  Zn    0.16667   0.44896   0.75000   0.00000  Uiso   1.00
C963   C     0.41998   0.50005   0.74996   0.00000  Uiso   1.00
C964   C     0.37584   0.50009   0.74985   0.00000  Uiso   1.00
C965   C     0.53046   0.35733   0.77186   0.00000  Uiso   1.00
C966   C     0.46958   0.64267   0.72806   0.00000  Uiso   1.00
C967   C     0.46961   0.35728   0.72802   0.00000  Uiso   1.00
C968   C     0.53053   0.64272   0.77173   0.00000  Uiso   1.00
C969   C     0.49962   0.49988   0.66358   0.00000  Uiso   1.00
C970   C     0.50076   0.50017   0.83653   0.00000  Uiso   1.00
C971   C     0.53424   0.52159   0.90732   0.00000  Uiso   1.00
C972   C     0.46335   0.48403   0.59328   0.00000  Uiso   1.00
C973   C     0.50147   0.50054   0.88428   0.00000  Uiso   1.00
C974   C     0.58002   0.49996   0.75007   0.00000  Uiso   1.00
C975   C     0.49872   0.49966   0.61602   0.00000  Uiso   1.00
C976   C     0.46882   0.47974   0.90641   0.00000  Uiso   1.00
C977   C     0.53376   0.51508   0.59388   0.00000  Uiso   1.00
C978   C     0.46757   0.48040   0.95263   0.00000  Uiso   1.00
C979   C     0.53462   0.51488   0.54769   0.00000  Uiso   1.00
C980   C     0.50118   0.49904   0.97685   0.00000  Uiso   1.00
C981   C     0.49990   0.49864   0.52356   0.00000  Uiso   1.00
C982   C     0.53611   0.51773   0.95424   0.00000  Uiso   1.00
C983   C     0.46410   0.48187   0.54622   0.00000  Uiso   1.00
C984   C     0.43317   0.46224   0.97460   0.00000  Uiso   1.00
C985   C     0.43025   0.46403   0.52133   0.00000  Uiso   1.00
C986   C     0.57033   0.52978   0.52569   0.00000  Uiso   1.00
C987   C     0.55684   0.59059   0.88455   0.00000  Uiso   1.00
C988   C     0.40345   0.50731   0.62702   0.00000  Uiso   1.00
C989   C     0.35861   0.46360   0.52785   0.00000  Uiso   1.00
C990   C     0.62817   0.58094   0.97502   0.00000  Uiso   1.00
C991   C     0.57154   0.53206   0.97883   0.00000  Uiso   1.00
C992   C     0.35479   0.46059   0.73756   0.00000  Uiso   1.00
C993   C     0.64521   0.53946   0.76233   0.00000  Uiso   1.00
C994   C     0.64544   0.46052   0.73767   0.00000  Uiso   1.00
C995   C     0.35457   0.53955   0.76215   0.00000  Uiso   1.00
C996   C     0.62417   0.49994   0.75008   0.00000  Uiso   1.00
H997   H     0.40844   0.44664   0.95526   0.00000  Uiso   1.00
H998   H     0.56048   0.52698   0.61292   0.00000  Uiso   1.00
H999   H     0.34799   0.44643   0.99670   0.00000  Uiso   1.00
H1000  H     0.36071   0.50086   0.52265   0.00000  Uiso   1.00
H1001  H     0.33441   0.45792   0.55373   0.00000  Uiso   1.00
H1002  H     0.64887   0.57067   0.50302   0.00000  Uiso   1.00
H1003  H     0.60571   0.60753   0.98623   0.00000  Uiso   1.00
H1004  H     0.64819   0.59627   0.94893   0.00000  Uiso   1.00
H1005  H     0.37121   0.43006   0.72752   0.00000  Uiso   1.00
H1006  H     0.62880   0.57000   0.77235   0.00000  Uiso   1.00
H1007  H     0.62919   0.42994   0.72775   0.00000  Uiso   1.00
H1008  H     0.59745   0.53910   0.54526   0.00000  Uiso   1.00
H1009  H     0.37082   0.57014   0.77202   0.00000  Uiso   1.00
H1010  H     0.55482   0.37548   0.78937   0.00000  Uiso   1.00
H1011  H     0.44527   0.62450   0.71048   0.00000  Uiso   1.00
H1012  H     0.44533   0.37541   0.71038   0.00000  Uiso   1.00
H1013  H     0.55506   0.62461   0.78889   0.00000  Uiso   1.00
H1014  H     0.55622   0.60418   0.91935   0.00000  Uiso   1.00
H1015  H     0.52689   0.59895   0.86776   0.00000  Uiso   1.00
H1016  H     0.58215   0.60825   0.86644   0.00000  Uiso   1.00
H1017  H     0.39492   0.52627   0.59621   0.00000  Uiso   1.00
H1018  H     0.41859   0.53050   0.65149   0.00000  Uiso   1.00
H1019  H     0.37411   0.49511   0.64236   0.00000  Uiso   1.00
H1020  H     0.44361   0.46446   0.88736   0.00000  Uiso   1.00
N1021  N     0.50000   0.61907   0.75000   0.00000  Uiso   1.00
N1022  N     0.50000   0.38093   0.75000   0.00000  Uiso   1.00
O1023  O     0.43892   0.53821   0.74999   0.00000  Uiso   1.00
O1024  O     0.42906   0.46951   0.61740   0.00000  Uiso   1.00
O1025  O     0.39652   0.44457   0.54306   0.00000  Uiso   1.00
O1026  O     0.60819   0.54272   0.95625   0.00000  Uiso   1.00
O1027  O     0.56108   0.46179   0.75000   0.00000  Uiso   1.00
O1028  O     0.56108   0.53821   0.75000   0.00000  Uiso   1.00
O1029  O     0.43892   0.46179   0.74999   0.00000  Uiso   1.00
O1030  O     0.49999   0.53823   0.68392   0.00000  Uiso   1.00
O1031  O     0.50001   0.46177   0.81607   0.00000  Uiso   1.00
O1032  O     0.50001   0.53823   0.81607   0.00000  Uiso   1.00
O1033  O     0.49999   0.46177   0.68392   0.00000  Uiso   1.00
O1034  O     0.56505   0.54355   0.88335   0.00000  Uiso   1.00
Zn1035 Zn    0.50000   0.55104   0.75000   0.00000  Uiso   1.00
Zn1036 Zn    0.50000   0.44896   0.75000   0.00000  Uiso   1.00
C1037  C     0.75331   0.50005   0.74996   0.00000  Uiso   1.00
C1038  C     0.70917   0.50009   0.74985   0.00000  Uiso   1.00
C1039  C     0.86379   0.35733   0.77186   0.00000  Uiso   1.00
C1040  C     0.80291   0.64267   0.72806   0.00000  Uiso   1.00
C1041  C     0.80294   0.35728   0.72802   0.00000  Uiso   1.00
C1042  C     0.86386   0.64272   0.77173   0.00000  Uiso   1.00
C1043  C     0.83295   0.49988   0.66358   0.00000  Uiso   1.00
C1044  C     0.83409   0.50017   0.83653   0.00000  Uiso   1.00
C1045  C     0.86757   0.52159   0.90732   0.00000  Uiso   1.00
C1046  C     0.79668   0.48403   0.59328   0.00000  Uiso   1.00
C1047  C     0.83481   0.50054   0.88428   0.00000  Uiso   1.00
C1048  C     0.91336   0.49996   0.75007   0.00000  Uiso   1.00
C1049  C     0.83206   0.49966   0.61602   0.00000  Uiso   1.00
C1050  C     0.80215   0.47974   0.90641   0.00000  Uiso   1.00
C1051  C     0.86709   0.51508   0.59388   0.00000  Uiso   1.00
C1052  C     0.80090   0.48040   0.95263   0.00000  Uiso   1.00
C1053  C     0.86796   0.51488   0.54769   0.00000  Uiso   1.00
C1054  C     0.83452   0.49904   0.97685   0.00000  Uiso   1.00
C1055  C     0.83323   0.49864   0.52356   0.00000  Uiso   1.00
C1056  C     0.86945   0.51773   0.95424   0.00000  Uiso   1.00
C1057  C     0.79744   0.48187   0.54622   0.00000  Uiso   1.00
C1058  C     0.76651   0.46224   0.97460   0.00000  Uiso   1.00
C1059  C     0.76358   0.46403   0.52133   0.00000  Uiso   1.00
C1060  C     0.90366   0.52978   0.52569   0.00000  Uiso   1.00
C1061  C     0.89017   0.59059   0.88455   0.00000  Uiso   1.00
C1062  C     0.73678   0.50731   0.62702   0.00000  Uiso   1.00
C1063  C     0.69194   0.46360   0.52785   0.00000  Uiso   1.00
C1064  C     0.96150   0.58094   0.97502   0.00000  Uiso   1.00
C1065  C     0.90487   0.53206   0.97883   0.00000  Uiso   1.00
C1066  C     0.68813   0.46059   0.73756   0.00000  Uiso   1.00
C1067  C     0.97855   0.53946   0.76233   0.00000  Uiso   1.00
C1068  C     0.97877   0.46052   0.73767   0.00000  Uiso   1.00
C1069  C     0.68790   0.53955   0.76215   0.00000  Uiso   1.00
C1070  C     0.95750   0.49994   0.75008   0.00000  Uiso   1.00
H1071  H     0.74178   0.44664   0.95526   0.00000  Uiso   1.00
H1072  H     0.89382   0.52698   0.61292   0.00000  Uiso   1.00
H1073  H     0.68132   0.44643   0.99670   0.00000  Uiso   1.00
H1074  H     0.69404   0.50086   0.52265   0.00000  Uiso   1.00
H1075  H     0.66774   0.45792   0.55373   0.00000  Uiso   1.00
H1076  H     0.98221   0.57067   0.50302   0.00000  Uiso   1.00
H1077  H     0.93904   0.60753   0.98623   0.00000  Uiso   1.00
H1078  H     0.98153   0.59627   0.94893   0.00000  Uiso   1.00
H1079  H     0.70455   0.43006   0.72752   0.00000  Uiso   1.00
H1080  H     0.96213   0.57000   0.77235   0.00000  Uiso   1.00
H1081  H     0.96252   0.42994   0.72775   0.00000  Uiso   1.00
H1082  H     0.93078   0.53910   0.54526   0.00000  Uiso   1.00
H1083  H     0.70415   0.57014   0.77202   0.00000  Uiso   1.00
H1084  H     0.88815   0.37548   0.78937   0.00000  Uiso   1.00
H1085  H     0.77861   0.62450   0.71048   0.00000  Uiso   1.00
H1086  H     0.77867   0.37541   0.71038   0.00000  Uiso   1.00
H1087  H     0.88839   0.62461   0.78889   0.00000  Uiso   1.00
H1088  H     0.88956   0.60418   0.91935   0.00000  Uiso   1.00
H1089  H     0.86022   0.59895   0.86776   0.00000  Uiso   1.00
H1090  H     0.91548   0.60825   0.86644   0.00000  Uiso   1.00
H1091  H     0.72825   0.52627   0.59621   0.00000  Uiso   1.00
H1092  H     0.75192   0.53050   0.65149   0.00000  Uiso   1.00
H1093  H     0.70744   0.49511   0.64236   0.00000  Uiso   1.00
H1094  H     0.77695   0.46446   0.88736   0.00000  Uiso   1.00
N1095  N     0.83333   0.61907   0.75000   0.00000  Uiso   1.00
N1096  N     0.83333   0.38093   0.75000   0.00000  Uiso   1.00
O1097  O     0.77226   0.53821   0.74999   0.00000  Uiso   1.00
O1098  O     0.76239   0.46951   0.61740   0.00000  Uiso   1.00
O1099  O     0.72985   0.44457   0.54306   0.00000  Uiso   1.00
O1100  O     0.94152   0.54272   0.95625   0.00000  Uiso   1.00
O1101  O     0.89441   0.46179   0.75000   0.00000  Uiso   1.00
O1102  O     0.89441   0.53821   0.75000   0.00000  Uiso   1.00
O1103  O     0.77226   0.46179   0.74999   0.00000  Uiso   1.00
O1104  O     0.83333   0.53823   0.68392   0.00000  Uiso   1.00
O1105  O     0.83334   0.46177   0.81607   0.00000  Uiso   1.00
O1106  O     0.83334   0.53823   0.81607   0.00000  Uiso   1.00
O1107  O     0.83333   0.46177   0.68392   0.00000  Uiso   1.00
O1108  O     0.89838   0.54355   0.88335   0.00000  Uiso   1.00
Zn1109 Zn    0.83333   0.55104   0.75000   0.00000  Uiso   1.00
Zn1110 Zn    0.83333   0.44896   0.75000   0.00000  Uiso   1.00
C1111  C     0.08664   0.83338   0.74996   0.00000  Uiso   1.00
C1112  C     0.04250   0.83342   0.74985   0.00000  Uiso   1.00
C1113  C     0.19713   0.69066   0.77186   0.00000  Uiso   1.00
C1114  C     0.13625   0.97600   0.72806   0.00000  Uiso   1.00
C1115  C     0.13627   0.69062   0.72802   0.00000  Uiso   1.00
C1116  C     0.19720   0.97606   0.77173   0.00000  Uiso   1.00
C1117  C     0.16629   0.83321   0.66358   0.00000  Uiso   1.00
C1118  C     0.16742   0.83350   0.83653   0.00000  Uiso   1.00
C1119  C     0.20091   0.85492   0.90732   0.00000  Uiso   1.00
C1120  C     0.13002   0.81736   0.59328   0.00000  Uiso   1.00
C1121  C     0.16814   0.83387   0.88428   0.00000  Uiso   1.00
C1122  C     0.24669   0.83329   0.75007   0.00000  Uiso   1.00
C1123  C     0.16539   0.83300   0.61602   0.00000  Uiso   1.00
C1124  C     0.13548   0.81307   0.90641   0.00000  Uiso   1.00
C1125  C     0.20043   0.84841   0.59388   0.00000  Uiso   1.00
C1126  C     0.13423   0.81374   0.95263   0.00000  Uiso   1.00
C1127  C     0.20129   0.84822   0.54769   0.00000  Uiso   1.00
C1128  C     0.16785   0.83238   0.97685   0.00000  Uiso   1.00
C1129  C     0.16657   0.83197   0.52356   0.00000  Uiso   1.00
C1130  C     0.20278   0.85107   0.95424   0.00000  Uiso   1.00
C1131  C     0.13077   0.81520   0.54622   0.00000  Uiso   1.00
C1132  C     0.09984   0.79557   0.97460   0.00000  Uiso   1.00
C1133  C     0.09692   0.79736   0.52133   0.00000  Uiso   1.00
C1134  C     0.23700   0.86311   0.52569   0.00000  Uiso   1.00
C1135  C     0.22350   0.92392   0.88455   0.00000  Uiso   1.00
C1136  C     0.07012   0.84064   0.62702   0.00000  Uiso   1.00
C1137  C     0.02528   0.79693   0.52785   0.00000  Uiso   1.00
C1138  C     0.29484   0.91428   0.97502   0.00000  Uiso   1.00
C1139  C     0.23820   0.86539   0.97883   0.00000  Uiso   1.00
C1140  C     0.02146   0.79392   0.73756   0.00000  Uiso   1.00
C1141  C     0.31188   0.87279   0.76233   0.00000  Uiso   1.00
C1142  C     0.31210   0.79385   0.73767   0.00000  Uiso   1.00
C1143  C     0.02124   0.87288   0.76215   0.00000  Uiso   1.00
C1144  C     0.29083   0.83328   0.75008   0.00000  Uiso   1.00
H1145  H     0.07511   0.77997   0.95526   0.00000  Uiso   1.00
H1146  H     0.22715   0.86031   0.61292   0.00000  Uiso   1.00
H1147  H     0.01465   0.77977   0.99670   0.00000  Uiso   1.00
H1148  H     0.02737   0.83419   0.52265   0.00000  Uiso   1.00
H1149  H     0.00108   0.79126   0.55373   0.00000  Uiso   1.00
H1150  H     0.31554   0.90401   0.50302   0.00000  Uiso   1.00
H1151  H     0.27237   0.94087   0.98623   0.00000  Uiso   1.00
H1152  H     0.31486   0.92961   0.94893   0.00000  Uiso   1.00
H1153  H     0.03788   0.76339   0.72752   0.00000  Uiso   1.00
H1154  H     0.29546   0.90333   0.77235   0.00000  Uiso   1.00
H1155  H     0.29586   0.76328   0.72775   0.00000  Uiso   1.00
H1156  H     0.26411   0.87243   0.54526   0.00000  Uiso   1.00
H1157  H     0.03748   0.90347   0.77202   0.00000  Uiso   1.00
H1158  H     0.22148   0.70881   0.78937   0.00000  Uiso   1.00
H1159  H     0.11194   0.95783   0.71048   0.00000  Uiso   1.00
H1160  H     0.11200   0.70874   0.71038   0.00000  Uiso   1.00
H1161  H     0.22173   0.95794   0.78889   0.00000  Uiso   1.00
H1162  H     0.22289   0.93752   0.91935   0.00000  Uiso   1.00
H1163  H     0.19356   0.93228   0.86776   0.00000  Uiso   1.00
H1164  H     0.24882   0.94159   0.86644   0.00000  Uiso   1.00
H1165  H     0.06158   0.85961   0.59621   0.00000  Uiso   1.00
H1166  H     0.08525   0.86383   0.65149   0.00000  Uiso   1.00
H1167  H     0.04077   0.82844   0.64236   0.00000  Uiso   1.00
H1168  H     0.11028   0.79779   0.88736   0.00000  Uiso   1.00
N1169  N     0.16667   0.95240   0.75000   0.00000  Uiso   1.00
N1170  N     0.16667   0.71427   0.75000   0.00000  Uiso   1.00
O1171  O     0.10559   0.87154   0.74999   0.00000  Uiso   1.00
O1172  O     0.09572   0.80284   0.61740   0.00000  Uiso   1.00
O1173  O     0.06319   0.77791   0.54306   0.00000  Uiso   1.00
O1174  O     0.27485   0.87605   0.95625   0.00000  Uiso   1.00
O1175  O     0.22774   0.79513   0.75000   0.00000  Uiso   1.00
O1176  O     0.22774   0.87154   0.75000   0.00000  Uiso   1.00
O1177  O     0.10559   0.79513   0.74999   0.00000  Uiso   1.00
O1178  O     0.16666   0.87156   0.68392   0.00000  Uiso   1.00
O1179  O     0.16667   0.79511   0.81607   0.00000  Uiso   1.00
O1180  O     0.16667   0.87156   0.81607   0.00000  Uiso   1.00
O1181  O     0.16666   0.79511   0.68392   0.00000  Uiso   1.00
O1182  O     0.23171   0.87688   0.88335   0.00000  Uiso   1.00
Zn1183 Zn    0.16667   0.88437   0.75000   0.00000  Uiso   1.00
Zn1184 Zn    0.16667   0.78229   0.75000   0.00000  Uiso   1.00
C1185  C     0.41998   0.83338   0.74996   0.00000  Uiso   1.00
C1186  C     0.37584   0.83342   0.74985   0.00000  Uiso   1.00
C1187  C     0.53046   0.69066   0.77186   0.00000  Uiso   1.00
C1188  C     0.46958   0.97600   0.72806   0.00000  Uiso   1.00
C1189  C     0.46961   0.69062   0.72802   0.00000  Uiso   1.00
C1190  C     0.53053   0.97606   0.77173   0.00000  Uiso   1.00
C1191  C     0.49962   0.83321   0.66358   0.00000  Uiso   1.00
C1192  C     0.50076   0.83350   0.83653   0.00000  Uiso   1.00
C1193  C     0.53424   0.85492   0.90732   0.00000  Uiso   1.00
C1194  C     0.46335   0.81736   0.59328   0.00000  Uiso   1.00
C1195  C     0.50147   0.83387   0.88428   0.00000  Uiso   1.00
C1196  C     0.58002   0.83329   0.75007   0.00000  Uiso   1.00
C1197  C     0.49872   0.83300   0.61602   0.00000  Uiso   1.00
C1198  C     0.46882   0.81307   0.90641   0.00000  Uiso   1.00
C1199  C     0.53376   0.84841   0.59388   0.00000  Uiso   1.00
C1200  C     0.46757   0.81374   0.95263   0.00000  Uiso   1.00
C1201  C     0.53462   0.84822   0.54769   0.00000  Uiso   1.00
C1202  C     0.50118   0.83238   0.97685   0.00000  Uiso   1.00
C1203  C     0.49990   0.83197   0.52356   0.00000  Uiso   1.00
C1204  C     0.53611   0.85107   0.95424   0.00000  Uiso   1.00
C1205  C     0.46410   0.81520   0.54622   0.00000  Uiso   1.00
C1206  C     0.43317   0.79557   0.97460   0.00000  Uiso   1.00
C1207  C     0.43025   0.79736   0.52133   0.00000  Uiso   1.00
C1208  C     0.57033   0.86311   0.52569   0.00000  Uiso   1.00
C1209  C     0.55684   0.92392   0.88455   0.00000  Uiso   1.00
C1210  C     0.40345   0.84064   0.62702   0.00000  Uiso   1.00
C1211  C     0.35861   0.79693   0.52785   0.00000  Uiso   1.00
C1212  C     0.62817   0.91428   0.97502   0.00000  Uiso   1.00
C1213  C     0.57154   0.86539   0.97883   0.00000  Uiso   1.00
C1214  C     0.35479   0.79392   0.73756   0.00000  Uiso   1.00
C1215  C     0.64521   0.87279   0.76233   0.00000  Uiso   1.00
C1216  C     0.64544   0.79385   0.73767   0.00000  Uiso   1.00
C1217  C     0.35457   0.87288   0.76215   0.00000  Uiso   1.00
C1218  C     0.62417   0.83328   0.75008   0.00000  Uiso   1.00
H1219  H     0.40844   0.77997   0.95526   0.00000  Uiso   1.00
H1220  H     0.56048   0.86031   0.61292   0.00000  Uiso   1.00
H1221  H     0.34799   0.77977   0.99670   0.00000  Uiso   1.00
H1222  H     0.36071   0.83419   0.52265   0.00000  Uiso   1.00
H1223  H     0.33441   0.79126   0.55373   0.00000  Uiso   1.00
H1224  H     0.64887   0.90401   0.50302   0.00000  Uiso   1.00
H1225  H     0.60571   0.94087   0.98623   0.00000  Uiso   1.00
H1226  H     0.64819   0.92961   0.94893   0.00000  Uiso   1.00
H1227  H     0.37121   0.76339   0.72752   0.00000  Uiso   1.00
H1228  H     0.62880   0.90333   0.77235   0.00000  Uiso   1.00
H1229  H     0.62919   0.76328   0.72775   0.00000  Uiso   1.00
H1230  H     0.59745   0.87243   0.54526   0.00000  Uiso   1.00
H1231  H     0.37082   0.90347   0.77202   0.00000  Uiso   1.00
H1232  H     0.55482   0.70881   0.78937   0.00000  Uiso   1.00
H1233  H     0.44527   0.95783   0.71048   0.00000  Uiso   1.00
H1234  H     0.44533   0.70874   0.71038   0.00000  Uiso   1.00
H1235  H     0.55506   0.95794   0.78889   0.00000  Uiso   1.00
H1236  H     0.55622   0.93752   0.91935   0.00000  Uiso   1.00
H1237  H     0.52689   0.93228   0.86776   0.00000  Uiso   1.00
H1238  H     0.58215   0.94159   0.86644   0.00000  Uiso   1.00
H1239  H     0.39492   0.85961   0.59621   0.00000  Uiso   1.00
H1240  H     0.41859   0.86383   0.65149   0.00000  Uiso   1.00
H1241  H     0.37411   0.82844   0.64236   0.00000  Uiso   1.00
H1242  H     0.44361   0.79779   0.88736   0.00000  Uiso   1.00
N1243  N     0.50000   0.95240   0.75000   0.00000  Uiso   1.00
N1244  N     0.50000   0.71427   0.75000   0.00000  Uiso   1.00
O1245  O     0.43892   0.87154   0.74999   0.00000  Uiso   1.00
O1246  O     0.42906   0.80284   0.61740   0.00000  Uiso   1.00
O1247  O     0.39652   0.77791   0.54306   0.00000  Uiso   1.00
O1248  O     0.60819   0.87605   0.95625   0.00000  Uiso   1.00
O1249  O     0.56108   0.79513   0.75000   0.00000  Uiso   1.00
O1250  O     0.56108   0.87154   0.75000   0.00000  Uiso   1.00
O1251  O     0.43892   0.79513   0.74999   0.00000  Uiso   1.00
O1252  O     0.49999   0.87156   0.68392   0.00000  Uiso   1.00
O1253  O     0.50001   0.79511   0.81607   0.00000  Uiso   1.00
O1254  O     0.50001   0.87156   0.81607   0.00000  Uiso   1.00
O1255  O     0.49999   0.79511   0.68392   0.00000  Uiso   1.00
O1256  O     0.56505   0.87688   0.88335   0.00000  Uiso   1.00
Zn1257 Zn    0.50000   0.88437   0.75000   0.00000  Uiso   1.00
Zn1258 Zn    0.50000   0.78229   0.75000   0.00000  Uiso   1.00
C1259  C     0.75331   0.83338   0.74996   0.00000  Uiso   1.00
C1260  C     0.70917   0.83342   0.74985   0.00000  Uiso   1.00
C1261  C     0.86379   0.69066   0.77186   0.00000  Uiso   1.00
C1262  C     0.80291   0.97600   0.72806   0.00000  Uiso   1.00
C1263  C     0.80294   0.69062   0.72802   0.00000  Uiso   1.00
C1264  C     0.86386   0.97606   0.77173   0.00000  Uiso   1.00
C1265  C     0.83295   0.83321   0.66358   0.00000  Uiso   1.00
C1266  C     0.83409   0.83350   0.83653   0.00000  Uiso   1.00
C1267  C     0.86757   0.85492   0.90732   0.00000  Uiso   1.00
C1268  C     0.79668   0.81736   0.59328   0.00000  Uiso   1.00
C1269  C     0.83481   0.83387   0.88428   0.00000  Uiso   1.00
C1270  C     0.91336   0.83329   0.75007   0.00000  Uiso   1.00
C1271  C     0.83206   0.83300   0.61602   0.00000  Uiso   1.00
C1272  C     0.80215   0.81307   0.90641   0.00000  Uiso   1.00
C1273  C     0.86709   0.84841   0.59388   0.00000  Uiso   1.00
C1274  C     0.80090   0.81374   0.95263   0.00000  Uiso   1.00
C1275  C     0.86796   0.84822   0.54769   0.00000  Uiso   1.00
C1276  C     0.83452   0.83238   0.97685   0.00000  Uiso   1.00
C1277  C     0.83323   0.83197   0.52356   0.00000  Uiso   1.00
C1278  C     0.86945   0.85107   0.95424   0.00000  Uiso   1.00
C1279  C     0.79744   0.81520   0.54622   0.00000  Uiso   1.00
C1280  C     0.76651   0.79557   0.97460   0.00000  Uiso   1.00
C1281  C     0.76358   0.79736   0.52133   0.00000  Uiso   1.00
C1282  C     0.90366   0.86311   0.52569   0.00000  Uiso   1.00
C1283  C     0.89017   0.92392   0.88455   0.00000  Uiso   1.00
C1284  C     0.73678   0.84064   0.62702   0.00000  Uiso   1.00
C1285  C     0.69194   0.79693   0.52785   0.00000  Uiso   1.00
C1286  C     0.96150   0.91428   0.97502   0.00000  Uiso   1.00
C1287  C     0.90487   0.86539   0.97883   0.00000  Uiso   1.00
C1288  C     0.68813   0.79392   0.73756   0.00000  Uiso   1.00
C1289  C     0.97855   0.87279   0.76233   0.00000  Uiso   1.00
C1290  C     0.97877   0.79385   0.73767   0.00000  Uiso   1.00
C1291  C     0.68790   0.87288   0.76215   0.00000  Uiso   1.00
C1292  C     0.95750   0.83328   0.75008   0.00000  Uiso   1.00
H1293  H     0.74178   0.77997   0.95526   0.00000  Uiso   1.00
H1294  H     0.89382   0.86031   0.61292   0.00000  Uiso   1.00
H1295  H     0.68132   0.77977   0.99670   0.00000  Uiso   1.00
H1296  H     0.69404   0.83419   0.52265   0.00000  Uiso   1.00
H1297  H     0.66774   0.79126   0.55373   0.00000  Uiso   1.00
H1298  H     0.98221   0.90401   0.50302   0.00000  Uiso   1.00
H1299  H     0.93904   0.94087   0.98623   0.00000  Uiso   1.00
H1300  H     0.98153   0.92961   0.94893   0.00000  Uiso   1.00
H1301  H     0.70455   0.76339   0.72752   0.00000  Uiso   1.00
H1302  H     0.96213   0.90333   0.77235   0.00000  Uiso   1.00
H1303  H     0.96252   0.76328   0.72775   0.00000  Uiso   1.00
H1304  H     0.93078   0.87243   0.54526   0.00000  Uiso   1.00
H1305  H     0.70415   0.90347   0.77202   0.00000  Uiso   1.00
H1306  H     0.88815   0.70881   0.78937   0.00000  Uiso   1.00
H1307  H     0.77861   0.95783   0.71048   0.00000  Uiso   1.00
H1308  H     0.77867   0.70874   0.71038   0.00000  Uiso   1.00
H1309  H     0.88839   0.95794   0.78889   0.00000  Uiso   1.00
H1310  H     0.88956   0.93752   0.91935   0.00000  Uiso   1.00
H1311  H     0.86022   0.93228   0.86776   0.00000  Uiso   1.00
H1312  H     0.91548   0.94159   0.86644   0.00000  Uiso   1.00
H1313  H     0.72825   0.85961   0.59621   0.00000  Uiso   1.00
H1314  H     0.75192   0.86383   0.65149   0.00000  Uiso   1.00
H1315  H     0.70744   0.82844   0.64236   0.00000  Uiso   1.00
H1316  H     0.77695   0.79779   0.88736   0.00000  Uiso   1.00
N1317  N     0.83333   0.95240   0.75000   0.00000  Uiso   1.00
N1318  N     0.83333   0.71427   0.75000   0.00000  Uiso   1.00
O1319  O     0.77226   0.87154   0.74999   0.00000  Uiso   1.00
O1320  O     0.76239   0.80284   0.61740   0.00000  Uiso   1.00
O1321  O     0.72985   0.77791   0.54306   0.00000  Uiso   1.00
O1322  O     0.94152   0.87605   0.95625   0.00000  Uiso   1.00
O1323  O     0.89441   0.79513   0.75000   0.00000  Uiso   1.00
O1324  O     0.89441   0.87154   0.75000   0.00000  Uiso   1.00
O1325  O     0.77226   0.79513   0.74999   0.00000  Uiso   1.00
O1326  O     0.83333   0.87156   0.68392   0.00000  Uiso   1.00
O1327  O     0.83334   0.79511   0.81607   0.00000  Uiso   1.00
O1328  O     0.83334   0.87156   0.81607   0.00000  Uiso   1.00
O1329  O     0.83333   0.79511   0.68392   0.00000  Uiso   1.00
O1330  O     0.89838   0.87688   0.88335   0.00000  Uiso   1.00
Zn1331 Zn    0.83333   0.88437   0.75000   0.00000  Uiso   1.00
Zn1332 Zn    0.83333   0.78229   0.75000   0.00000  Uiso   1.00
loop_
_geom_bond_atom_site_label_1
_geom_bond_atom_site_label_2
_geom_bond_distance
_geom_bond_site_symmetry_2
_ccdc_geom_bond_type
C1     O67     1.281   .     A
C1     C2      1.416   .     S
C1     O61     1.282   .     A
C2     C30     1.397   .     A
C2     C33     1.396   .     A
C3     N60     1.366   .     A
C3     H48     1.082   .     S
C3     C450    1.416   1_545 S
C4     H49     1.082   .     S
C4     N59     1.366   .     A
C4     C227    1.416   .     S
C5     H50     1.082   .     S
C5     N60     1.366   .     A
C5     C448    1.416   1_545 S
C6     H51     1.081   .     S
C6     N59     1.366   .     A
C6     C225    1.416   .     S
C7     O71     1.282   .     A
C7     C13     1.420   .     S
C7     O68     1.282   .     A
C8     O70     1.282   .     A
C8     O69     1.285   .     A
C8     C11     1.426   .     S
C9     C20     1.407   .     A
C9     O72     1.386   .     S
C9     C11     1.401   .     A
C10    O62     1.386   .     S
C10    C21     1.406   .     A
C10    C13     1.400   .     A
C11    C14     1.386   .     A
C12    O65     1.282   .     A
C12    C34     1.416   .     S
C12    O66     1.281   .     A
C13    C15     1.384   .     A
C14    H58     1.086   .     S
C14    C16     1.380   .     A
C15    C17     1.379   .     A
C15    H36     1.086   .     S
C16    C18     1.410   .     A
C16    C22     1.394   .     A
C17    C24     1.394   .     A
C17    C19     1.410   .     A
C18    C20     1.423   .     A
C18    C685    1.395   .     S
C19    C21     1.425   .     A
C19    C684    1.395   1_554 S
C20    C29     1.417   .     A
C21    C23     1.417   .     A
C22    H35     1.083   .     S
C22    C689    1.399   .     S
C23    O63     1.389   .     S
C23    C688    1.399   1_554 S
C24    H46     1.083   .     S
C24    C695    1.401   1_554 S
C25    H52     1.112   .     S
C25    O72     1.413   .     S
C25    H53     1.111   .     S
C25    H54     1.109   .     S
C26    O62     1.412   .     S
C26    H55     1.113   .     S
C26    H57     1.109   .     S
C26    H56     1.111   .     S
C27    H39     1.109   .     S
C27    O63     1.414   .     S
C27    H38     1.115   .     S
C27    H703    1.110   1_554 S
C28    O64     1.413   .     S
C28    H42     1.109   .     S
C28    H41     1.114   .     S
C28    H706    1.110   .     S
C29    O64     1.393   .     S
C29    C690    1.401   .     S
C30    H43     1.084   .     S
C30    C180    1.369   1_455 S
C31    H44     1.084   .     S
C31    C34     1.397   .     A
C31    C107    1.369   .     S
C32    H45     1.084   .     S
C32    C34     1.396   .     A
C32    C104    1.369   .     S
C33    H47     1.084   .     S
C33    C179    1.369   1_455 S
H37    C693    1.110   .     S
H40    C694    1.110   1_554 S
N59    Zn73    2.009   .     S
N60    Zn74    2.009   .     S
O61    Zn73    1.997   .     S
O65    Zn74    1.997   .     S
O66    Zn73    1.994   .     S
O67    Zn74    1.994   .     S
O68    Zn73    2.006   .     S
O69    Zn74    2.006   .     S
O70    Zn73    2.010   .     S
O71    Zn74    2.010   .     S
C75    O141    1.281   .     A
C75    C76     1.416   .     S
C75    O135    1.282   .     A
C76    C104    1.397   .     A
C76    C107    1.396   .     A
C77    N134    1.366   .     A
C77    H122    1.082   .     S
C77    C524    1.416   1_545 S
C78    H123    1.082   .     S
C78    N133    1.366   .     A
C78    C301    1.416   .     S
C79    H124    1.082   .     S
C79    N134    1.366   .     A
C79    C522    1.416   1_545 S
C80    H125    1.081   .     S
C80    N133    1.366   .     A
C80    C299    1.416   .     S
C81    O145    1.282   .     A
C81    C87     1.420   .     S
C81    O142    1.282   .     A
C82    O144    1.282   .     A
C82    O143    1.285   .     A
C82    C85     1.426   .     S
C83    C94     1.407   .     A
C83    O146    1.386   .     S
C83    C85     1.401   .     A
C84    O136    1.386   .     S
C84    C95     1.406   .     A
C84    C87     1.400   .     A
C85    C88     1.386   .     A
C86    O139    1.282   .     A
C86    C108    1.416   .     S
C86    O140    1.281   .     A
C87    C89     1.384   .     A
C88    H132    1.086   .     S
C88    C90     1.380   .     A
C89    C91     1.379   .     A
C89    H110    1.086   .     S
C90    C92     1.410   .     A
C90    C96     1.394   .     A
C91    C98     1.394   .     A
C91    C93     1.410   .     A
C92    C94     1.423   .     A
C92    C759    1.395   .     S
C93    C95     1.425   .     A
C93    C758    1.395   1_554 S
C94    C103    1.417   .     A
C95    C97     1.417   .     A
C96    H109    1.083   .     S
C96    C763    1.399   .     S
C97    O137    1.389   .     S
C97    C762    1.399   1_554 S
C98    H120    1.083   .     S
C98    C769    1.401   1_554 S
C99    H126    1.112   .     S
C99    O146    1.413   .     S
C99    H127    1.111   .     S
C99    H128    1.109   .     S
C100   O136    1.412   .     S
C100   H129    1.113   .     S
C100   H131    1.109   .     S
C100   H130    1.111   .     S
C101   H113    1.109   .     S
C101   O137    1.414   .     S
C101   H112    1.115   .     S
C101   H777    1.110   1_554 S
C102   O138    1.413   .     S
C102   H116    1.109   .     S
C102   H115    1.114   .     S
C102   H780    1.110   .     S
C103   O138    1.393   .     S
C103   C764    1.401   .     S
C104   H117    1.084   .     S
C105   H118    1.084   .     S
C105   C108    1.397   .     A
C105   C181    1.369   .     S
C106   H119    1.084   .     S
C106   C108    1.396   .     A
C106   C178    1.369   .     S
C107   H121    1.084   .     S
H111   C767    1.110   .     S
H114   C768    1.110   1_554 S
N133   Zn147   2.009   .     S
N134   Zn148   2.009   .     S
O135   Zn147   1.997   .     S
O139   Zn148   1.997   .     S
O140   Zn147   1.994   .     S
O141   Zn148   1.994   .     S
O142   Zn147   2.006   .     S
O143   Zn148   2.006   .     S
O144   Zn147   2.010   .     S
O145   Zn148   2.010   .     S
C149   O215    1.281   .     A
C149   C150    1.416   .     S
C149   O209    1.282   .     A
C150   C178    1.397   .     A
C150   C181    1.396   .     A
C151   N208    1.366   .     A
C151   H196    1.082   .     S
C151   C598    1.416   1_545 S
C152   H197    1.082   .     S
C152   N207    1.366   .     A
C152   C375    1.416   .     S
C153   H198    1.082   .     S
C153   N208    1.366   .     A
C153   C596    1.416   1_545 S
C154   H199    1.081   .     S
C154   N207    1.366   .     A
C154   C373    1.416   .     S
C155   O219    1.282   .     A
C155   C161    1.420   .     S
C155   O216    1.282   .     A
C156   O218    1.282   .     A
C156   O217    1.285   .     A
C156   C159    1.426   .     S
C157   C168    1.407   .     A
C157   O220    1.386   .     S
C157   C159    1.401   .     A
C158   O210    1.386   .     S
C158   C169    1.406   .     A
C158   C161    1.400   .     A
C159   C162    1.386   .     A
C160   O213    1.282   .     A
C160   C182    1.416   .     S
C160   O214    1.281   .     A
C161   C163    1.384   .     A
C162   H206    1.086   .     S
C162   C164    1.380   .     A
C163   C165    1.379   .     A
C163   H184    1.086   .     S
C164   C166    1.410   .     A
C164   C170    1.394   .     A
C165   C172    1.394   .     A
C165   C167    1.410   .     A
C166   C168    1.423   .     A
C166   C833    1.395   .     S
C167   C169    1.425   .     A
C167   C832    1.395   1_554 S
C168   C177    1.417   .     A
C169   C171    1.417   .     A
C170   H183    1.083   .     S
C170   C837    1.399   .     S
C171   O211    1.389   .     S
C171   C836    1.399   1_554 S
C172   H194    1.083   .     S
C172   C843    1.401   1_554 S
C173   H200    1.112   .     S
C173   O220    1.413   .     S
C173   H201    1.111   .     S
C173   H202    1.109   .     S
C174   O210    1.412   .     S
C174   H203    1.113   .     S
C174   H205    1.109   .     S
C174   H204    1.111   .     S
C175   H187    1.109   .     S
C175   O211    1.414   .     S
C175   H186    1.115   .     S
C175   H851    1.110   1_554 S
C176   O212    1.413   .     S
C176   H190    1.109   .     S
C176   H189    1.114   .     S
C176   H854    1.110   .     S
C177   O212    1.393   .     S
C177   C838    1.401   .     S
C178   H191    1.084   .     S
C179   H192    1.084   .     S
C179   C182    1.397   .     A
C179   C33     1.369   1_655 S
C180   H193    1.084   .     S
C180   C182    1.396   .     A
C180   C30     1.369   1_655 S
C181   H195    1.084   .     S
H185   C841    1.110   .     S
H188   C842    1.110   1_554 S
N207   Zn221   2.009   .     S
N208   Zn222   2.009   .     S
O209   Zn221   1.997   .     S
O213   Zn222   1.997   .     S
O214   Zn221   1.994   .     S
O215   Zn222   1.994   .     S
O216   Zn221   2.006   .     S
O217   Zn222   2.006   .     S
O218   Zn221   2.010   .     S
O219   Zn222   2.010   .     S
C223   O289    1.281   .     A
C223   C224    1.416   .     S
C223   O283    1.282   .     A
C224   C252    1.397   .     A
C224   C255    1.396   .     A
C225   N282    1.366   .     A
C225   H270    1.082   .     S
C226   H271    1.082   .     S
C226   N281    1.366   .     A
C226   C449    1.416   .     S
C227   H272    1.082   .     S
C227   N282    1.366   .     A
C228   H273    1.081   .     S
C228   N281    1.366   .     A
C228   C447    1.416   .     S
C229   O293    1.282   .     A
C229   C235    1.420   .     S
C229   O290    1.282   .     A
C230   O292    1.282   .     A
C230   O291    1.285   .     A
C230   C233    1.426   .     S
C231   C242    1.407   .     A
C231   O294    1.386   .     S
C231   C233    1.401   .     A
C232   O284    1.386   .     S
C232   C243    1.406   .     A
C232   C235    1.400   .     A
C233   C236    1.386   .     A
C234   O287    1.282   .     A
C234   C256    1.416   .     S
C234   O288    1.281   .     A
C235   C237    1.384   .     A
C236   H280    1.086   .     S
C236   C238    1.380   .     A
C237   C239    1.379   .     A
C237   H258    1.086   .     S
C238   C240    1.410   .     A
C238   C244    1.394   .     A
C239   C246    1.394   .     A
C239   C241    1.410   .     A
C240   C242    1.423   .     A
C240   C907    1.395   .     S
C241   C243    1.425   .     A
C241   C906    1.395   1_554 S
C242   C251    1.417   .     A
C243   C245    1.417   .     A
C244   H257    1.083   .     S
C244   C911    1.399   .     S
C245   O285    1.389   .     S
C245   C910    1.399   1_554 S
C246   H268    1.083   .     S
C246   C917    1.401   1_554 S
C247   H274    1.112   .     S
C247   O294    1.413   .     S
C247   H275    1.111   .     S
C247   H276    1.109   .     S
C248   O284    1.412   .     S
C248   H277    1.113   .     S
C248   H279    1.109   .     S
C248   H278    1.111   .     S
C249   H261    1.109   .     S
C249   O285    1.414   .     S
C249   H260    1.115   .     S
C249   H925    1.110   1_554 S
C250   O286    1.413   .     S
C250   H264    1.109   .     S
C250   H263    1.114   .     S
C250   H928    1.110   .     S
C251   O286    1.393   .     S
C251   C912    1.401   .     S
C252   H265    1.084   .     S
C252   C402    1.369   1_455 S
C253   H266    1.084   .     S
C253   C256    1.397   .     A
C253   C329    1.369   .     S
C254   H267    1.084   .     S
C254   C256    1.396   .     A
C254   C326    1.369   .     S
C255   H269    1.084   .     S
C255   C401    1.369   1_455 S
H259   C915    1.110   .     S
H262   C916    1.110   1_554 S
N281   Zn295   2.009   .     S
N282   Zn296   2.009   .     S
O283   Zn295   1.997   .     S
O287   Zn296   1.997   .     S
O288   Zn295   1.994   .     S
O289   Zn296   1.994   .     S
O290   Zn295   2.006   .     S
O291   Zn296   2.006   .     S
O292   Zn295   2.010   .     S
O293   Zn296   2.010   .     S
C297   O363    1.281   .     A
C297   C298    1.416   .     S
C297   O357    1.282   .     A
C298   C326    1.397   .     A
C298   C329    1.396   .     A
C299   N356    1.366   .     A
C299   H344    1.082   .     S
C300   H345    1.082   .     S
C300   N355    1.366   .     A
C300   C523    1.416   .     S
C301   H346    1.082   .     S
C301   N356    1.366   .     A
C302   H347    1.081   .     S
C302   N355    1.366   .     A
C302   C521    1.416   .     S
C303   O367    1.282   .     A
C303   C309    1.420   .     S
C303   O364    1.282   .     A
C304   O366    1.282   .     A
C304   O365    1.285   .     A
C304   C307    1.426   .     S
C305   C316    1.407   .     A
C305   O368    1.386   .     S
C305   C307    1.401   .     A
C306   O358    1.386   .     S
C306   C317    1.406   .     A
C306   C309    1.400   .     A
C307   C310    1.386   .     A
C308   O361    1.282   .     A
C308   C330    1.416   .     S
C308   O362    1.281   .     A
C309   C311    1.384   .     A
C310   H354    1.086   .     S
C310   C312    1.380   .     A
C311   C313    1.379   .     A
C311   H332    1.086   .     S
C312   C314    1.410   .     A
C312   C318    1.394   .     A
C313   C320    1.394   .     A
C313   C315    1.410   .     A
C314   C316    1.423   .     A
C314   C981    1.395   .     S
C315   C317    1.425   .     A
C315   C980    1.395   1_554 S
C316   C325    1.417   .     A
C317   C319    1.417   .     A
C318   H331    1.083   .     S
C318   C985    1.399   .     S
C319   O359    1.389   .     S
C319   C984    1.399   1_554 S
C320   H342    1.083   .     S
C320   C991    1.401   1_554 S
C321   H348    1.112   .     S
C321   O368    1.413   .     S
C321   H349    1.111   .     S
C321   H350    1.109   .     S
C322   O358    1.412   .     S
C322   H351    1.113   .     S
C322   H353    1.109   .     S
C322   H352    1.111   .     S
C323   H335    1.109   .     S
C323   O359    1.414   .     S
C323   H334    1.115   .     S
C323   H999    1.110   1_554 S
C324   O360    1.413   .     S
C324   H338    1.109   .     S
C324   H337    1.114   .     S
C324   H1002   1.110   .     S
C325   O360    1.393   .     S
C325   C986    1.401   .     S
C326   H339    1.084   .     S
C327   H340    1.084   .     S
C327   C330    1.397   .     A
C327   C403    1.369   .     S
C328   H341    1.084   .     S
C328   C330    1.396   .     A
C328   C400    1.369   .     S
C329   H343    1.084   .     S
H333   C989    1.110   .     S
H336   C990    1.110   1_554 S
N355   Zn369   2.009   .     S
N356   Zn370   2.009   .     S
O357   Zn369   1.997   .     S
O361   Zn370   1.997   .     S
O362   Zn369   1.994   .     S
O363   Zn370   1.994   .     S
O364   Zn369   2.006   .     S
O365   Zn370   2.006   .     S
O366   Zn369   2.010   .     S
O367   Zn370   2.010   .     S
C371   O437    1.281   .     A
C371   C372    1.416   .     S
C371   O431    1.282   .     A
C372   C400    1.397   .     A
C372   C403    1.396   .     A
C373   N430    1.366   .     A
C373   H418    1.082   .     S
C374   H419    1.082   .     S
C374   N429    1.366   .     A
C374   C597    1.416   .     S
C375   H420    1.082   .     S
C375   N430    1.366   .     A
C376   H421    1.081   .     S
C376   N429    1.366   .     A
C376   C595    1.416   .     S
C377   O441    1.282   .     A
C377   C383    1.420   .     S
C377   O438    1.282   .     A
C378   O440    1.282   .     A
C378   O439    1.285   .     A
C378   C381    1.426   .     S
C379   C390    1.407   .     A
C379   O442    1.386   .     S
C379   C381    1.401   .     A
C380   O432    1.386   .     S
C380   C391    1.406   .     A
C380   C383    1.400   .     A
C381   C384    1.386   .     A
C382   O435    1.282   .     A
C382   C404    1.416   .     S
C382   O436    1.281   .     A
C383   C385    1.384   .     A
C384   H428    1.086   .     S
C384   C386    1.380   .     A
C385   C387    1.379   .     A
C385   H406    1.086   .     S
C386   C388    1.410   .     A
C386   C392    1.394   .     A
C387   C394    1.394   .     A
C387   C389    1.410   .     A
C388   C390    1.423   .     A
C388   C1055   1.395   .     S
C389   C391    1.425   .     A
C389   C1054   1.395   1_554 S
C390   C399    1.417   .     A
C391   C393    1.417   .     A
C392   H405    1.083   .     S
C392   C1059   1.399   .     S
C393   O433    1.389   .     S
C393   C1058   1.399   1_554 S
C394   H416    1.083   .     S
C394   C1065   1.401   1_554 S
C395   H422    1.112   .     S
C395   O442    1.413   .     S
C395   H423    1.111   .     S
C395   H424    1.109   .     S
C396   O432    1.412   .     S
C396   H425    1.113   .     S
C396   H427    1.109   .     S
C396   H426    1.111   .     S
C397   H409    1.109   .     S
C397   O433    1.414   .     S
C397   H408    1.115   .     S
C397   H1073   1.110   1_554 S
C398   O434    1.413   .     S
C398   H412    1.109   .     S
C398   H411    1.114   .     S
C398   H1076   1.110   .     S
C399   O434    1.393   .     S
C399   C1060   1.401   .     S
C400   H413    1.084   .     S
C401   H414    1.084   .     S
C401   C404    1.397   .     A
C401   C255    1.369   1_655 S
C402   H415    1.084   .     S
C402   C404    1.396   .     A
C402   C252    1.369   1_655 S
C403   H417    1.084   .     S
H407   C1063   1.110   .     S
H410   C1064   1.110   1_554 S
N429   Zn443   2.009   .     S
N430   Zn444   2.009   .     S
O431   Zn443   1.997   .     S
O435   Zn444   1.997   .     S
O436   Zn443   1.994   .     S
O437   Zn444   1.994   .     S
O438   Zn443   2.006   .     S
O439   Zn444   2.006   .     S
O440   Zn443   2.010   .     S
O441   Zn444   2.010   .     S
C445   O511    1.281   .     A
C445   C446    1.416   .     S
C445   O505    1.282   .     A
C446   C474    1.397   .     A
C446   C477    1.396   .     A
C447   N504    1.366   .     A
C447   H492    1.082   .     S
C448   H493    1.082   .     S
C448   N503    1.366   .     A
C448   C5      1.416   1_565 S
C449   H494    1.082   .     S
C449   N504    1.366   .     A
C450   H495    1.081   .     S
C450   N503    1.366   .     A
C450   C3      1.416   1_565 S
C451   O515    1.282   .     A
C451   C457    1.420   .     S
C451   O512    1.282   .     A
C452   O514    1.282   .     A
C452   O513    1.285   .     A
C452   C455    1.426   .     S
C453   C464    1.407   .     A
C453   O516    1.386   .     S
C453   C455    1.401   .     A
C454   O506    1.386   .     S
C454   C465    1.406   .     A
C454   C457    1.400   .     A
C455   C458    1.386   .     A
C456   O509    1.282   .     A
C456   C478    1.416   .     S
C456   O510    1.281   .     A
C457   C459    1.384   .     A
C458   H502    1.086   .     S
C458   C460    1.380   .     A
C459   C461    1.379   .     A
C459   H480    1.086   .     S
C460   C462    1.410   .     A
C460   C466    1.394   .     A
C461   C468    1.394   .     A
C461   C463    1.410   .     A
C462   C464    1.423   .     A
C462   C1129   1.395   .     S
C463   C465    1.425   .     A
C463   C1128   1.395   1_554 S
C464   C473    1.417   .     A
C465   C467    1.417   .     A
C466   H479    1.083   .     S
C466   C1133   1.399   .     S
C467   O507    1.389   .     S
C467   C1132   1.399   1_554 S
C468   H490    1.083   .     S
C468   C1139   1.401   1_554 S
C469   H496    1.112   .     S
C469   O516    1.413   .     S
C469   H497    1.111   .     S
C469   H498    1.109   .     S
C470   O506    1.412   .     S
C470   H499    1.113   .     S
C470   H501    1.109   .     S
C470   H500    1.111   .     S
C471   H483    1.109   .     S
C471   O507    1.414   .     S
C471   H482    1.115   .     S
C471   H1147   1.110   1_554 S
C472   O508    1.413   .     S
C472   H486    1.109   .     S
C472   H485    1.114   .     S
C472   H1150   1.110   .     S
C473   O508    1.393   .     S
C473   C1134   1.401   .     S
C474   H487    1.084   .     S
C474   C624    1.369   1_455 S
C475   H488    1.084   .     S
C475   C478    1.397   .     A
C475   C551    1.369   .     S
C476   H489    1.084   .     S
C476   C478    1.396   .     A
C476   C548    1.369   .     S
C477   H491    1.084   .     S
C477   C623    1.369   1_455 S
H481   C1137   1.110   .     S
H484   C1138   1.110   1_554 S
N503   Zn517   2.009   .     S
N504   Zn518   2.009   .     S
O505   Zn517   1.997   .     S
O509   Zn518   1.997   .     S
O510   Zn517   1.994   .     S
O511   Zn518   1.994   .     S
O512   Zn517   2.006   .     S
O513   Zn518   2.006   .     S
O514   Zn517   2.010   .     S
O515   Zn518   2.010   .     S
C519   O585    1.281   .     A
C519   C520    1.416   .     S
C519   O579    1.282   .     A
C520   C548    1.397   .     A
C520   C551    1.396   .     A
C521   N578    1.366   .     A
C521   H566    1.082   .     S
C522   H567    1.082   .     S
C522   N577    1.366   .     A
C522   C79     1.416   1_565 S
C523   H568    1.082   .     S
C523   N578    1.366   .     A
C524   H569    1.081   .     S
C524   N577    1.366   .     A
C524   C77     1.416   1_565 S
C525   O589    1.282   .     A
C525   C531    1.420   .     S
C525   O586    1.282   .     A
C526   O588    1.282   .     A
C526   O587    1.285   .     A
C526   C529    1.426   .     S
C527   C538    1.407   .     A
C527   O590    1.386   .     S
C527   C529    1.401   .     A
C528   O580    1.386   .     S
C528   C539    1.406   .     A
C528   C531    1.400   .     A
C529   C532    1.386   .     A
C530   O583    1.282   .     A
C530   C552    1.416   .     S
C530   O584    1.281   .     A
C531   C533    1.384   .     A
C532   H576    1.086   .     S
C532   C534    1.380   .     A
C533   C535    1.379   .     A
C533   H554    1.086   .     S
C534   C536    1.410   .     A
C534   C540    1.394   .     A
C535   C542    1.394   .     A
C535   C537    1.410   .     A
C536   C538    1.423   .     A
C536   C1203   1.395   .     S
C537   C539    1.425   .     A
C537   C1202   1.395   1_554 S
C538   C547    1.417   .     A
C539   C541    1.417   .     A
C540   H553    1.083   .     S
C540   C1207   1.399   .     S
C541   O581    1.389   .     S
C541   C1206   1.399   1_554 S
C542   H564    1.083   .     S
C542   C1213   1.401   1_554 S
C543   H570    1.112   .     S
C543   O590    1.413   .     S
C543   H571    1.111   .     S
C543   H572    1.109   .     S
C544   O580    1.412   .     S
C544   H573    1.113   .     S
C544   H575    1.109   .     S
C544   H574    1.111   .     S
C545   H557    1.109   .     S
C545   O581    1.414   .     S
C545   H556    1.115   .     S
C545   H1221   1.110   1_554 S
C546   O582    1.413   .     S
C546   H560    1.109   .     S
C546   H559    1.114   .     S
C546   H1224   1.110   .     S
C547   O582    1.393   .     S
C547   C1208   1.401   .     S
C548   H561    1.084   .     S
C549   H562    1.084   .     S
C549   C552    1.397   .     A
C549   C625    1.369   .     S
C550   H563    1.084   .     S
C550   C552    1.396   .     A
C550   C622    1.369   .     S
C551   H565    1.084   .     S
H555   C1211   1.110   .     S
H558   C1212   1.110   1_554 S
N577   Zn591   2.009   .     S
N578   Zn592   2.009   .     S
O579   Zn591   1.997   .     S
O583   Zn592   1.997   .     S
O584   Zn591   1.994   .     S
O585   Zn592   1.994   .     S
O586   Zn591   2.006   .     S
O587   Zn592   2.006   .     S
O588   Zn591   2.010   .     S
O589   Zn592   2.010   .     S
C593   O659    1.281   .     A
C593   C594    1.416   .     S
C593   O653    1.282   .     A
C594   C622    1.397   .     A
C594   C625    1.396   .     A
C595   N652    1.366   .     A
C595   H640    1.082   .     S
C596   H641    1.082   .     S
C596   N651    1.366   .     A
C596   C153    1.416   1_565 S
C597   H642    1.082   .     S
C597   N652    1.366   .     A
C598   H643    1.081   .     S
C598   N651    1.366   .     A
C598   C151    1.416   1_565 S
C599   O663    1.282   .     A
C599   C605    1.420   .     S
C599   O660    1.282   .     A
C600   O662    1.282   .     A
C600   O661    1.285   .     A
C600   C603    1.426   .     S
C601   C612    1.407   .     A
C601   O664    1.386   .     S
C601   C603    1.401   .     A
C602   O654    1.386   .     S
C602   C613    1.406   .     A
C602   C605    1.400   .     A
C603   C606    1.386   .     A
C604   O657    1.282   .     A
C604   C626    1.416   .     S
C604   O658    1.281   .     A
C605   C607    1.384   .     A
C606   H650    1.086   .     S
C606   C608    1.380   .     A
C607   C609    1.379   .     A
C607   H628    1.086   .     S
C608   C610    1.410   .     A
C608   C614    1.394   .     A
C609   C616    1.394   .     A
C609   C611    1.410   .     A
C610   C612    1.423   .     A
C610   C1277   1.395   .     S
C611   C613    1.425   .     A
C611   C1276   1.395   1_554 S
C612   C621    1.417   .     A
C613   C615    1.417   .     A
C614   H627    1.083   .     S
C614   C1281   1.399   .     S
C615   O655    1.389   .     S
C615   C1280   1.399   1_554 S
C616   H638    1.083   .     S
C616   C1287   1.401   1_554 S
C617   H644    1.112   .     S
C617   O664    1.413   .     S
C617   H645    1.111   .     S
C617   H646    1.109   .     S
C618   O654    1.412   .     S
C618   H647    1.113   .     S
C618   H649    1.109   .     S
C618   H648    1.111   .     S
C619   H631    1.109   .     S
C619   O655    1.414   .     S
C619   H630    1.115   .     S
C619   H1295   1.110   1_554 S
C620   O656    1.413   .     S
C620   H634    1.109   .     S
C620   H633    1.114   .     S
C620   H1298   1.110   .     S
C621   O656    1.393   .     S
C621   C1282   1.401   .     S
C622   H635    1.084   .     S
C623   H636    1.084   .     S
C623   C626    1.397   .     A
C623   C477    1.369   1_655 S
C624   H637    1.084   .     S
C624   C626    1.396   .     A
C624   C474    1.369   1_655 S
C625   H639    1.084   .     S
H629   C1285   1.110   .     S
H632   C1286   1.110   1_554 S
N651   Zn665   2.009   .     S
N652   Zn666   2.009   .     S
O653   Zn665   1.997   .     S
O657   Zn666   1.997   .     S
O658   Zn665   1.994   .     S
O659   Zn666   1.994   .     S
O660   Zn665   2.006   .     S
O661   Zn666   2.006   .     S
O662   Zn665   2.010   .     S
O663   Zn666   2.010   .     S
C667   O733    1.281   .     A
C667   C668    1.416   .     S
C667   O727    1.282   .     A
C668   C696    1.397   .     A
C668   C699    1.396   .     A
C669   N726    1.366   .     A
C669   H714    1.082   .     S
C669   C1116   1.416   1_545 S
C670   H715    1.082   .     S
C670   N725    1.366   .     A
C670   C893    1.416   .     S
C671   H716    1.082   .     S
C671   N726    1.366   .     A
C671   C1114   1.416   1_545 S
C672   H717    1.081   .     S
C672   N725    1.366   .     A
C672   C891    1.416   .     S
C673   O737    1.282   .     A
C673   C679    1.420   .     S
C673   O734    1.282   .     A
C674   O736    1.282   .     A
C674   O735    1.285   .     A
C674   C677    1.426   .     S
C675   C686    1.407   .     A
C675   O738    1.386   .     S
C675   C677    1.401   .     A
C676   O728    1.386   .     S
C676   C687    1.406   .     A
C676   C679    1.400   .     A
C677   C680    1.386   .     A
C678   O731    1.282   .     A
C678   C700    1.416   .     S
C678   O732    1.281   .     A
C679   C681    1.384   .     A
C680   H724    1.086   .     S
C680   C682    1.380   .     A
C681   C683    1.379   .     A
C681   H702    1.086   .     S
C682   C684    1.410   .     A
C682   C688    1.394   .     A
C683   C690    1.394   .     A
C683   C685    1.410   .     A
C684   C686    1.423   .     A
C684   C19     1.395   1_556 S
C685   C687    1.425   .     A
C686   C695    1.417   .     A
C687   C689    1.417   .     A
C688   H701    1.083   .     S
C688   C23     1.399   1_556 S
C689   O729    1.389   .     S
C690   H712    1.083   .     S
C691   H718    1.112   .     S
C691   O738    1.413   .     S
C691   H719    1.111   .     S
C691   H720    1.109   .     S
C692   O728    1.412   .     S
C692   H721    1.113   .     S
C692   H723    1.109   .     S
C692   H722    1.111   .     S
C693   H705    1.109   .     S
C693   O729    1.414   .     S
C693   H704    1.115   .     S
C694   O730    1.413   .     S
C694   H708    1.109   .     S
C694   H707    1.114   .     S
C694   H40     1.110   1_556 S
C695   O730    1.393   .     S
C695   C24     1.401   1_556 S
C696   H709    1.084   .     S
C696   C846    1.369   1_455 S
C697   H710    1.084   .     S
C697   C700    1.397   .     A
C697   C773    1.369   .     S
C698   H711    1.084   .     S
C698   C700    1.396   .     A
C698   C770    1.369   .     S
C699   H713    1.084   .     S
C699   C845    1.369   1_455 S
H703   C27     1.110   1_556 S
N725   Zn739   2.009   .     S
N726   Zn740   2.009   .     S
O727   Zn739   1.997   .     S
O731   Zn740   1.997   .     S
O732   Zn739   1.994   .     S
O733   Zn740   1.994   .     S
O734   Zn739   2.006   .     S
O735   Zn740   2.006   .     S
O736   Zn739   2.010   .     S
O737   Zn740   2.010   .     S
C741   O807    1.281   .     A
C741   C742    1.416   .     S
C741   O801    1.282   .     A
C742   C770    1.397   .     A
C742   C773    1.396   .     A
C743   N800    1.366   .     A
C743   H788    1.082   .     S
C743   C1190   1.416   1_545 S
C744   H789    1.082   .     S
C744   N799    1.366   .     A
C744   C967    1.416   .     S
C745   H790    1.082   .     S
C745   N800    1.366   .     A
C745   C1188   1.416   1_545 S
C746   H791    1.081   .     S
C746   N799    1.366   .     A
C746   C965    1.416   .     S
C747   O811    1.282   .     A
C747   C753    1.420   .     S
C747   O808    1.282   .     A
C748   O810    1.282   .     A
C748   O809    1.285   .     A
C748   C751    1.426   .     S
C749   C760    1.407   .     A
C749   O812    1.386   .     S
C749   C751    1.401   .     A
C750   O802    1.386   .     S
C750   C761    1.406   .     A
C750   C753    1.400   .     A
C751   C754    1.386   .     A
C752   O805    1.282   .     A
C752   C774    1.416   .     S
C752   O806    1.281   .     A
C753   C755    1.384   .     A
C754   H798    1.086   .     S
C754   C756    1.380   .     A
C755   C757    1.379   .     A
C755   H776    1.086   .     S
C756   C758    1.410   .     A
C756   C762    1.394   .     A
C757   C764    1.394   .     A
C757   C759    1.410   .     A
C758   C760    1.423   .     A
C758   C93     1.395   1_556 S
C759   C761    1.425   .     A
C760   C769    1.417   .     A
C761   C763    1.417   .     A
C762   H775    1.083   .     S
C762   C97     1.399   1_556 S
C763   O803    1.389   .     S
C764   H786    1.083   .     S
C765   H792    1.112   .     S
C765   O812    1.413   .     S
C765   H793    1.111   .     S
C765   H794    1.109   .     S
C766   O802    1.412   .     S
C766   H795    1.113   .     S
C766   H797    1.109   .     S
C766   H796    1.111   .     S
C767   H779    1.109   .     S
C767   O803    1.414   .     S
C767   H778    1.115   .     S
C768   O804    1.413   .     S
C768   H782    1.109   .     S
C768   H781    1.114   .     S
C768   H114    1.110   1_556 S
C769   O804    1.393   .     S
C769   C98     1.401   1_556 S
C770   H783    1.084   .     S
C771   H784    1.084   .     S
C771   C774    1.397   .     A
C771   C847    1.369   .     S
C772   H785    1.084   .     S
C772   C774    1.396   .     A
C772   C844    1.369   .     S
C773   H787    1.084   .     S
H777   C101    1.110   1_556 S
N799   Zn813   2.009   .     S
N800   Zn814   2.009   .     S
O801   Zn813   1.997   .     S
O805   Zn814   1.997   .     S
O806   Zn813   1.994   .     S
O807   Zn814   1.994   .     S
O808   Zn813   2.006   .     S
O809   Zn814   2.006   .     S
O810   Zn813   2.010   .     S
O811   Zn814   2.010   .     S
C815   O881    1.281   .     A
C815   C816    1.416   .     S
C815   O875    1.282   .     A
C816   C844    1.397   .     A
C816   C847    1.396   .     A
C817   N874    1.366   .     A
C817   H862    1.082   .     S
C817   C1264   1.416   1_545 S
C818   H863    1.082   .     S
C818   N873    1.366   .     A
C818   C1041   1.416   .     S
C819   H864    1.082   .     S
C819   N874    1.366   .     A
C819   C1262   1.416   1_545 S
C820   H865    1.081   .     S
C820   N873    1.366   .     A
C820   C1039   1.416   .     S
C821   O885    1.282   .     A
C821   C827    1.420   .     S
C821   O882    1.282   .     A
C822   O884    1.282   .     A
C822   O883    1.285   .     A
C822   C825    1.426   .     S
C823   C834    1.407   .     A
C823   O886    1.386   .     S
C823   C825    1.401   .     A
C824   O876    1.386   .     S
C824   C835    1.406   .     A
C824   C827    1.400   .     A
C825   C828    1.386   .     A
C826   O879    1.282   .     A
C826   C848    1.416   .     S
C826   O880    1.281   .     A
C827   C829    1.384   .     A
C828   H872    1.086   .     S
C828   C830    1.380   .     A
C829   C831    1.379   .     A
C829   H850    1.086   .     S
C830   C832    1.410   .     A
C830   C836    1.394   .     A
C831   C838    1.394   .     A
C831   C833    1.410   .     A
C832   C834    1.423   .     A
C832   C167    1.395   1_556 S
C833   C835    1.425   .     A
C834   C843    1.417   .     A
C835   C837    1.417   .     A
C836   H849    1.083   .     S
C836   C171    1.399   1_556 S
C837   O877    1.389   .     S
C838   H860    1.083   .     S
C839   H866    1.112   .     S
C839   O886    1.413   .     S
C839   H867    1.111   .     S
C839   H868    1.109   .     S
C840   O876    1.412   .     S
C840   H869    1.113   .     S
C840   H871    1.109   .     S
C840   H870    1.111   .     S
C841   H853    1.109   .     S
C841   O877    1.414   .     S
C841   H852    1.115   .     S
C842   O878    1.413   .     S
C842   H856    1.109   .     S
C842   H855    1.114   .     S
C842   H188    1.110   1_556 S
C843   O878    1.393   .     S
C843   C172    1.401   1_556 S
C844   H857    1.084   .     S
C845   H858    1.084   .     S
C845   C848    1.397   .     A
C845   C699    1.369   1_655 S
C846   H859    1.084   .     S
C846   C848    1.396   .     A
C846   C696    1.369   1_655 S
C847   H861    1.084   .     S
H851   C175    1.110   1_556 S
N873   Zn887   2.009   .     S
N874   Zn888   2.009   .     S
O875   Zn887   1.997   .     S
O879   Zn888   1.997   .     S
O880   Zn887   1.994   .     S
O881   Zn888   1.994   .     S
O882   Zn887   2.006   .     S
O883   Zn888   2.006   .     S
O884   Zn887   2.010   .     S
O885   Zn888   2.010   .     S
C889   O955    1.281   .     A
C889   C890    1.416   .     S
C889   O949    1.282   .     A
C890   C918    1.397   .     A
C890   C921    1.396   .     A
C891   N948    1.366   .     A
C891   H936    1.082   .     S
C892   H937    1.082   .     S
C892   N947    1.366   .     A
C892   C1115   1.416   .     S
C893   H938    1.082   .     S
C893   N948    1.366   .     A
C894   H939    1.081   .     S
C894   N947    1.366   .     A
C894   C1113   1.416   .     S
C895   O959    1.282   .     A
C895   C901    1.420   .     S
C895   O956    1.282   .     A
C896   O958    1.282   .     A
C896   O957    1.285   .     A
C896   C899    1.426   .     S
C897   C908    1.407   .     A
C897   O960    1.386   .     S
C897   C899    1.401   .     A
C898   O950    1.386   .     S
C898   C909    1.406   .     A
C898   C901    1.400   .     A
C899   C902    1.386   .     A
C900   O953    1.282   .     A
C900   C922    1.416   .     S
C900   O954    1.281   .     A
C901   C903    1.384   .     A
C902   H946    1.086   .     S
C902   C904    1.380   .     A
C903   C905    1.379   .     A
C903   H924    1.086   .     S
C904   C906    1.410   .     A
C904   C910    1.394   .     A
C905   C912    1.394   .     A
C905   C907    1.410   .     A
C906   C908    1.423   .     A
C906   C241    1.395   1_556 S
C907   C909    1.425   .     A
C908   C917    1.417   .     A
C909   C911    1.417   .     A
C910   H923    1.083   .     S
C910   C245    1.399   1_556 S
C911   O951    1.389   .     S
C912   H934    1.083   .     S
C913   H940    1.112   .     S
C913   O960    1.413   .     S
C913   H941    1.111   .     S
C913   H942    1.109   .     S
C914   O950    1.412   .     S
C914   H943    1.113   .     S
C914   H945    1.109   .     S
C914   H944    1.111   .     S
C915   H927    1.109   .     S
C915   O951    1.414   .     S
C915   H926    1.115   .     S
C916   O952    1.413   .     S
C916   H930    1.109   .     S
C916   H929    1.114   .     S
C916   H262    1.110   1_556 S
C917   O952    1.393   .     S
C917   C246    1.401   1_556 S
C918   H931    1.084   .     S
C918   C1068   1.369   1_455 S
C919   H932    1.084   .     S
C919   C922    1.397   .     A
C919   C995    1.369   .     S
C920   H933    1.084   .     S
C920   C922    1.396   .     A
C920   C992    1.369   .     S
C921   H935    1.084   .     S
C921   C1067   1.369   1_455 S
H925   C249    1.110   1_556 S
N947   Zn961   2.009   .     S
N948   Zn962   2.009   .     S
O949   Zn961   1.997   .     S
O953   Zn962   1.997   .     S
O954   Zn961   1.994   .     S
O955   Zn962   1.994   .     S
O956   Zn961   2.006   .     S
O957   Zn962   2.006   .     S
O958   Zn961   2.010   .     S
O959   Zn962   2.010   .     S
C963   O1029   1.281   .     A
C963   C964    1.416   .     S
C963   O1023   1.282   .     A
C964   C992    1.397   .     A
C964   C995    1.396   .     A
C965   N1022   1.366   .     A
C965   H1010   1.082   .     S
C966   H1011   1.082   .     S
C966   N1021   1.366   .     A
C966   C1189   1.416   .     S
C967   H1012   1.082   .     S
C967   N1022   1.366   .     A
C968   H1013   1.081   .     S
C968   N1021   1.366   .     A
C968   C1187   1.416   .     S
C969   O1033   1.282   .     A
C969   C975    1.420   .     S
C969   O1030   1.282   .     A
C970   O1032   1.282   .     A
C970   O1031   1.285   .     A
C970   C973    1.426   .     S
C971   C982    1.407   .     A
C971   O1034   1.386   .     S
C971   C973    1.401   .     A
C972   O1024   1.386   .     S
C972   C983    1.406   .     A
C972   C975    1.400   .     A
C973   C976    1.386   .     A
C974   O1027   1.282   .     A
C974   C996    1.416   .     S
C974   O1028   1.281   .     A
C975   C977    1.384   .     A
C976   H1020   1.086   .     S
C976   C978    1.380   .     A
C977   C979    1.379   .     A
C977   H998    1.086   .     S
C978   C980    1.410   .     A
C978   C984    1.394   .     A
C979   C986    1.394   .     A
C979   C981    1.410   .     A
C980   C982    1.423   .     A
C980   C315    1.395   1_556 S
C981   C983    1.425   .     A
C982   C991    1.417   .     A
C983   C985    1.417   .     A
C984   H997    1.083   .     S
C984   C319    1.399   1_556 S
C985   O1025   1.389   .     S
C986   H1008   1.083   .     S
C987   H1014   1.112   .     S
C987   O1034   1.413   .     S
C987   H1015   1.111   .     S
C987   H1016   1.109   .     S
C988   O1024   1.412   .     S
C988   H1017   1.113   .     S
C988   H1019   1.109   .     S
C988   H1018   1.111   .     S
C989   H1001   1.109   .     S
C989   O1025   1.414   .     S
C989   H1000   1.115   .     S
C990   O1026   1.413   .     S
C990   H1004   1.109   .     S
C990   H1003   1.114   .     S
C990   H336    1.110   1_556 S
C991   O1026   1.393   .     S
C991   C320    1.401   1_556 S
C992   H1005   1.084   .     S
C993   H1006   1.084   .     S
C993   C996    1.397   .     A
C993   C1069   1.369   .     S
C994   H1007   1.084   .     S
C994   C996    1.396   .     A
C994   C1066   1.369   .     S
C995   H1009   1.084   .     S
H999   C323    1.110   1_556 S
N1021  Zn1035  2.009   .     S
N1022  Zn1036  2.009   .     S
O1023  Zn1035  1.997   .     S
O1027  Zn1036  1.997   .     S
O1028  Zn1035  1.994   .     S
O1029  Zn1036  1.994   .     S
O1030  Zn1035  2.006   .     S
O1031  Zn1036  2.006   .     S
O1032  Zn1035  2.010   .     S
O1033  Zn1036  2.010   .     S
C1037  O1103   1.281   .     A
C1037  C1038   1.416   .     S
C1037  O1097   1.282   .     A
C1038  C1066   1.397   .     A
C1038  C1069   1.396   .     A
C1039  N1096   1.366   .     A
C1039  H1084   1.082   .     S
C1040  H1085   1.082   .     S
C1040  N1095   1.366   .     A
C1040  C1263   1.416   .     S
C1041  H1086   1.082   .     S
C1041  N1096   1.366   .     A
C1042  H1087   1.081   .     S
C1042  N1095   1.366   .     A
C1042  C1261   1.416   .     S
C1043  O1107   1.282   .     A
C1043  C1049   1.420   .     S
C1043  O1104   1.282   .     A
C1044  O1106   1.282   .     A
C1044  O1105   1.285   .     A
C1044  C1047   1.426   .     S
C1045  C1056   1.407   .     A
C1045  O1108   1.386   .     S
C1045  C1047   1.401   .     A
C1046  O1098   1.386   .     S
C1046  C1057   1.406   .     A
C1046  C1049   1.400   .     A
C1047  C1050   1.386   .     A
C1048  O1101   1.282   .     A
C1048  C1070   1.416   .     S
C1048  O1102   1.281   .     A
C1049  C1051   1.384   .     A
C1050  H1094   1.086   .     S
C1050  C1052   1.380   .     A
C1051  C1053   1.379   .     A
C1051  H1072   1.086   .     S
C1052  C1054   1.410   .     A
C1052  C1058   1.394   .     A
C1053  C1060   1.394   .     A
C1053  C1055   1.410   .     A
C1054  C1056   1.423   .     A
C1054  C389    1.395   1_556 S
C1055  C1057   1.425   .     A
C1056  C1065   1.417   .     A
C1057  C1059   1.417   .     A
C1058  H1071   1.083   .     S
C1058  C393    1.399   1_556 S
C1059  O1099   1.389   .     S
C1060  H1082   1.083   .     S
C1061  H1088   1.112   .     S
C1061  O1108   1.413   .     S
C1061  H1089   1.111   .     S
C1061  H1090   1.109   .     S
C1062  O1098   1.412   .     S
C1062  H1091   1.113   .     S
C1062  H1093   1.109   .     S
C1062  H1092   1.111   .     S
C1063  H1075   1.109   .     S
C1063  O1099   1.414   .     S
C1063  H1074   1.115   .     S
C1064  O1100   1.413   .     S
C1064  H1078   1.109   .     S
C1064  H1077   1.114   .     S
C1064  H410    1.110   1_556 S
C1065  O1100   1.393   .     S
C1065  C394    1.401   1_556 S
C1066  H1079   1.084   .     S
C1067  H1080   1.084   .     S
C1067  C1070   1.397   .     A
C1067  C921    1.369   1_655 S
C1068  H1081   1.084   .     S
C1068  C1070   1.396   .     A
C1068  C918    1.369   1_655 S
C1069  H1083   1.084   .     S
H1073  C397    1.110   1_556 S
N1095  Zn1109  2.009   .     S
N1096  Zn1110  2.009   .     S
O1097  Zn1109  1.997   .     S
O1101  Zn1110  1.997   .     S
O1102  Zn1109  1.994   .     S
O1103  Zn1110  1.994   .     S
O1104  Zn1109  2.006   .     S
O1105  Zn1110  2.006   .     S
O1106  Zn1109  2.010   .     S
O1107  Zn1110  2.010   .     S
C1111  O1177   1.281   .     A
C1111  C1112   1.416   .     S
C1111  O1171   1.282   .     A
C1112  C1140   1.397   .     A
C1112  C1143   1.396   .     A
C1113  N1170   1.366   .     A
C1113  H1158   1.082   .     S
C1114  H1159   1.082   .     S
C1114  N1169   1.366   .     A
C1114  C671    1.416   1_565 S
C1115  H1160   1.082   .     S
C1115  N1170   1.366   .     A
C1116  H1161   1.081   .     S
C1116  N1169   1.366   .     A
C1116  C669    1.416   1_565 S
C1117  O1181   1.282   .     A
C1117  C1123   1.420   .     S
C1117  O1178   1.282   .     A
C1118  O1180   1.282   .     A
C1118  O1179   1.285   .     A
C1118  C1121   1.426   .     S
C1119  C1130   1.407   .     A
C1119  O1182   1.386   .     S
C1119  C1121   1.401   .     A
C1120  O1172   1.386   .     S
C1120  C1131   1.406   .     A
C1120  C1123   1.400   .     A
C1121  C1124   1.386   .     A
C1122  O1175   1.282   .     A
C1122  C1144   1.416   .     S
C1122  O1176   1.281   .     A
C1123  C1125   1.384   .     A
C1124  H1168   1.086   .     S
C1124  C1126   1.380   .     A
C1125  C1127   1.379   .     A
C1125  H1146   1.086   .     S
C1126  C1128   1.410   .     A
C1126  C1132   1.394   .     A
C1127  C1134   1.394   .     A
C1127  C1129   1.410   .     A
C1128  C1130   1.423   .     A
C1128  C463    1.395   1_556 S
C1129  C1131   1.425   .     A
C1130  C1139   1.417   .     A
C1131  C1133   1.417   .     A
C1132  H1145   1.083   .     S
C1132  C467    1.399   1_556 S
C1133  O1173   1.389   .     S
C1134  H1156   1.083   .     S
C1135  H1162   1.112   .     S
C1135  O1182   1.413   .     S
C1135  H1163   1.111   .     S
C1135  H1164   1.109   .     S
C1136  O1172   1.412   .     S
C1136  H1165   1.113   .     S
C1136  H1167   1.109   .     S
C1136  H1166   1.111   .     S
C1137  H1149   1.109   .     S
C1137  O1173   1.414   .     S
C1137  H1148   1.115   .     S
C1138  O1174   1.413   .     S
C1138  H1152   1.109   .     S
C1138  H1151   1.114   .     S
C1138  H484    1.110   1_556 S
C1139  O1174   1.393   .     S
C1139  C468    1.401   1_556 S
C1140  H1153   1.084   .     S
C1140  C1290   1.369   1_455 S
C1141  H1154   1.084   .     S
C1141  C1144   1.397   .     A
C1141  C1217   1.369   .     S
C1142  H1155   1.084   .     S
C1142  C1144   1.396   .     A
C1142  C1214   1.369   .     S
C1143  H1157   1.084   .     S
C1143  C1289   1.369   1_455 S
H1147  C471    1.110   1_556 S
N1169  Zn1183  2.009   .     S
N1170  Zn1184  2.009   .     S
O1171  Zn1183  1.997   .     S
O1175  Zn1184  1.997   .     S
O1176  Zn1183  1.994   .     S
O1177  Zn1184  1.994   .     S
O1178  Zn1183  2.006   .     S
O1179  Zn1184  2.006   .     S
O1180  Zn1183  2.010   .     S
O1181  Zn1184  2.010   .     S
C1185  O1251   1.281   .     A
C1185  C1186   1.416   .     S
C1185  O1245   1.282   .     A
C1186  C1214   1.397   .     A
C1186  C1217   1.396   .     A
C1187  N1244   1.366   .     A
C1187  H1232   1.082   .     S
C1188  H1233   1.082   .     S
C1188  N1243   1.366   .     A
C1188  C745    1.416   1_565 S
C1189  H1234   1.082   .     S
C1189  N1244   1.366   .     A
C1190  H1235   1.081   .     S
C1190  N1243   1.366   .     A
C1190  C743    1.416   1_565 S
C1191  O1255   1.282   .     A
C1191  C1197   1.420   .     S
C1191  O1252   1.282   .     A
C1192  O1254   1.282   .     A
C1192  O1253   1.285   .     A
C1192  C1195   1.426   .     S
C1193  C1204   1.407   .     A
C1193  O1256   1.386   .     S
C1193  C1195   1.401   .     A
C1194  O1246   1.386   .     S
C1194  C1205   1.406   .     A
C1194  C1197   1.400   .     A
C1195  C1198   1.386   .     A
C1196  O1249   1.282   .     A
C1196  C1218   1.416   .     S
C1196  O1250   1.281   .     A
C1197  C1199   1.384   .     A
C1198  H1242   1.086   .     S
C1198  C1200   1.380   .     A
C1199  C1201   1.379   .     A
C1199  H1220   1.086   .     S
C1200  C1202   1.410   .     A
C1200  C1206   1.394   .     A
C1201  C1208   1.394   .     A
C1201  C1203   1.410   .     A
C1202  C1204   1.423   .     A
C1202  C537    1.395   1_556 S
C1203  C1205   1.425   .     A
C1204  C1213   1.417   .     A
C1205  C1207   1.417   .     A
C1206  H1219   1.083   .     S
C1206  C541    1.399   1_556 S
C1207  O1247   1.389   .     S
C1208  H1230   1.083   .     S
C1209  H1236   1.112   .     S
C1209  O1256   1.413   .     S
C1209  H1237   1.111   .     S
C1209  H1238   1.109   .     S
C1210  O1246   1.412   .     S
C1210  H1239   1.113   .     S
C1210  H1241   1.109   .     S
C1210  H1240   1.111   .     S
C1211  H1223   1.109   .     S
C1211  O1247   1.414   .     S
C1211  H1222   1.115   .     S
C1212  O1248   1.413   .     S
C1212  H1226   1.109   .     S
C1212  H1225   1.114   .     S
C1212  H558    1.110   1_556 S
C1213  O1248   1.393   .     S
C1213  C542    1.401   1_556 S
C1214  H1227   1.084   .     S
C1215  H1228   1.084   .     S
C1215  C1218   1.397   .     A
C1215  C1291   1.369   .     S
C1216  H1229   1.084   .     S
C1216  C1218   1.396   .     A
C1216  C1288   1.369   .     S
C1217  H1231   1.084   .     S
H1221  C545    1.110   1_556 S
N1243  Zn1257  2.009   .     S
N1244  Zn1258  2.009   .     S
O1245  Zn1257  1.997   .     S
O1249  Zn1258  1.997   .     S
O1250  Zn1257  1.994   .     S
O1251  Zn1258  1.994   .     S
O1252  Zn1257  2.006   .     S
O1253  Zn1258  2.006   .     S
O1254  Zn1257  2.010   .     S
O1255  Zn1258  2.010   .     S
C1259  O1325   1.281   .     A
C1259  C1260   1.416   .     S
C1259  O1319   1.282   .     A
C1260  C1288   1.397   .     A
C1260  C1291   1.396   .     A
C1261  N1318   1.366   .     A
C1261  H1306   1.082   .     S
C1262  H1307   1.082   .     S
C1262  N1317   1.366   .     A
C1262  C819    1.416   1_565 S
C1263  H1308   1.082   .     S
C1263  N1318   1.366   .     A
C1264  H1309   1.081   .     S
C1264  N1317   1.366   .     A
C1264  C817    1.416   1_565 S
C1265  O1329   1.282   .     A
C1265  C1271   1.420   .     S
C1265  O1326   1.282   .     A
C1266  O1328   1.282   .     A
C1266  O1327   1.285   .     A
C1266  C1269   1.426   .     S
C1267  C1278   1.407   .     A
C1267  O1330   1.386   .     S
C1267  C1269   1.401   .     A
C1268  O1320   1.386   .     S
C1268  C1279   1.406   .     A
C1268  C1271   1.400   .     A
C1269  C1272   1.386   .     A
C1270  O1323   1.282   .     A
C1270  C1292   1.416   .     S
C1270  O1324   1.281   .     A
C1271  C1273   1.384   .     A
C1272  H1316   1.086   .     S
C1272  C1274   1.380   .     A
C1273  C1275   1.379   .     A
C1273  H1294   1.086   .     S
C1274  C1276   1.410   .     A
C1274  C1280   1.394   .     A
C1275  C1282   1.394   .     A
C1275  C1277   1.410   .     A
C1276  C1278   1.423   .     A
C1276  C611    1.395   1_556 S
C1277  C1279   1.425   .     A
C1278  C1287   1.417   .     A
C1279  C1281   1.417   .     A
C1280  H1293   1.083   .     S
C1280  C615    1.399   1_556 S
C1281  O1321   1.389   .     S
C1282  H1304   1.083   .     S
C1283  H1310   1.112   .     S
C1283  O1330   1.413   .     S
C1283  H1311   1.111   .     S
C1283  H1312   1.109   .     S
C1284  O1320   1.412   .     S
C1284  H1313   1.113   .     S
C1284  H1315   1.109   .     S
C1284  H1314   1.111   .     S
C1285  H1297   1.109   .     S
C1285  O1321   1.414   .     S
C1285  H1296   1.115   .     S
C1286  O1322   1.413   .     S
C1286  H1300   1.109   .     S
C1286  H1299   1.114   .     S
C1286  H632    1.110   1_556 S
C1287  O1322   1.393   .     S
C1287  C616    1.401   1_556 S
C1288  H1301   1.084   .     S
C1289  H1302   1.084   .     S
C1289  C1292   1.397   .     A
C1289  C1143   1.369   1_655 S
C1290  H1303   1.084   .     S
C1290  C1292   1.396   .     A
C1290  C1140   1.369   1_655 S
C1291  H1305   1.084   .     S
H1295  C619    1.110   1_556 S
N1317  Zn1331  2.009   .     S
N1318  Zn1332  2.009   .     S
O1319  Zn1331  1.997   .     S
O1323  Zn1332  1.997   .     S
O1324  Zn1331  1.994   .     S
O1325  Zn1332  1.994   .     S
O1326  Zn1331  2.006   .     S
O1327  Zn1332  2.006   .     S
O1328  Zn1331  2.010   .     S
O1329  Zn1332  2.010   .     S
