data_str_m1_o10_o18_pcu_sym.149
_audit_creation_date              2020-01-03
_audit_creation_method            'Materials Studio'
_symmetry_space_group_name_H-M    'P1'
_symmetry_Int_Tables_number       1
_symmetry_cell_setting            triclinic
loop_
_symmetry_equiv_pos_as_xyz
  x,y,z
_cell_length_a                    32.6955
_cell_length_b                    32.4854
_cell_length_c                    35.6754
_cell_angle_alpha                 98.0782
_cell_angle_beta                  73.1960
_cell_angle_gamma                 98.4600
loop_
_atom_site_label
_atom_site_type_symbol
_atom_site_fract_x
_atom_site_fract_y
_atom_site_fract_z
_atom_site_U_iso_or_equiv
_atom_site_adp_type
_atom_site_occupancy
C1     C     0.05284   0.16027   0.25831   0.00000  Uiso   1.00
C2     C     0.20331   0.13394   0.45837   0.00000  Uiso   1.00
C3     C     0.21958   0.10923   0.47845   0.00000  Uiso   1.00
C4     C     0.28093   0.17341   0.24140   0.00000  Uiso   1.00
C5     C     0.21262   0.11812   0.01959   0.00000  Uiso   1.00
C6     C     0.19177   0.15377   0.03949   0.00000  Uiso   1.00
C7     C     0.22597   0.09217   0.04138   0.00000  Uiso   1.00
C8     C     0.21874   0.10036   0.08214   0.00000  Uiso   1.00
C9     C     0.18483   0.16149   0.08061   0.00000  Uiso   1.00
C10    C     0.32657   0.17542   0.23840   0.00000  Uiso   1.00
C11    C     0.00744   0.15700   0.26305   0.00000  Uiso   1.00
C12    C     0.12443   0.23771   0.41668   0.00000  Uiso   1.00
C13    C     0.18075   0.32214   0.23802   0.00000  Uiso   1.00
C14    C     0.15170   0.01209   0.26218   0.00000  Uiso   1.00
C15    C     0.15596   0.05612   0.25892   0.00000  Uiso   1.00
C16    C     0.17683   0.27764   0.24134   0.00000  Uiso   1.00
C17    C     0.18822   0.14516   0.14412   0.00000  Uiso   1.00
C18    C     0.14588   0.18809   0.35612   0.00000  Uiso   1.00
C19    C     0.14147   0.20070   0.39826   0.00000  Uiso   1.00
C20    C     0.19802   0.13545   0.10157   0.00000  Uiso   1.00
C21    C     0.12403   0.25191   0.45592   0.00000  Uiso   1.00
C22    C     0.23339   0.07104   0.10387   0.00000  Uiso   1.00
C23    C     0.15771   0.17697   0.41902   0.00000  Uiso   1.00
C24    C     0.20159   0.03162   0.11062   0.00000  Uiso   1.00
C25    C     0.24363   0.07326   0.45462   0.00000  Uiso   1.00
C26    C     0.21420   0.03203   0.45676   0.00000  Uiso   1.00
C27    C     0.10467   0.29205   0.47626   0.00000  Uiso   1.00
C28    C     0.08670   0.31585   0.45158   0.00000  Uiso   1.00
C29    C     0.16046   0.19078   0.45745   0.00000  Uiso   1.00
C30    C     0.14242   0.22817   0.47635   0.00000  Uiso   1.00
C31    C     0.17999   0.16779   0.47769   0.00000  Uiso   1.00
C32    C     0.17709   0.17971   0.01809   0.00000  Uiso   1.00
C33    C     0.15990   0.21744   0.03570   0.00000  Uiso   1.00
C34    C     0.14335   0.24108   0.01530   0.00000  Uiso   1.00
H35    H     0.13087   0.26956   0.03097   0.00000  Uiso   1.00
H36    H     0.21047   0.12642   0.42696   0.00000  Uiso   1.00
H37    H     0.31811   0.14880   0.32090   0.00000  Uiso   1.00
H38    H     0.32093   0.10409   0.29018   0.00000  Uiso   1.00
H39    H     0.16939   0.03992   0.12846   0.00000  Uiso   1.00
H40    H     0.19890   0.01447   0.08206   0.00000  Uiso   1.00
H41    H     0.21288   0.01074   0.12674   0.00000  Uiso   1.00
H42    H     0.26557   0.06214   0.08653   0.00000  Uiso   1.00
H43    H     0.23714   0.08633   0.13273   0.00000  Uiso   1.00
H44    H     0.20102   0.02426   0.48759   0.00000  Uiso   1.00
H45    H     0.18711   0.03416   0.44444   0.00000  Uiso   1.00
H46    H     0.24177   0.06485   0.02728   0.00000  Uiso   1.00
H47    H     0.23261   0.00635   0.43923   0.00000  Uiso   1.00
H48    H     0.25641   0.07904   0.42313   0.00000  Uiso   1.00
H49    H     0.27241   0.07070   0.46433   0.00000  Uiso   1.00
H50    H     0.11250   0.32610   0.42559   0.00000  Uiso   1.00
H51    H     0.06002   0.29610   0.44205   0.00000  Uiso   1.00
H52    H     0.07378   0.01087   0.46967   0.00000  Uiso   1.00
H53    H     0.07807   0.28414   0.00261   0.00000  Uiso   1.00
H54    H     0.12975   0.31393   0.48629   0.00000  Uiso   1.00
H55    H     0.01605   0.19235   0.21542   0.00000  Uiso   1.00
H56    H     0.20751   0.00273   0.21575   0.00000  Uiso   1.00
H57    H     0.12459   0.33230   0.28456   0.00000  Uiso   1.00
H58    H     0.16750   0.18664   0.09784   0.00000  Uiso   1.00
H59    H     0.11209   0.25548   0.39979   0.00000  Uiso   1.00
H60    H     0.16749   0.14729   0.40438   0.00000  Uiso   1.00
H61    H     0.15970   0.23052   0.06518   0.00000  Uiso   1.00
N62    N     0.31257   0.13459   0.29437   0.00000  Uiso   1.00
O63    O     0.16667   0.16667   0.25000   0.00000  Uiso   1.00
O64    O     0.15693   0.12393   0.16625   0.00000  Uiso   1.00
O65    O     0.12687   0.20646   0.33749   0.00000  Uiso   1.00
O66    O     0.21088   0.17493   0.15877   0.00000  Uiso   1.00
O67    O     0.17198   0.16135   0.33749   0.00000  Uiso   1.00
O68    O     0.17849   0.08101   0.27820   0.00000  Uiso   1.00
O69    O     0.14581   0.26136   0.26767   0.00000  Uiso   1.00
O70    O     0.07452   0.13251   0.23607   0.00000  Uiso   1.00
O71    O     0.26785   0.19179   0.21805   0.00000  Uiso   1.00
O72    O     0.06990   0.18960   0.27820   0.00000  Uiso   1.00
O73    O     0.25440   0.15277   0.26767   0.00000  Uiso   1.00
O74    O     0.13800   0.06903   0.23607   0.00000  Uiso   1.00
O75    O     0.20437   0.25527   0.21805   0.00000  Uiso   1.00
Zn76   Zn    0.19244   0.14090   0.28277   0.00000  Uiso   1.00
Zn77   Zn    0.13459   0.12378   0.22257   0.00000  Uiso   1.00
Zn78   Zn    0.21166   0.19664   0.21188   0.00000  Uiso   1.00
Zn79   Zn    0.12798   0.20535   0.28277   0.00000  Uiso   1.00
C80    C     0.38617   0.16027   0.25831   0.00000  Uiso   1.00
C81    C     0.53664   0.13394   0.45837   0.00000  Uiso   1.00
C82    C     0.55292   0.10923   0.47845   0.00000  Uiso   1.00
C83    C     0.61427   0.17341   0.24140   0.00000  Uiso   1.00
C84    C     0.54595   0.11812   0.01959   0.00000  Uiso   1.00
C85    C     0.52510   0.15377   0.03949   0.00000  Uiso   1.00
C86    C     0.55931   0.09217   0.04138   0.00000  Uiso   1.00
C87    C     0.55207   0.10036   0.08214   0.00000  Uiso   1.00
C88    C     0.51816   0.16149   0.08061   0.00000  Uiso   1.00
C89    C     0.65990   0.17542   0.23840   0.00000  Uiso   1.00
C90    C     0.34078   0.15700   0.26305   0.00000  Uiso   1.00
C91    C     0.45776   0.23771   0.41668   0.00000  Uiso   1.00
C92    C     0.51408   0.32214   0.23802   0.00000  Uiso   1.00
C93    C     0.48503   0.01209   0.26218   0.00000  Uiso   1.00
C94    C     0.48929   0.05612   0.25892   0.00000  Uiso   1.00
C95    C     0.51016   0.27764   0.24134   0.00000  Uiso   1.00
C96    C     0.52156   0.14516   0.14412   0.00000  Uiso   1.00
C97    C     0.47921   0.18809   0.35612   0.00000  Uiso   1.00
C98    C     0.47481   0.20070   0.39826   0.00000  Uiso   1.00
C99    C     0.53135   0.13545   0.10157   0.00000  Uiso   1.00
C100   C     0.45736   0.25191   0.45592   0.00000  Uiso   1.00
C101   C     0.56673   0.07104   0.10387   0.00000  Uiso   1.00
C102   C     0.49105   0.17697   0.41902   0.00000  Uiso   1.00
C103   C     0.53492   0.03162   0.11062   0.00000  Uiso   1.00
C104   C     0.57697   0.07326   0.45462   0.00000  Uiso   1.00
C105   C     0.54754   0.03203   0.45676   0.00000  Uiso   1.00
C106   C     0.43800   0.29205   0.47626   0.00000  Uiso   1.00
C107   C     0.42004   0.31585   0.45158   0.00000  Uiso   1.00
C108   C     0.49380   0.19078   0.45745   0.00000  Uiso   1.00
C109   C     0.47576   0.22817   0.47635   0.00000  Uiso   1.00
C110   C     0.51332   0.16779   0.47769   0.00000  Uiso   1.00
C111   C     0.51042   0.17971   0.01809   0.00000  Uiso   1.00
C112   C     0.49324   0.21744   0.03570   0.00000  Uiso   1.00
C113   C     0.47668   0.24108   0.01530   0.00000  Uiso   1.00
H114   H     0.46420   0.26956   0.03097   0.00000  Uiso   1.00
H115   H     0.54380   0.12642   0.42696   0.00000  Uiso   1.00
H116   H     0.65145   0.14880   0.32090   0.00000  Uiso   1.00
H117   H     0.65426   0.10409   0.29018   0.00000  Uiso   1.00
H118   H     0.50272   0.03992   0.12846   0.00000  Uiso   1.00
H119   H     0.53224   0.01447   0.08206   0.00000  Uiso   1.00
H120   H     0.54621   0.01074   0.12674   0.00000  Uiso   1.00
H121   H     0.59891   0.06214   0.08653   0.00000  Uiso   1.00
H122   H     0.57048   0.08633   0.13273   0.00000  Uiso   1.00
H123   H     0.53435   0.02426   0.48759   0.00000  Uiso   1.00
H124   H     0.52044   0.03416   0.44444   0.00000  Uiso   1.00
H125   H     0.57510   0.06485   0.02728   0.00000  Uiso   1.00
H126   H     0.56595   0.00635   0.43923   0.00000  Uiso   1.00
H127   H     0.58974   0.07904   0.42313   0.00000  Uiso   1.00
H128   H     0.60574   0.07070   0.46433   0.00000  Uiso   1.00
H129   H     0.44583   0.32610   0.42559   0.00000  Uiso   1.00
H130   H     0.39335   0.29610   0.44205   0.00000  Uiso   1.00
H131   H     0.40712   0.01087   0.46967   0.00000  Uiso   1.00
H132   H     0.41140   0.28414   0.00261   0.00000  Uiso   1.00
H133   H     0.46308   0.31393   0.48629   0.00000  Uiso   1.00
H134   H     0.34939   0.19235   0.21542   0.00000  Uiso   1.00
H135   H     0.54084   0.00273   0.21575   0.00000  Uiso   1.00
H136   H     0.45793   0.33230   0.28456   0.00000  Uiso   1.00
H137   H     0.50083   0.18664   0.09784   0.00000  Uiso   1.00
H138   H     0.44542   0.25548   0.39979   0.00000  Uiso   1.00
H139   H     0.50082   0.14729   0.40438   0.00000  Uiso   1.00
H140   H     0.49304   0.23052   0.06518   0.00000  Uiso   1.00
N141   N     0.64590   0.13459   0.29437   0.00000  Uiso   1.00
O142   O     0.50000   0.16667   0.25000   0.00000  Uiso   1.00
O143   O     0.49027   0.12393   0.16625   0.00000  Uiso   1.00
O144   O     0.46020   0.20646   0.33749   0.00000  Uiso   1.00
O145   O     0.54421   0.17493   0.15877   0.00000  Uiso   1.00
O146   O     0.50532   0.16135   0.33749   0.00000  Uiso   1.00
O147   O     0.51182   0.08101   0.27820   0.00000  Uiso   1.00
O148   O     0.47914   0.26136   0.26767   0.00000  Uiso   1.00
O149   O     0.40785   0.13251   0.23607   0.00000  Uiso   1.00
O150   O     0.60119   0.19179   0.21805   0.00000  Uiso   1.00
O151   O     0.40323   0.18960   0.27820   0.00000  Uiso   1.00
O152   O     0.58773   0.15277   0.26767   0.00000  Uiso   1.00
O153   O     0.47133   0.06903   0.23607   0.00000  Uiso   1.00
O154   O     0.53771   0.25527   0.21805   0.00000  Uiso   1.00
Zn155  Zn    0.52577   0.14090   0.28277   0.00000  Uiso   1.00
Zn156  Zn    0.46792   0.12378   0.22257   0.00000  Uiso   1.00
Zn157  Zn    0.54500   0.19664   0.21188   0.00000  Uiso   1.00
Zn158  Zn    0.46131   0.20535   0.28277   0.00000  Uiso   1.00
C159   C     0.71951   0.16027   0.25831   0.00000  Uiso   1.00
C160   C     0.86997   0.13394   0.45837   0.00000  Uiso   1.00
C161   C     0.88625   0.10923   0.47845   0.00000  Uiso   1.00
C162   C     0.94760   0.17341   0.24140   0.00000  Uiso   1.00
C163   C     0.87928   0.11812   0.01959   0.00000  Uiso   1.00
C164   C     0.85844   0.15377   0.03949   0.00000  Uiso   1.00
C165   C     0.89264   0.09217   0.04138   0.00000  Uiso   1.00
C166   C     0.88540   0.10036   0.08214   0.00000  Uiso   1.00
C167   C     0.85150   0.16149   0.08061   0.00000  Uiso   1.00
C168   C     0.99324   0.17542   0.23840   0.00000  Uiso   1.00
C169   C     0.67411   0.15700   0.26305   0.00000  Uiso   1.00
C170   C     0.79110   0.23771   0.41668   0.00000  Uiso   1.00
C171   C     0.84741   0.32214   0.23802   0.00000  Uiso   1.00
C172   C     0.81836   0.01209   0.26218   0.00000  Uiso   1.00
C173   C     0.82263   0.05612   0.25892   0.00000  Uiso   1.00
C174   C     0.84350   0.27764   0.24134   0.00000  Uiso   1.00
C175   C     0.85489   0.14516   0.14412   0.00000  Uiso   1.00
C176   C     0.81255   0.18809   0.35612   0.00000  Uiso   1.00
C177   C     0.80814   0.20070   0.39826   0.00000  Uiso   1.00
C178   C     0.86469   0.13545   0.10157   0.00000  Uiso   1.00
C179   C     0.79069   0.25191   0.45592   0.00000  Uiso   1.00
C180   C     0.90006   0.07104   0.10387   0.00000  Uiso   1.00
C181   C     0.82438   0.17697   0.41902   0.00000  Uiso   1.00
C182   C     0.86825   0.03162   0.11062   0.00000  Uiso   1.00
C183   C     0.91030   0.07326   0.45462   0.00000  Uiso   1.00
C184   C     0.88087   0.03203   0.45676   0.00000  Uiso   1.00
C185   C     0.77133   0.29205   0.47626   0.00000  Uiso   1.00
C186   C     0.75337   0.31585   0.45158   0.00000  Uiso   1.00
C187   C     0.82713   0.19078   0.45745   0.00000  Uiso   1.00
C188   C     0.80909   0.22817   0.47635   0.00000  Uiso   1.00
C189   C     0.84665   0.16779   0.47769   0.00000  Uiso   1.00
C190   C     0.84375   0.17971   0.01809   0.00000  Uiso   1.00
C191   C     0.82657   0.21744   0.03570   0.00000  Uiso   1.00
C192   C     0.81002   0.24108   0.01530   0.00000  Uiso   1.00
H193   H     0.79753   0.26956   0.03097   0.00000  Uiso   1.00
H194   H     0.87713   0.12642   0.42696   0.00000  Uiso   1.00
H195   H     0.98478   0.14880   0.32090   0.00000  Uiso   1.00
H196   H     0.98760   0.10409   0.29018   0.00000  Uiso   1.00
H197   H     0.83605   0.03992   0.12846   0.00000  Uiso   1.00
H198   H     0.86557   0.01447   0.08206   0.00000  Uiso   1.00
H199   H     0.87954   0.01074   0.12674   0.00000  Uiso   1.00
H200   H     0.93224   0.06214   0.08653   0.00000  Uiso   1.00
H201   H     0.90381   0.08633   0.13273   0.00000  Uiso   1.00
H202   H     0.86768   0.02426   0.48759   0.00000  Uiso   1.00
H203   H     0.85378   0.03416   0.44444   0.00000  Uiso   1.00
H204   H     0.90843   0.06485   0.02728   0.00000  Uiso   1.00
H205   H     0.89928   0.00635   0.43923   0.00000  Uiso   1.00
H206   H     0.92307   0.07904   0.42313   0.00000  Uiso   1.00
H207   H     0.93908   0.07070   0.46433   0.00000  Uiso   1.00
H208   H     0.77917   0.32610   0.42559   0.00000  Uiso   1.00
H209   H     0.72668   0.29610   0.44205   0.00000  Uiso   1.00
H210   H     0.74045   0.01087   0.46967   0.00000  Uiso   1.00
H211   H     0.74473   0.28414   0.00261   0.00000  Uiso   1.00
H212   H     0.79642   0.31393   0.48629   0.00000  Uiso   1.00
H213   H     0.68272   0.19235   0.21542   0.00000  Uiso   1.00
H214   H     0.87417   0.00273   0.21575   0.00000  Uiso   1.00
H215   H     0.79126   0.33230   0.28456   0.00000  Uiso   1.00
H216   H     0.83417   0.18664   0.09784   0.00000  Uiso   1.00
H217   H     0.77875   0.25548   0.39979   0.00000  Uiso   1.00
H218   H     0.83415   0.14729   0.40438   0.00000  Uiso   1.00
H219   H     0.82637   0.23052   0.06518   0.00000  Uiso   1.00
N220   N     0.97924   0.13459   0.29437   0.00000  Uiso   1.00
O221   O     0.83333   0.16667   0.25000   0.00000  Uiso   1.00
O222   O     0.82360   0.12393   0.16625   0.00000  Uiso   1.00
O223   O     0.79354   0.20646   0.33749   0.00000  Uiso   1.00
O224   O     0.87755   0.17493   0.15877   0.00000  Uiso   1.00
O225   O     0.83865   0.16135   0.33749   0.00000  Uiso   1.00
O226   O     0.84515   0.08101   0.27820   0.00000  Uiso   1.00
O227   O     0.81247   0.26136   0.26767   0.00000  Uiso   1.00
O228   O     0.74119   0.13251   0.23607   0.00000  Uiso   1.00
O229   O     0.93452   0.19179   0.21805   0.00000  Uiso   1.00
O230   O     0.73656   0.18960   0.27820   0.00000  Uiso   1.00
O231   O     0.92106   0.15277   0.26767   0.00000  Uiso   1.00
O232   O     0.80467   0.06903   0.23607   0.00000  Uiso   1.00
O233   O     0.87104   0.25527   0.21805   0.00000  Uiso   1.00
Zn234  Zn    0.85910   0.14090   0.28277   0.00000  Uiso   1.00
Zn235  Zn    0.80125   0.12378   0.22257   0.00000  Uiso   1.00
Zn236  Zn    0.87833   0.19664   0.21188   0.00000  Uiso   1.00
Zn237  Zn    0.79465   0.20535   0.28277   0.00000  Uiso   1.00
C238   C     0.05284   0.49361   0.25831   0.00000  Uiso   1.00
C239   C     0.20331   0.46728   0.45837   0.00000  Uiso   1.00
C240   C     0.21958   0.44256   0.47845   0.00000  Uiso   1.00
C241   C     0.28093   0.50675   0.24140   0.00000  Uiso   1.00
C242   C     0.21262   0.45145   0.01959   0.00000  Uiso   1.00
C243   C     0.19177   0.48710   0.03949   0.00000  Uiso   1.00
C244   C     0.22597   0.42550   0.04138   0.00000  Uiso   1.00
C245   C     0.21874   0.43369   0.08214   0.00000  Uiso   1.00
C246   C     0.18483   0.49482   0.08061   0.00000  Uiso   1.00
C247   C     0.32657   0.50875   0.23840   0.00000  Uiso   1.00
C248   C     0.00744   0.49033   0.26305   0.00000  Uiso   1.00
C249   C     0.12443   0.57105   0.41668   0.00000  Uiso   1.00
C250   C     0.18075   0.65547   0.23802   0.00000  Uiso   1.00
C251   C     0.15170   0.34543   0.26218   0.00000  Uiso   1.00
C252   C     0.15596   0.38946   0.25892   0.00000  Uiso   1.00
C253   C     0.17683   0.61097   0.24134   0.00000  Uiso   1.00
C254   C     0.18822   0.47850   0.14412   0.00000  Uiso   1.00
C255   C     0.14588   0.52142   0.35612   0.00000  Uiso   1.00
C256   C     0.14147   0.53404   0.39826   0.00000  Uiso   1.00
C257   C     0.19802   0.46879   0.10157   0.00000  Uiso   1.00
C258   C     0.12403   0.58524   0.45592   0.00000  Uiso   1.00
C259   C     0.23339   0.40437   0.10387   0.00000  Uiso   1.00
C260   C     0.15771   0.51031   0.41902   0.00000  Uiso   1.00
C261   C     0.20159   0.36496   0.11062   0.00000  Uiso   1.00
C262   C     0.24363   0.40660   0.45462   0.00000  Uiso   1.00
C263   C     0.21420   0.36536   0.45676   0.00000  Uiso   1.00
C264   C     0.10467   0.62538   0.47626   0.00000  Uiso   1.00
C265   C     0.08670   0.64918   0.45158   0.00000  Uiso   1.00
C266   C     0.16046   0.52411   0.45745   0.00000  Uiso   1.00
C267   C     0.14242   0.56150   0.47635   0.00000  Uiso   1.00
C268   C     0.17999   0.50113   0.47769   0.00000  Uiso   1.00
C269   C     0.17709   0.51304   0.01809   0.00000  Uiso   1.00
C270   C     0.15990   0.55077   0.03570   0.00000  Uiso   1.00
C271   C     0.14335   0.57442   0.01530   0.00000  Uiso   1.00
H272   H     0.13087   0.60289   0.03097   0.00000  Uiso   1.00
H273   H     0.21047   0.45976   0.42696   0.00000  Uiso   1.00
H274   H     0.31811   0.48214   0.32090   0.00000  Uiso   1.00
H275   H     0.32093   0.43742   0.29018   0.00000  Uiso   1.00
H276   H     0.16939   0.37326   0.12846   0.00000  Uiso   1.00
H277   H     0.19890   0.34780   0.08206   0.00000  Uiso   1.00
H278   H     0.21288   0.34407   0.12674   0.00000  Uiso   1.00
H279   H     0.26557   0.39547   0.08653   0.00000  Uiso   1.00
H280   H     0.23714   0.41966   0.13273   0.00000  Uiso   1.00
H281   H     0.20102   0.35759   0.48759   0.00000  Uiso   1.00
H282   H     0.18711   0.36749   0.44444   0.00000  Uiso   1.00
H283   H     0.24177   0.39819   0.02728   0.00000  Uiso   1.00
H284   H     0.23261   0.33968   0.43923   0.00000  Uiso   1.00
H285   H     0.25641   0.41237   0.42313   0.00000  Uiso   1.00
H286   H     0.27241   0.40403   0.46433   0.00000  Uiso   1.00
H287   H     0.11250   0.65943   0.42559   0.00000  Uiso   1.00
H288   H     0.06002   0.62943   0.44205   0.00000  Uiso   1.00
H289   H     0.07378   0.34421   0.46967   0.00000  Uiso   1.00
H290   H     0.07807   0.61748   0.00261   0.00000  Uiso   1.00
H291   H     0.12975   0.64726   0.48629   0.00000  Uiso   1.00
H292   H     0.01605   0.52568   0.21542   0.00000  Uiso   1.00
H293   H     0.20751   0.33606   0.21575   0.00000  Uiso   1.00
H294   H     0.12459   0.66563   0.28456   0.00000  Uiso   1.00
H295   H     0.16750   0.51997   0.09784   0.00000  Uiso   1.00
H296   H     0.11209   0.58881   0.39979   0.00000  Uiso   1.00
H297   H     0.16749   0.48062   0.40438   0.00000  Uiso   1.00
H298   H     0.15970   0.56385   0.06518   0.00000  Uiso   1.00
N299   N     0.31257   0.46792   0.29437   0.00000  Uiso   1.00
O300   O     0.16667   0.50000   0.25000   0.00000  Uiso   1.00
O301   O     0.15693   0.45726   0.16625   0.00000  Uiso   1.00
O302   O     0.12687   0.53979   0.33749   0.00000  Uiso   1.00
O303   O     0.21088   0.50826   0.15877   0.00000  Uiso   1.00
O304   O     0.17198   0.49468   0.33749   0.00000  Uiso   1.00
O305   O     0.17849   0.41434   0.27820   0.00000  Uiso   1.00
O306   O     0.14581   0.59469   0.26767   0.00000  Uiso   1.00
O307   O     0.07452   0.46584   0.23607   0.00000  Uiso   1.00
O308   O     0.26785   0.52512   0.21805   0.00000  Uiso   1.00
O309   O     0.06990   0.52293   0.27820   0.00000  Uiso   1.00
O310   O     0.25440   0.48610   0.26767   0.00000  Uiso   1.00
O311   O     0.13800   0.40236   0.23607   0.00000  Uiso   1.00
O312   O     0.20437   0.58860   0.21805   0.00000  Uiso   1.00
Zn313  Zn    0.19244   0.47423   0.28277   0.00000  Uiso   1.00
Zn314  Zn    0.13459   0.45711   0.22257   0.00000  Uiso   1.00
Zn315  Zn    0.21166   0.52997   0.21188   0.00000  Uiso   1.00
Zn316  Zn    0.12798   0.53868   0.28277   0.00000  Uiso   1.00
C317   C     0.38617   0.49361   0.25831   0.00000  Uiso   1.00
C318   C     0.53664   0.46728   0.45837   0.00000  Uiso   1.00
C319   C     0.55292   0.44256   0.47845   0.00000  Uiso   1.00
C320   C     0.61427   0.50675   0.24140   0.00000  Uiso   1.00
C321   C     0.54595   0.45145   0.01959   0.00000  Uiso   1.00
C322   C     0.52510   0.48710   0.03949   0.00000  Uiso   1.00
C323   C     0.55931   0.42550   0.04138   0.00000  Uiso   1.00
C324   C     0.55207   0.43369   0.08214   0.00000  Uiso   1.00
C325   C     0.51816   0.49482   0.08061   0.00000  Uiso   1.00
C326   C     0.65990   0.50875   0.23840   0.00000  Uiso   1.00
C327   C     0.34078   0.49033   0.26305   0.00000  Uiso   1.00
C328   C     0.45776   0.57105   0.41668   0.00000  Uiso   1.00
C329   C     0.51408   0.65547   0.23802   0.00000  Uiso   1.00
C330   C     0.48503   0.34543   0.26218   0.00000  Uiso   1.00
C331   C     0.48929   0.38946   0.25892   0.00000  Uiso   1.00
C332   C     0.51016   0.61097   0.24134   0.00000  Uiso   1.00
C333   C     0.52156   0.47850   0.14412   0.00000  Uiso   1.00
C334   C     0.47921   0.52142   0.35612   0.00000  Uiso   1.00
C335   C     0.47481   0.53404   0.39826   0.00000  Uiso   1.00
C336   C     0.53135   0.46879   0.10157   0.00000  Uiso   1.00
C337   C     0.45736   0.58524   0.45592   0.00000  Uiso   1.00
C338   C     0.56673   0.40437   0.10387   0.00000  Uiso   1.00
C339   C     0.49105   0.51031   0.41902   0.00000  Uiso   1.00
C340   C     0.53492   0.36496   0.11062   0.00000  Uiso   1.00
C341   C     0.57697   0.40660   0.45462   0.00000  Uiso   1.00
C342   C     0.54754   0.36536   0.45676   0.00000  Uiso   1.00
C343   C     0.43800   0.62538   0.47626   0.00000  Uiso   1.00
C344   C     0.42004   0.64918   0.45158   0.00000  Uiso   1.00
C345   C     0.49380   0.52411   0.45745   0.00000  Uiso   1.00
C346   C     0.47576   0.56150   0.47635   0.00000  Uiso   1.00
C347   C     0.51332   0.50113   0.47769   0.00000  Uiso   1.00
C348   C     0.51042   0.51304   0.01809   0.00000  Uiso   1.00
C349   C     0.49324   0.55077   0.03570   0.00000  Uiso   1.00
C350   C     0.47668   0.57442   0.01530   0.00000  Uiso   1.00
H351   H     0.46420   0.60289   0.03097   0.00000  Uiso   1.00
H352   H     0.54380   0.45976   0.42696   0.00000  Uiso   1.00
H353   H     0.65145   0.48214   0.32090   0.00000  Uiso   1.00
H354   H     0.65426   0.43742   0.29018   0.00000  Uiso   1.00
H355   H     0.50272   0.37326   0.12846   0.00000  Uiso   1.00
H356   H     0.53224   0.34780   0.08206   0.00000  Uiso   1.00
H357   H     0.54621   0.34407   0.12674   0.00000  Uiso   1.00
H358   H     0.59891   0.39547   0.08653   0.00000  Uiso   1.00
H359   H     0.57048   0.41966   0.13273   0.00000  Uiso   1.00
H360   H     0.53435   0.35759   0.48759   0.00000  Uiso   1.00
H361   H     0.52044   0.36749   0.44444   0.00000  Uiso   1.00
H362   H     0.57510   0.39819   0.02728   0.00000  Uiso   1.00
H363   H     0.56595   0.33968   0.43923   0.00000  Uiso   1.00
H364   H     0.58974   0.41237   0.42313   0.00000  Uiso   1.00
H365   H     0.60574   0.40403   0.46433   0.00000  Uiso   1.00
H366   H     0.44583   0.65943   0.42559   0.00000  Uiso   1.00
H367   H     0.39335   0.62943   0.44205   0.00000  Uiso   1.00
H368   H     0.40712   0.34421   0.46967   0.00000  Uiso   1.00
H369   H     0.41140   0.61748   0.00261   0.00000  Uiso   1.00
H370   H     0.46308   0.64726   0.48629   0.00000  Uiso   1.00
H371   H     0.34939   0.52568   0.21542   0.00000  Uiso   1.00
H372   H     0.54084   0.33606   0.21575   0.00000  Uiso   1.00
H373   H     0.45793   0.66563   0.28456   0.00000  Uiso   1.00
H374   H     0.50083   0.51997   0.09784   0.00000  Uiso   1.00
H375   H     0.44542   0.58881   0.39979   0.00000  Uiso   1.00
H376   H     0.50082   0.48062   0.40438   0.00000  Uiso   1.00
H377   H     0.49304   0.56385   0.06518   0.00000  Uiso   1.00
N378   N     0.64590   0.46792   0.29437   0.00000  Uiso   1.00
O379   O     0.50000   0.50000   0.25000   0.00000  Uiso   1.00
O380   O     0.49027   0.45726   0.16625   0.00000  Uiso   1.00
O381   O     0.46020   0.53979   0.33749   0.00000  Uiso   1.00
O382   O     0.54421   0.50826   0.15877   0.00000  Uiso   1.00
O383   O     0.50532   0.49468   0.33749   0.00000  Uiso   1.00
O384   O     0.51182   0.41434   0.27820   0.00000  Uiso   1.00
O385   O     0.47914   0.59469   0.26767   0.00000  Uiso   1.00
O386   O     0.40785   0.46584   0.23607   0.00000  Uiso   1.00
O387   O     0.60119   0.52512   0.21805   0.00000  Uiso   1.00
O388   O     0.40323   0.52293   0.27820   0.00000  Uiso   1.00
O389   O     0.58773   0.48610   0.26767   0.00000  Uiso   1.00
O390   O     0.47133   0.40236   0.23607   0.00000  Uiso   1.00
O391   O     0.53771   0.58860   0.21805   0.00000  Uiso   1.00
Zn392  Zn    0.52577   0.47423   0.28277   0.00000  Uiso   1.00
Zn393  Zn    0.46792   0.45711   0.22257   0.00000  Uiso   1.00
Zn394  Zn    0.54500   0.52997   0.21188   0.00000  Uiso   1.00
Zn395  Zn    0.46131   0.53868   0.28277   0.00000  Uiso   1.00
C396   C     0.71951   0.49361   0.25831   0.00000  Uiso   1.00
C397   C     0.86997   0.46728   0.45837   0.00000  Uiso   1.00
C398   C     0.88625   0.44256   0.47845   0.00000  Uiso   1.00
C399   C     0.94760   0.50675   0.24140   0.00000  Uiso   1.00
C400   C     0.87928   0.45145   0.01959   0.00000  Uiso   1.00
C401   C     0.85844   0.48710   0.03949   0.00000  Uiso   1.00
C402   C     0.89264   0.42550   0.04138   0.00000  Uiso   1.00
C403   C     0.88540   0.43369   0.08214   0.00000  Uiso   1.00
C404   C     0.85150   0.49482   0.08061   0.00000  Uiso   1.00
C405   C     0.99324   0.50875   0.23840   0.00000  Uiso   1.00
C406   C     0.67411   0.49033   0.26305   0.00000  Uiso   1.00
C407   C     0.79110   0.57105   0.41668   0.00000  Uiso   1.00
C408   C     0.84741   0.65547   0.23802   0.00000  Uiso   1.00
C409   C     0.81836   0.34543   0.26218   0.00000  Uiso   1.00
C410   C     0.82263   0.38946   0.25892   0.00000  Uiso   1.00
C411   C     0.84350   0.61097   0.24134   0.00000  Uiso   1.00
C412   C     0.85489   0.47850   0.14412   0.00000  Uiso   1.00
C413   C     0.81255   0.52142   0.35612   0.00000  Uiso   1.00
C414   C     0.80814   0.53404   0.39826   0.00000  Uiso   1.00
C415   C     0.86469   0.46879   0.10157   0.00000  Uiso   1.00
C416   C     0.79069   0.58524   0.45592   0.00000  Uiso   1.00
C417   C     0.90006   0.40437   0.10387   0.00000  Uiso   1.00
C418   C     0.82438   0.51031   0.41902   0.00000  Uiso   1.00
C419   C     0.86825   0.36496   0.11062   0.00000  Uiso   1.00
C420   C     0.91030   0.40660   0.45462   0.00000  Uiso   1.00
C421   C     0.88087   0.36536   0.45676   0.00000  Uiso   1.00
C422   C     0.77133   0.62538   0.47626   0.00000  Uiso   1.00
C423   C     0.75337   0.64918   0.45158   0.00000  Uiso   1.00
C424   C     0.82713   0.52411   0.45745   0.00000  Uiso   1.00
C425   C     0.80909   0.56150   0.47635   0.00000  Uiso   1.00
C426   C     0.84665   0.50113   0.47769   0.00000  Uiso   1.00
C427   C     0.84375   0.51304   0.01809   0.00000  Uiso   1.00
C428   C     0.82657   0.55077   0.03570   0.00000  Uiso   1.00
C429   C     0.81002   0.57442   0.01530   0.00000  Uiso   1.00
H430   H     0.79753   0.60289   0.03097   0.00000  Uiso   1.00
H431   H     0.87713   0.45976   0.42696   0.00000  Uiso   1.00
H432   H     0.98478   0.48214   0.32090   0.00000  Uiso   1.00
H433   H     0.98760   0.43742   0.29018   0.00000  Uiso   1.00
H434   H     0.83605   0.37326   0.12846   0.00000  Uiso   1.00
H435   H     0.86557   0.34780   0.08206   0.00000  Uiso   1.00
H436   H     0.87954   0.34407   0.12674   0.00000  Uiso   1.00
H437   H     0.93224   0.39547   0.08653   0.00000  Uiso   1.00
H438   H     0.90381   0.41966   0.13273   0.00000  Uiso   1.00
H439   H     0.86768   0.35759   0.48759   0.00000  Uiso   1.00
H440   H     0.85378   0.36749   0.44444   0.00000  Uiso   1.00
H441   H     0.90843   0.39819   0.02728   0.00000  Uiso   1.00
H442   H     0.89928   0.33968   0.43923   0.00000  Uiso   1.00
H443   H     0.92307   0.41237   0.42313   0.00000  Uiso   1.00
H444   H     0.93908   0.40403   0.46433   0.00000  Uiso   1.00
H445   H     0.77917   0.65943   0.42559   0.00000  Uiso   1.00
H446   H     0.72668   0.62943   0.44205   0.00000  Uiso   1.00
H447   H     0.74045   0.34421   0.46967   0.00000  Uiso   1.00
H448   H     0.74473   0.61748   0.00261   0.00000  Uiso   1.00
H449   H     0.79642   0.64726   0.48629   0.00000  Uiso   1.00
H450   H     0.68272   0.52568   0.21542   0.00000  Uiso   1.00
H451   H     0.87417   0.33606   0.21575   0.00000  Uiso   1.00
H452   H     0.79126   0.66563   0.28456   0.00000  Uiso   1.00
H453   H     0.83417   0.51997   0.09784   0.00000  Uiso   1.00
H454   H     0.77875   0.58881   0.39979   0.00000  Uiso   1.00
H455   H     0.83415   0.48062   0.40438   0.00000  Uiso   1.00
H456   H     0.82637   0.56385   0.06518   0.00000  Uiso   1.00
N457   N     0.97924   0.46792   0.29437   0.00000  Uiso   1.00
O458   O     0.83333   0.50000   0.25000   0.00000  Uiso   1.00
O459   O     0.82360   0.45726   0.16625   0.00000  Uiso   1.00
O460   O     0.79354   0.53979   0.33749   0.00000  Uiso   1.00
O461   O     0.87755   0.50826   0.15877   0.00000  Uiso   1.00
O462   O     0.83865   0.49468   0.33749   0.00000  Uiso   1.00
O463   O     0.84515   0.41434   0.27820   0.00000  Uiso   1.00
O464   O     0.81247   0.59469   0.26767   0.00000  Uiso   1.00
O465   O     0.74119   0.46584   0.23607   0.00000  Uiso   1.00
O466   O     0.93452   0.52512   0.21805   0.00000  Uiso   1.00
O467   O     0.73656   0.52293   0.27820   0.00000  Uiso   1.00
O468   O     0.92106   0.48610   0.26767   0.00000  Uiso   1.00
O469   O     0.80467   0.40236   0.23607   0.00000  Uiso   1.00
O470   O     0.87104   0.58860   0.21805   0.00000  Uiso   1.00
Zn471  Zn    0.85910   0.47423   0.28277   0.00000  Uiso   1.00
Zn472  Zn    0.80125   0.45711   0.22257   0.00000  Uiso   1.00
Zn473  Zn    0.87833   0.52997   0.21188   0.00000  Uiso   1.00
Zn474  Zn    0.79465   0.53868   0.28277   0.00000  Uiso   1.00
C475   C     0.05284   0.82694   0.25831   0.00000  Uiso   1.00
C476   C     0.20331   0.80061   0.45837   0.00000  Uiso   1.00
C477   C     0.21958   0.77590   0.47845   0.00000  Uiso   1.00
C478   C     0.28093   0.84008   0.24140   0.00000  Uiso   1.00
C479   C     0.21262   0.78479   0.01959   0.00000  Uiso   1.00
C480   C     0.19177   0.82044   0.03949   0.00000  Uiso   1.00
C481   C     0.22597   0.75883   0.04138   0.00000  Uiso   1.00
C482   C     0.21874   0.76702   0.08214   0.00000  Uiso   1.00
C483   C     0.18483   0.82815   0.08061   0.00000  Uiso   1.00
C484   C     0.32657   0.84209   0.23840   0.00000  Uiso   1.00
C485   C     0.00744   0.82366   0.26305   0.00000  Uiso   1.00
C486   C     0.12443   0.90438   0.41668   0.00000  Uiso   1.00
C487   C     0.18075   0.98880   0.23802   0.00000  Uiso   1.00
C488   C     0.15170   0.67876   0.26218   0.00000  Uiso   1.00
C489   C     0.15596   0.72279   0.25892   0.00000  Uiso   1.00
C490   C     0.17683   0.94431   0.24134   0.00000  Uiso   1.00
C491   C     0.18822   0.81183   0.14412   0.00000  Uiso   1.00
C492   C     0.14588   0.85475   0.35612   0.00000  Uiso   1.00
C493   C     0.14147   0.86737   0.39826   0.00000  Uiso   1.00
C494   C     0.19802   0.80212   0.10157   0.00000  Uiso   1.00
C495   C     0.12403   0.91858   0.45592   0.00000  Uiso   1.00
C496   C     0.23339   0.73770   0.10387   0.00000  Uiso   1.00
C497   C     0.15771   0.84364   0.41902   0.00000  Uiso   1.00
C498   C     0.20159   0.69829   0.11062   0.00000  Uiso   1.00
C499   C     0.24363   0.73993   0.45462   0.00000  Uiso   1.00
C500   C     0.21420   0.69869   0.45676   0.00000  Uiso   1.00
C501   C     0.10467   0.95871   0.47626   0.00000  Uiso   1.00
C502   C     0.08670   0.98251   0.45158   0.00000  Uiso   1.00
C503   C     0.16046   0.85745   0.45745   0.00000  Uiso   1.00
C504   C     0.14242   0.89484   0.47635   0.00000  Uiso   1.00
C505   C     0.17999   0.83446   0.47769   0.00000  Uiso   1.00
C506   C     0.17709   0.84638   0.01809   0.00000  Uiso   1.00
C507   C     0.15990   0.88410   0.03570   0.00000  Uiso   1.00
C508   C     0.14335   0.90775   0.01530   0.00000  Uiso   1.00
H509   H     0.13087   0.93623   0.03097   0.00000  Uiso   1.00
H510   H     0.21047   0.79309   0.42696   0.00000  Uiso   1.00
H511   H     0.31811   0.81547   0.32090   0.00000  Uiso   1.00
H512   H     0.32093   0.77075   0.29018   0.00000  Uiso   1.00
H513   H     0.16939   0.70659   0.12846   0.00000  Uiso   1.00
H514   H     0.19890   0.68113   0.08206   0.00000  Uiso   1.00
H515   H     0.21288   0.67741   0.12674   0.00000  Uiso   1.00
H516   H     0.26557   0.72880   0.08653   0.00000  Uiso   1.00
H517   H     0.23714   0.75300   0.13273   0.00000  Uiso   1.00
H518   H     0.20102   0.69092   0.48759   0.00000  Uiso   1.00
H519   H     0.18711   0.70082   0.44444   0.00000  Uiso   1.00
H520   H     0.24177   0.73152   0.02728   0.00000  Uiso   1.00
H521   H     0.23261   0.67301   0.43923   0.00000  Uiso   1.00
H522   H     0.25641   0.74571   0.42313   0.00000  Uiso   1.00
H523   H     0.27241   0.73736   0.46433   0.00000  Uiso   1.00
H524   H     0.11250   0.99276   0.42559   0.00000  Uiso   1.00
H525   H     0.06002   0.96277   0.44205   0.00000  Uiso   1.00
H526   H     0.07378   0.67754   0.46967   0.00000  Uiso   1.00
H527   H     0.07807   0.95081   0.00261   0.00000  Uiso   1.00
H528   H     0.12975   0.98060   0.48629   0.00000  Uiso   1.00
H529   H     0.01605   0.85901   0.21542   0.00000  Uiso   1.00
H530   H     0.20751   0.66939   0.21575   0.00000  Uiso   1.00
H531   H     0.12459   0.99897   0.28456   0.00000  Uiso   1.00
H532   H     0.16750   0.85330   0.09784   0.00000  Uiso   1.00
H533   H     0.11209   0.92215   0.39979   0.00000  Uiso   1.00
H534   H     0.16749   0.81395   0.40438   0.00000  Uiso   1.00
H535   H     0.15970   0.89719   0.06518   0.00000  Uiso   1.00
N536   N     0.31257   0.80126   0.29437   0.00000  Uiso   1.00
O537   O     0.16667   0.83333   0.25000   0.00000  Uiso   1.00
O538   O     0.15693   0.79060   0.16625   0.00000  Uiso   1.00
O539   O     0.12687   0.87313   0.33749   0.00000  Uiso   1.00
O540   O     0.21088   0.84159   0.15877   0.00000  Uiso   1.00
O541   O     0.17198   0.82802   0.33749   0.00000  Uiso   1.00
O542   O     0.17849   0.74768   0.27820   0.00000  Uiso   1.00
O543   O     0.14581   0.92803   0.26767   0.00000  Uiso   1.00
O544   O     0.07452   0.79917   0.23607   0.00000  Uiso   1.00
O545   O     0.26785   0.85845   0.21805   0.00000  Uiso   1.00
O546   O     0.06990   0.85627   0.27820   0.00000  Uiso   1.00
O547   O     0.25440   0.81944   0.26767   0.00000  Uiso   1.00
O548   O     0.13800   0.73570   0.23607   0.00000  Uiso   1.00
O549   O     0.20437   0.92193   0.21805   0.00000  Uiso   1.00
Zn550  Zn    0.19244   0.80756   0.28277   0.00000  Uiso   1.00
Zn551  Zn    0.13459   0.79044   0.22257   0.00000  Uiso   1.00
Zn552  Zn    0.21166   0.86331   0.21188   0.00000  Uiso   1.00
Zn553  Zn    0.12798   0.87202   0.28277   0.00000  Uiso   1.00
C554   C     0.38617   0.82694   0.25831   0.00000  Uiso   1.00
C555   C     0.53664   0.80061   0.45837   0.00000  Uiso   1.00
C556   C     0.55292   0.77590   0.47845   0.00000  Uiso   1.00
C557   C     0.61427   0.84008   0.24140   0.00000  Uiso   1.00
C558   C     0.54595   0.78479   0.01959   0.00000  Uiso   1.00
C559   C     0.52510   0.82044   0.03949   0.00000  Uiso   1.00
C560   C     0.55931   0.75883   0.04138   0.00000  Uiso   1.00
C561   C     0.55207   0.76702   0.08214   0.00000  Uiso   1.00
C562   C     0.51816   0.82815   0.08061   0.00000  Uiso   1.00
C563   C     0.65990   0.84209   0.23840   0.00000  Uiso   1.00
C564   C     0.34078   0.82366   0.26305   0.00000  Uiso   1.00
C565   C     0.45776   0.90438   0.41668   0.00000  Uiso   1.00
C566   C     0.51408   0.98880   0.23802   0.00000  Uiso   1.00
C567   C     0.48503   0.67876   0.26218   0.00000  Uiso   1.00
C568   C     0.48929   0.72279   0.25892   0.00000  Uiso   1.00
C569   C     0.51016   0.94431   0.24134   0.00000  Uiso   1.00
C570   C     0.52156   0.81183   0.14412   0.00000  Uiso   1.00
C571   C     0.47921   0.85475   0.35612   0.00000  Uiso   1.00
C572   C     0.47481   0.86737   0.39826   0.00000  Uiso   1.00
C573   C     0.53135   0.80212   0.10157   0.00000  Uiso   1.00
C574   C     0.45736   0.91858   0.45592   0.00000  Uiso   1.00
C575   C     0.56673   0.73770   0.10387   0.00000  Uiso   1.00
C576   C     0.49105   0.84364   0.41902   0.00000  Uiso   1.00
C577   C     0.53492   0.69829   0.11062   0.00000  Uiso   1.00
C578   C     0.57697   0.73993   0.45462   0.00000  Uiso   1.00
C579   C     0.54754   0.69869   0.45676   0.00000  Uiso   1.00
C580   C     0.43800   0.95871   0.47626   0.00000  Uiso   1.00
C581   C     0.42004   0.98251   0.45158   0.00000  Uiso   1.00
C582   C     0.49380   0.85745   0.45745   0.00000  Uiso   1.00
C583   C     0.47576   0.89484   0.47635   0.00000  Uiso   1.00
C584   C     0.51332   0.83446   0.47769   0.00000  Uiso   1.00
C585   C     0.51042   0.84638   0.01809   0.00000  Uiso   1.00
C586   C     0.49324   0.88410   0.03570   0.00000  Uiso   1.00
C587   C     0.47668   0.90775   0.01530   0.00000  Uiso   1.00
H588   H     0.46420   0.93623   0.03097   0.00000  Uiso   1.00
H589   H     0.54380   0.79309   0.42696   0.00000  Uiso   1.00
H590   H     0.65145   0.81547   0.32090   0.00000  Uiso   1.00
H591   H     0.65426   0.77075   0.29018   0.00000  Uiso   1.00
H592   H     0.50272   0.70659   0.12846   0.00000  Uiso   1.00
H593   H     0.53224   0.68113   0.08206   0.00000  Uiso   1.00
H594   H     0.54621   0.67741   0.12674   0.00000  Uiso   1.00
H595   H     0.59891   0.72880   0.08653   0.00000  Uiso   1.00
H596   H     0.57048   0.75300   0.13273   0.00000  Uiso   1.00
H597   H     0.53435   0.69092   0.48759   0.00000  Uiso   1.00
H598   H     0.52044   0.70082   0.44444   0.00000  Uiso   1.00
H599   H     0.57510   0.73152   0.02728   0.00000  Uiso   1.00
H600   H     0.56595   0.67301   0.43923   0.00000  Uiso   1.00
H601   H     0.58974   0.74571   0.42313   0.00000  Uiso   1.00
H602   H     0.60574   0.73736   0.46433   0.00000  Uiso   1.00
H603   H     0.44583   0.99276   0.42559   0.00000  Uiso   1.00
H604   H     0.39335   0.96277   0.44205   0.00000  Uiso   1.00
H605   H     0.40712   0.67754   0.46967   0.00000  Uiso   1.00
H606   H     0.41140   0.95081   0.00261   0.00000  Uiso   1.00
H607   H     0.46308   0.98060   0.48629   0.00000  Uiso   1.00
H608   H     0.34939   0.85901   0.21542   0.00000  Uiso   1.00
H609   H     0.54084   0.66939   0.21575   0.00000  Uiso   1.00
H610   H     0.45793   0.99897   0.28456   0.00000  Uiso   1.00
H611   H     0.50083   0.85330   0.09784   0.00000  Uiso   1.00
H612   H     0.44542   0.92215   0.39979   0.00000  Uiso   1.00
H613   H     0.50082   0.81395   0.40438   0.00000  Uiso   1.00
H614   H     0.49304   0.89719   0.06518   0.00000  Uiso   1.00
N615   N     0.64590   0.80126   0.29437   0.00000  Uiso   1.00
O616   O     0.50000   0.83333   0.25000   0.00000  Uiso   1.00
O617   O     0.49027   0.79060   0.16625   0.00000  Uiso   1.00
O618   O     0.46020   0.87313   0.33749   0.00000  Uiso   1.00
O619   O     0.54421   0.84159   0.15877   0.00000  Uiso   1.00
O620   O     0.50532   0.82802   0.33749   0.00000  Uiso   1.00
O621   O     0.51182   0.74768   0.27820   0.00000  Uiso   1.00
O622   O     0.47914   0.92803   0.26767   0.00000  Uiso   1.00
O623   O     0.40785   0.79917   0.23607   0.00000  Uiso   1.00
O624   O     0.60119   0.85845   0.21805   0.00000  Uiso   1.00
O625   O     0.40323   0.85627   0.27820   0.00000  Uiso   1.00
O626   O     0.58773   0.81944   0.26767   0.00000  Uiso   1.00
O627   O     0.47133   0.73570   0.23607   0.00000  Uiso   1.00
O628   O     0.53771   0.92193   0.21805   0.00000  Uiso   1.00
Zn629  Zn    0.52577   0.80756   0.28277   0.00000  Uiso   1.00
Zn630  Zn    0.46792   0.79044   0.22257   0.00000  Uiso   1.00
Zn631  Zn    0.54500   0.86331   0.21188   0.00000  Uiso   1.00
Zn632  Zn    0.46131   0.87202   0.28277   0.00000  Uiso   1.00
C633   C     0.71951   0.82694   0.25831   0.00000  Uiso   1.00
C634   C     0.86997   0.80061   0.45837   0.00000  Uiso   1.00
C635   C     0.88625   0.77590   0.47845   0.00000  Uiso   1.00
C636   C     0.94760   0.84008   0.24140   0.00000  Uiso   1.00
C637   C     0.87928   0.78479   0.01959   0.00000  Uiso   1.00
C638   C     0.85844   0.82044   0.03949   0.00000  Uiso   1.00
C639   C     0.89264   0.75883   0.04138   0.00000  Uiso   1.00
C640   C     0.88540   0.76702   0.08214   0.00000  Uiso   1.00
C641   C     0.85150   0.82815   0.08061   0.00000  Uiso   1.00
C642   C     0.99324   0.84209   0.23840   0.00000  Uiso   1.00
C643   C     0.67411   0.82366   0.26305   0.00000  Uiso   1.00
C644   C     0.79110   0.90438   0.41668   0.00000  Uiso   1.00
C645   C     0.84741   0.98880   0.23802   0.00000  Uiso   1.00
C646   C     0.81836   0.67876   0.26218   0.00000  Uiso   1.00
C647   C     0.82263   0.72279   0.25892   0.00000  Uiso   1.00
C648   C     0.84350   0.94431   0.24134   0.00000  Uiso   1.00
C649   C     0.85489   0.81183   0.14412   0.00000  Uiso   1.00
C650   C     0.81255   0.85475   0.35612   0.00000  Uiso   1.00
C651   C     0.80814   0.86737   0.39826   0.00000  Uiso   1.00
C652   C     0.86469   0.80212   0.10157   0.00000  Uiso   1.00
C653   C     0.79069   0.91858   0.45592   0.00000  Uiso   1.00
C654   C     0.90006   0.73770   0.10387   0.00000  Uiso   1.00
C655   C     0.82438   0.84364   0.41902   0.00000  Uiso   1.00
C656   C     0.86825   0.69829   0.11062   0.00000  Uiso   1.00
C657   C     0.91030   0.73993   0.45462   0.00000  Uiso   1.00
C658   C     0.88087   0.69869   0.45676   0.00000  Uiso   1.00
C659   C     0.77133   0.95871   0.47626   0.00000  Uiso   1.00
C660   C     0.75337   0.98251   0.45158   0.00000  Uiso   1.00
C661   C     0.82713   0.85745   0.45745   0.00000  Uiso   1.00
C662   C     0.80909   0.89484   0.47635   0.00000  Uiso   1.00
C663   C     0.84665   0.83446   0.47769   0.00000  Uiso   1.00
C664   C     0.84375   0.84638   0.01809   0.00000  Uiso   1.00
C665   C     0.82657   0.88410   0.03570   0.00000  Uiso   1.00
C666   C     0.81002   0.90775   0.01530   0.00000  Uiso   1.00
H667   H     0.79753   0.93623   0.03097   0.00000  Uiso   1.00
H668   H     0.87713   0.79309   0.42696   0.00000  Uiso   1.00
H669   H     0.98478   0.81547   0.32090   0.00000  Uiso   1.00
H670   H     0.98760   0.77075   0.29018   0.00000  Uiso   1.00
H671   H     0.83605   0.70659   0.12846   0.00000  Uiso   1.00
H672   H     0.86557   0.68113   0.08206   0.00000  Uiso   1.00
H673   H     0.87954   0.67741   0.12674   0.00000  Uiso   1.00
H674   H     0.93224   0.72880   0.08653   0.00000  Uiso   1.00
H675   H     0.90381   0.75300   0.13273   0.00000  Uiso   1.00
H676   H     0.86768   0.69092   0.48759   0.00000  Uiso   1.00
H677   H     0.85378   0.70082   0.44444   0.00000  Uiso   1.00
H678   H     0.90843   0.73152   0.02728   0.00000  Uiso   1.00
H679   H     0.89928   0.67301   0.43923   0.00000  Uiso   1.00
H680   H     0.92307   0.74571   0.42313   0.00000  Uiso   1.00
H681   H     0.93908   0.73736   0.46433   0.00000  Uiso   1.00
H682   H     0.77917   0.99276   0.42559   0.00000  Uiso   1.00
H683   H     0.72668   0.96277   0.44205   0.00000  Uiso   1.00
H684   H     0.74045   0.67754   0.46967   0.00000  Uiso   1.00
H685   H     0.74473   0.95081   0.00261   0.00000  Uiso   1.00
H686   H     0.79642   0.98060   0.48629   0.00000  Uiso   1.00
H687   H     0.68272   0.85901   0.21542   0.00000  Uiso   1.00
H688   H     0.87417   0.66939   0.21575   0.00000  Uiso   1.00
H689   H     0.79126   0.99897   0.28456   0.00000  Uiso   1.00
H690   H     0.83417   0.85330   0.09784   0.00000  Uiso   1.00
H691   H     0.77875   0.92215   0.39979   0.00000  Uiso   1.00
H692   H     0.83415   0.81395   0.40438   0.00000  Uiso   1.00
H693   H     0.82637   0.89719   0.06518   0.00000  Uiso   1.00
N694   N     0.97924   0.80126   0.29437   0.00000  Uiso   1.00
O695   O     0.83333   0.83333   0.25000   0.00000  Uiso   1.00
O696   O     0.82360   0.79060   0.16625   0.00000  Uiso   1.00
O697   O     0.79354   0.87313   0.33749   0.00000  Uiso   1.00
O698   O     0.87755   0.84159   0.15877   0.00000  Uiso   1.00
O699   O     0.83865   0.82802   0.33749   0.00000  Uiso   1.00
O700   O     0.84515   0.74768   0.27820   0.00000  Uiso   1.00
O701   O     0.81247   0.92803   0.26767   0.00000  Uiso   1.00
O702   O     0.74119   0.79917   0.23607   0.00000  Uiso   1.00
O703   O     0.93452   0.85845   0.21805   0.00000  Uiso   1.00
O704   O     0.73656   0.85627   0.27820   0.00000  Uiso   1.00
O705   O     0.92106   0.81944   0.26767   0.00000  Uiso   1.00
O706   O     0.80467   0.73570   0.23607   0.00000  Uiso   1.00
O707   O     0.87104   0.92193   0.21805   0.00000  Uiso   1.00
Zn708  Zn    0.85910   0.80756   0.28277   0.00000  Uiso   1.00
Zn709  Zn    0.80125   0.79044   0.22257   0.00000  Uiso   1.00
Zn710  Zn    0.87833   0.86331   0.21188   0.00000  Uiso   1.00
Zn711  Zn    0.79465   0.87202   0.28277   0.00000  Uiso   1.00
C712   C     0.05284   0.16027   0.75831   0.00000  Uiso   1.00
C713   C     0.20331   0.13394   0.95837   0.00000  Uiso   1.00
C714   C     0.21958   0.10923   0.97845   0.00000  Uiso   1.00
C715   C     0.28093   0.17341   0.74140   0.00000  Uiso   1.00
C716   C     0.21262   0.11812   0.51959   0.00000  Uiso   1.00
C717   C     0.19177   0.15377   0.53949   0.00000  Uiso   1.00
C718   C     0.22597   0.09217   0.54138   0.00000  Uiso   1.00
C719   C     0.21874   0.10036   0.58214   0.00000  Uiso   1.00
C720   C     0.18483   0.16149   0.58061   0.00000  Uiso   1.00
C721   C     0.32657   0.17542   0.73840   0.00000  Uiso   1.00
C722   C     0.00744   0.15700   0.76305   0.00000  Uiso   1.00
C723   C     0.12443   0.23771   0.91668   0.00000  Uiso   1.00
C724   C     0.18075   0.32214   0.73802   0.00000  Uiso   1.00
C725   C     0.15170   0.01209   0.76218   0.00000  Uiso   1.00
C726   C     0.15596   0.05612   0.75892   0.00000  Uiso   1.00
C727   C     0.17683   0.27764   0.74134   0.00000  Uiso   1.00
C728   C     0.18822   0.14516   0.64412   0.00000  Uiso   1.00
C729   C     0.14588   0.18809   0.85612   0.00000  Uiso   1.00
C730   C     0.14147   0.20070   0.89826   0.00000  Uiso   1.00
C731   C     0.19802   0.13545   0.60157   0.00000  Uiso   1.00
C732   C     0.12403   0.25191   0.95592   0.00000  Uiso   1.00
C733   C     0.23339   0.07104   0.60387   0.00000  Uiso   1.00
C734   C     0.15771   0.17697   0.91902   0.00000  Uiso   1.00
C735   C     0.20159   0.03162   0.61062   0.00000  Uiso   1.00
C736   C     0.24363   0.07326   0.95462   0.00000  Uiso   1.00
C737   C     0.21420   0.03203   0.95676   0.00000  Uiso   1.00
C738   C     0.10467   0.29205   0.97626   0.00000  Uiso   1.00
C739   C     0.08670   0.31585   0.95158   0.00000  Uiso   1.00
C740   C     0.16046   0.19078   0.95745   0.00000  Uiso   1.00
C741   C     0.14242   0.22817   0.97635   0.00000  Uiso   1.00
C742   C     0.17999   0.16779   0.97769   0.00000  Uiso   1.00
C743   C     0.17709   0.17971   0.51809   0.00000  Uiso   1.00
C744   C     0.15990   0.21744   0.53570   0.00000  Uiso   1.00
C745   C     0.14335   0.24108   0.51530   0.00000  Uiso   1.00
H746   H     0.13087   0.26956   0.53097   0.00000  Uiso   1.00
H747   H     0.21047   0.12642   0.92696   0.00000  Uiso   1.00
H748   H     0.31811   0.14880   0.82090   0.00000  Uiso   1.00
H749   H     0.32093   0.10409   0.79018   0.00000  Uiso   1.00
H750   H     0.16939   0.03992   0.62846   0.00000  Uiso   1.00
H751   H     0.19890   0.01447   0.58206   0.00000  Uiso   1.00
H752   H     0.21288   0.01074   0.62674   0.00000  Uiso   1.00
H753   H     0.26557   0.06214   0.58653   0.00000  Uiso   1.00
H754   H     0.23714   0.08633   0.63273   0.00000  Uiso   1.00
H755   H     0.20102   0.02426   0.98759   0.00000  Uiso   1.00
H756   H     0.18711   0.03416   0.94444   0.00000  Uiso   1.00
H757   H     0.24177   0.06485   0.52728   0.00000  Uiso   1.00
H758   H     0.23261   0.00635   0.93923   0.00000  Uiso   1.00
H759   H     0.25641   0.07904   0.92313   0.00000  Uiso   1.00
H760   H     0.27241   0.07070   0.96433   0.00000  Uiso   1.00
H761   H     0.11250   0.32610   0.92559   0.00000  Uiso   1.00
H762   H     0.06002   0.29610   0.94205   0.00000  Uiso   1.00
H763   H     0.07378   0.01087   0.96967   0.00000  Uiso   1.00
H764   H     0.07807   0.28414   0.50261   0.00000  Uiso   1.00
H765   H     0.12975   0.31393   0.98629   0.00000  Uiso   1.00
H766   H     0.01605   0.19235   0.71542   0.00000  Uiso   1.00
H767   H     0.20751   0.00273   0.71575   0.00000  Uiso   1.00
H768   H     0.12459   0.33230   0.78456   0.00000  Uiso   1.00
H769   H     0.16750   0.18664   0.59784   0.00000  Uiso   1.00
H770   H     0.11209   0.25548   0.89979   0.00000  Uiso   1.00
H771   H     0.16749   0.14729   0.90438   0.00000  Uiso   1.00
H772   H     0.15970   0.23052   0.56518   0.00000  Uiso   1.00
N773   N     0.31257   0.13459   0.79437   0.00000  Uiso   1.00
O774   O     0.16667   0.16667   0.75000   0.00000  Uiso   1.00
O775   O     0.15693   0.12393   0.66625   0.00000  Uiso   1.00
O776   O     0.12687   0.20646   0.83749   0.00000  Uiso   1.00
O777   O     0.21088   0.17493   0.65877   0.00000  Uiso   1.00
O778   O     0.17198   0.16135   0.83749   0.00000  Uiso   1.00
O779   O     0.17849   0.08101   0.77820   0.00000  Uiso   1.00
O780   O     0.14581   0.26136   0.76767   0.00000  Uiso   1.00
O781   O     0.07452   0.13251   0.73607   0.00000  Uiso   1.00
O782   O     0.26785   0.19179   0.71805   0.00000  Uiso   1.00
O783   O     0.06990   0.18960   0.77820   0.00000  Uiso   1.00
O784   O     0.25440   0.15277   0.76767   0.00000  Uiso   1.00
O785   O     0.13800   0.06903   0.73607   0.00000  Uiso   1.00
O786   O     0.20437   0.25527   0.71805   0.00000  Uiso   1.00
Zn787  Zn    0.19244   0.14090   0.78277   0.00000  Uiso   1.00
Zn788  Zn    0.13459   0.12378   0.72257   0.00000  Uiso   1.00
Zn789  Zn    0.21166   0.19664   0.71188   0.00000  Uiso   1.00
Zn790  Zn    0.12798   0.20535   0.78277   0.00000  Uiso   1.00
C791   C     0.38617   0.16027   0.75831   0.00000  Uiso   1.00
C792   C     0.53664   0.13394   0.95837   0.00000  Uiso   1.00
C793   C     0.55292   0.10923   0.97845   0.00000  Uiso   1.00
C794   C     0.61427   0.17341   0.74140   0.00000  Uiso   1.00
C795   C     0.54595   0.11812   0.51959   0.00000  Uiso   1.00
C796   C     0.52510   0.15377   0.53949   0.00000  Uiso   1.00
C797   C     0.55931   0.09217   0.54138   0.00000  Uiso   1.00
C798   C     0.55207   0.10036   0.58214   0.00000  Uiso   1.00
C799   C     0.51816   0.16149   0.58061   0.00000  Uiso   1.00
C800   C     0.65990   0.17542   0.73840   0.00000  Uiso   1.00
C801   C     0.34078   0.15700   0.76305   0.00000  Uiso   1.00
C802   C     0.45776   0.23771   0.91668   0.00000  Uiso   1.00
C803   C     0.51408   0.32214   0.73802   0.00000  Uiso   1.00
C804   C     0.48503   0.01209   0.76218   0.00000  Uiso   1.00
C805   C     0.48929   0.05612   0.75892   0.00000  Uiso   1.00
C806   C     0.51016   0.27764   0.74134   0.00000  Uiso   1.00
C807   C     0.52156   0.14516   0.64412   0.00000  Uiso   1.00
C808   C     0.47921   0.18809   0.85612   0.00000  Uiso   1.00
C809   C     0.47481   0.20070   0.89826   0.00000  Uiso   1.00
C810   C     0.53135   0.13545   0.60157   0.00000  Uiso   1.00
C811   C     0.45736   0.25191   0.95592   0.00000  Uiso   1.00
C812   C     0.56673   0.07104   0.60387   0.00000  Uiso   1.00
C813   C     0.49105   0.17697   0.91902   0.00000  Uiso   1.00
C814   C     0.53492   0.03162   0.61062   0.00000  Uiso   1.00
C815   C     0.57697   0.07326   0.95462   0.00000  Uiso   1.00
C816   C     0.54754   0.03203   0.95676   0.00000  Uiso   1.00
C817   C     0.43800   0.29205   0.97626   0.00000  Uiso   1.00
C818   C     0.42004   0.31585   0.95158   0.00000  Uiso   1.00
C819   C     0.49380   0.19078   0.95745   0.00000  Uiso   1.00
C820   C     0.47576   0.22817   0.97635   0.00000  Uiso   1.00
C821   C     0.51332   0.16779   0.97769   0.00000  Uiso   1.00
C822   C     0.51042   0.17971   0.51809   0.00000  Uiso   1.00
C823   C     0.49324   0.21744   0.53570   0.00000  Uiso   1.00
C824   C     0.47668   0.24108   0.51530   0.00000  Uiso   1.00
H825   H     0.46420   0.26956   0.53097   0.00000  Uiso   1.00
H826   H     0.54380   0.12642   0.92696   0.00000  Uiso   1.00
H827   H     0.65145   0.14880   0.82090   0.00000  Uiso   1.00
H828   H     0.65426   0.10409   0.79018   0.00000  Uiso   1.00
H829   H     0.50272   0.03992   0.62846   0.00000  Uiso   1.00
H830   H     0.53224   0.01447   0.58206   0.00000  Uiso   1.00
H831   H     0.54621   0.01074   0.62674   0.00000  Uiso   1.00
H832   H     0.59891   0.06214   0.58653   0.00000  Uiso   1.00
H833   H     0.57048   0.08633   0.63273   0.00000  Uiso   1.00
H834   H     0.53435   0.02426   0.98759   0.00000  Uiso   1.00
H835   H     0.52044   0.03416   0.94444   0.00000  Uiso   1.00
H836   H     0.57510   0.06485   0.52728   0.00000  Uiso   1.00
H837   H     0.56595   0.00635   0.93923   0.00000  Uiso   1.00
H838   H     0.58974   0.07904   0.92313   0.00000  Uiso   1.00
H839   H     0.60574   0.07070   0.96433   0.00000  Uiso   1.00
H840   H     0.44583   0.32610   0.92559   0.00000  Uiso   1.00
H841   H     0.39335   0.29610   0.94205   0.00000  Uiso   1.00
H842   H     0.40712   0.01087   0.96967   0.00000  Uiso   1.00
H843   H     0.41140   0.28414   0.50261   0.00000  Uiso   1.00
H844   H     0.46308   0.31393   0.98629   0.00000  Uiso   1.00
H845   H     0.34939   0.19235   0.71542   0.00000  Uiso   1.00
H846   H     0.54084   0.00273   0.71575   0.00000  Uiso   1.00
H847   H     0.45793   0.33230   0.78456   0.00000  Uiso   1.00
H848   H     0.50083   0.18664   0.59784   0.00000  Uiso   1.00
H849   H     0.44542   0.25548   0.89979   0.00000  Uiso   1.00
H850   H     0.50082   0.14729   0.90438   0.00000  Uiso   1.00
H851   H     0.49304   0.23052   0.56518   0.00000  Uiso   1.00
N852   N     0.64590   0.13459   0.79437   0.00000  Uiso   1.00
O853   O     0.50000   0.16667   0.75000   0.00000  Uiso   1.00
O854   O     0.49027   0.12393   0.66625   0.00000  Uiso   1.00
O855   O     0.46020   0.20646   0.83749   0.00000  Uiso   1.00
O856   O     0.54421   0.17493   0.65877   0.00000  Uiso   1.00
O857   O     0.50532   0.16135   0.83749   0.00000  Uiso   1.00
O858   O     0.51182   0.08101   0.77820   0.00000  Uiso   1.00
O859   O     0.47914   0.26136   0.76767   0.00000  Uiso   1.00
O860   O     0.40785   0.13251   0.73607   0.00000  Uiso   1.00
O861   O     0.60119   0.19179   0.71805   0.00000  Uiso   1.00
O862   O     0.40323   0.18960   0.77820   0.00000  Uiso   1.00
O863   O     0.58773   0.15277   0.76767   0.00000  Uiso   1.00
O864   O     0.47133   0.06903   0.73607   0.00000  Uiso   1.00
O865   O     0.53771   0.25527   0.71805   0.00000  Uiso   1.00
Zn866  Zn    0.52577   0.14090   0.78277   0.00000  Uiso   1.00
Zn867  Zn    0.46792   0.12378   0.72257   0.00000  Uiso   1.00
Zn868  Zn    0.54500   0.19664   0.71188   0.00000  Uiso   1.00
Zn869  Zn    0.46131   0.20535   0.78277   0.00000  Uiso   1.00
C870   C     0.71951   0.16027   0.75831   0.00000  Uiso   1.00
C871   C     0.86997   0.13394   0.95837   0.00000  Uiso   1.00
C872   C     0.88625   0.10923   0.97845   0.00000  Uiso   1.00
C873   C     0.94760   0.17341   0.74140   0.00000  Uiso   1.00
C874   C     0.87928   0.11812   0.51959   0.00000  Uiso   1.00
C875   C     0.85844   0.15377   0.53949   0.00000  Uiso   1.00
C876   C     0.89264   0.09217   0.54138   0.00000  Uiso   1.00
C877   C     0.88540   0.10036   0.58214   0.00000  Uiso   1.00
C878   C     0.85150   0.16149   0.58061   0.00000  Uiso   1.00
C879   C     0.99324   0.17542   0.73840   0.00000  Uiso   1.00
C880   C     0.67411   0.15700   0.76305   0.00000  Uiso   1.00
C881   C     0.79110   0.23771   0.91668   0.00000  Uiso   1.00
C882   C     0.84741   0.32214   0.73802   0.00000  Uiso   1.00
C883   C     0.81836   0.01209   0.76218   0.00000  Uiso   1.00
C884   C     0.82263   0.05612   0.75892   0.00000  Uiso   1.00
C885   C     0.84350   0.27764   0.74134   0.00000  Uiso   1.00
C886   C     0.85489   0.14516   0.64412   0.00000  Uiso   1.00
C887   C     0.81255   0.18809   0.85612   0.00000  Uiso   1.00
C888   C     0.80814   0.20070   0.89826   0.00000  Uiso   1.00
C889   C     0.86469   0.13545   0.60157   0.00000  Uiso   1.00
C890   C     0.79069   0.25191   0.95592   0.00000  Uiso   1.00
C891   C     0.90006   0.07104   0.60387   0.00000  Uiso   1.00
C892   C     0.82438   0.17697   0.91902   0.00000  Uiso   1.00
C893   C     0.86825   0.03162   0.61062   0.00000  Uiso   1.00
C894   C     0.91030   0.07326   0.95462   0.00000  Uiso   1.00
C895   C     0.88087   0.03203   0.95676   0.00000  Uiso   1.00
C896   C     0.77133   0.29205   0.97626   0.00000  Uiso   1.00
C897   C     0.75337   0.31585   0.95158   0.00000  Uiso   1.00
C898   C     0.82713   0.19078   0.95745   0.00000  Uiso   1.00
C899   C     0.80909   0.22817   0.97635   0.00000  Uiso   1.00
C900   C     0.84665   0.16779   0.97769   0.00000  Uiso   1.00
C901   C     0.84375   0.17971   0.51809   0.00000  Uiso   1.00
C902   C     0.82657   0.21744   0.53570   0.00000  Uiso   1.00
C903   C     0.81002   0.24108   0.51530   0.00000  Uiso   1.00
H904   H     0.79753   0.26956   0.53097   0.00000  Uiso   1.00
H905   H     0.87713   0.12642   0.92696   0.00000  Uiso   1.00
H906   H     0.98478   0.14880   0.82090   0.00000  Uiso   1.00
H907   H     0.98760   0.10409   0.79018   0.00000  Uiso   1.00
H908   H     0.83605   0.03992   0.62846   0.00000  Uiso   1.00
H909   H     0.86557   0.01447   0.58206   0.00000  Uiso   1.00
H910   H     0.87954   0.01074   0.62674   0.00000  Uiso   1.00
H911   H     0.93224   0.06214   0.58653   0.00000  Uiso   1.00
H912   H     0.90381   0.08633   0.63273   0.00000  Uiso   1.00
H913   H     0.86768   0.02426   0.98759   0.00000  Uiso   1.00
H914   H     0.85378   0.03416   0.94444   0.00000  Uiso   1.00
H915   H     0.90843   0.06485   0.52728   0.00000  Uiso   1.00
H916   H     0.89928   0.00635   0.93923   0.00000  Uiso   1.00
H917   H     0.92307   0.07904   0.92313   0.00000  Uiso   1.00
H918   H     0.93908   0.07070   0.96433   0.00000  Uiso   1.00
H919   H     0.77917   0.32610   0.92559   0.00000  Uiso   1.00
H920   H     0.72668   0.29610   0.94205   0.00000  Uiso   1.00
H921   H     0.74045   0.01087   0.96967   0.00000  Uiso   1.00
H922   H     0.74473   0.28414   0.50261   0.00000  Uiso   1.00
H923   H     0.79642   0.31393   0.98629   0.00000  Uiso   1.00
H924   H     0.68272   0.19235   0.71542   0.00000  Uiso   1.00
H925   H     0.87417   0.00273   0.71575   0.00000  Uiso   1.00
H926   H     0.79126   0.33230   0.78456   0.00000  Uiso   1.00
H927   H     0.83417   0.18664   0.59784   0.00000  Uiso   1.00
H928   H     0.77875   0.25548   0.89979   0.00000  Uiso   1.00
H929   H     0.83415   0.14729   0.90438   0.00000  Uiso   1.00
H930   H     0.82637   0.23052   0.56518   0.00000  Uiso   1.00
N931   N     0.97924   0.13459   0.79437   0.00000  Uiso   1.00
O932   O     0.83333   0.16667   0.75000   0.00000  Uiso   1.00
O933   O     0.82360   0.12393   0.66625   0.00000  Uiso   1.00
O934   O     0.79354   0.20646   0.83749   0.00000  Uiso   1.00
O935   O     0.87755   0.17493   0.65877   0.00000  Uiso   1.00
O936   O     0.83865   0.16135   0.83749   0.00000  Uiso   1.00
O937   O     0.84515   0.08101   0.77820   0.00000  Uiso   1.00
O938   O     0.81247   0.26136   0.76767   0.00000  Uiso   1.00
O939   O     0.74119   0.13251   0.73607   0.00000  Uiso   1.00
O940   O     0.93452   0.19179   0.71805   0.00000  Uiso   1.00
O941   O     0.73656   0.18960   0.77820   0.00000  Uiso   1.00
O942   O     0.92106   0.15277   0.76767   0.00000  Uiso   1.00
O943   O     0.80467   0.06903   0.73607   0.00000  Uiso   1.00
O944   O     0.87104   0.25527   0.71805   0.00000  Uiso   1.00
Zn945  Zn    0.85910   0.14090   0.78277   0.00000  Uiso   1.00
Zn946  Zn    0.80125   0.12378   0.72257   0.00000  Uiso   1.00
Zn947  Zn    0.87833   0.19664   0.71188   0.00000  Uiso   1.00
Zn948  Zn    0.79465   0.20535   0.78277   0.00000  Uiso   1.00
C949   C     0.05284   0.49361   0.75831   0.00000  Uiso   1.00
C950   C     0.20331   0.46728   0.95837   0.00000  Uiso   1.00
C951   C     0.21958   0.44256   0.97845   0.00000  Uiso   1.00
C952   C     0.28093   0.50675   0.74140   0.00000  Uiso   1.00
C953   C     0.21262   0.45145   0.51959   0.00000  Uiso   1.00
C954   C     0.19177   0.48710   0.53949   0.00000  Uiso   1.00
C955   C     0.22597   0.42550   0.54138   0.00000  Uiso   1.00
C956   C     0.21874   0.43369   0.58214   0.00000  Uiso   1.00
C957   C     0.18483   0.49482   0.58061   0.00000  Uiso   1.00
C958   C     0.32657   0.50875   0.73840   0.00000  Uiso   1.00
C959   C     0.00744   0.49033   0.76305   0.00000  Uiso   1.00
C960   C     0.12443   0.57105   0.91668   0.00000  Uiso   1.00
C961   C     0.18075   0.65547   0.73802   0.00000  Uiso   1.00
C962   C     0.15170   0.34543   0.76218   0.00000  Uiso   1.00
C963   C     0.15596   0.38946   0.75892   0.00000  Uiso   1.00
C964   C     0.17683   0.61097   0.74134   0.00000  Uiso   1.00
C965   C     0.18822   0.47850   0.64412   0.00000  Uiso   1.00
C966   C     0.14588   0.52142   0.85612   0.00000  Uiso   1.00
C967   C     0.14147   0.53404   0.89826   0.00000  Uiso   1.00
C968   C     0.19802   0.46879   0.60157   0.00000  Uiso   1.00
C969   C     0.12403   0.58524   0.95592   0.00000  Uiso   1.00
C970   C     0.23339   0.40437   0.60387   0.00000  Uiso   1.00
C971   C     0.15771   0.51031   0.91902   0.00000  Uiso   1.00
C972   C     0.20159   0.36496   0.61062   0.00000  Uiso   1.00
C973   C     0.24363   0.40660   0.95462   0.00000  Uiso   1.00
C974   C     0.21420   0.36536   0.95676   0.00000  Uiso   1.00
C975   C     0.10467   0.62538   0.97626   0.00000  Uiso   1.00
C976   C     0.08670   0.64918   0.95158   0.00000  Uiso   1.00
C977   C     0.16046   0.52411   0.95745   0.00000  Uiso   1.00
C978   C     0.14242   0.56150   0.97635   0.00000  Uiso   1.00
C979   C     0.17999   0.50113   0.97769   0.00000  Uiso   1.00
C980   C     0.17709   0.51304   0.51809   0.00000  Uiso   1.00
C981   C     0.15990   0.55077   0.53570   0.00000  Uiso   1.00
C982   C     0.14335   0.57442   0.51530   0.00000  Uiso   1.00
H983   H     0.13087   0.60289   0.53097   0.00000  Uiso   1.00
H984   H     0.21047   0.45976   0.92696   0.00000  Uiso   1.00
H985   H     0.31811   0.48214   0.82090   0.00000  Uiso   1.00
H986   H     0.32093   0.43742   0.79018   0.00000  Uiso   1.00
H987   H     0.16939   0.37326   0.62846   0.00000  Uiso   1.00
H988   H     0.19890   0.34780   0.58206   0.00000  Uiso   1.00
H989   H     0.21288   0.34407   0.62674   0.00000  Uiso   1.00
H990   H     0.26557   0.39547   0.58653   0.00000  Uiso   1.00
H991   H     0.23714   0.41966   0.63273   0.00000  Uiso   1.00
H992   H     0.20102   0.35759   0.98759   0.00000  Uiso   1.00
H993   H     0.18711   0.36749   0.94444   0.00000  Uiso   1.00
H994   H     0.24177   0.39819   0.52728   0.00000  Uiso   1.00
H995   H     0.23261   0.33968   0.93923   0.00000  Uiso   1.00
H996   H     0.25641   0.41237   0.92313   0.00000  Uiso   1.00
H997   H     0.27241   0.40403   0.96433   0.00000  Uiso   1.00
H998   H     0.11250   0.65943   0.92559   0.00000  Uiso   1.00
H999   H     0.06002   0.62943   0.94205   0.00000  Uiso   1.00
H1000  H     0.07378   0.34421   0.96967   0.00000  Uiso   1.00
H1001  H     0.07807   0.61748   0.50261   0.00000  Uiso   1.00
H1002  H     0.12975   0.64726   0.98629   0.00000  Uiso   1.00
H1003  H     0.01605   0.52568   0.71542   0.00000  Uiso   1.00
H1004  H     0.20751   0.33606   0.71575   0.00000  Uiso   1.00
H1005  H     0.12459   0.66563   0.78456   0.00000  Uiso   1.00
H1006  H     0.16750   0.51997   0.59784   0.00000  Uiso   1.00
H1007  H     0.11209   0.58881   0.89979   0.00000  Uiso   1.00
H1008  H     0.16749   0.48062   0.90438   0.00000  Uiso   1.00
H1009  H     0.15970   0.56385   0.56518   0.00000  Uiso   1.00
N1010  N     0.31257   0.46792   0.79437   0.00000  Uiso   1.00
O1011  O     0.16667   0.50000   0.75000   0.00000  Uiso   1.00
O1012  O     0.15693   0.45726   0.66625   0.00000  Uiso   1.00
O1013  O     0.12687   0.53979   0.83749   0.00000  Uiso   1.00
O1014  O     0.21088   0.50826   0.65877   0.00000  Uiso   1.00
O1015  O     0.17198   0.49468   0.83749   0.00000  Uiso   1.00
O1016  O     0.17849   0.41434   0.77820   0.00000  Uiso   1.00
O1017  O     0.14581   0.59469   0.76767   0.00000  Uiso   1.00
O1018  O     0.07452   0.46584   0.73607   0.00000  Uiso   1.00
O1019  O     0.26785   0.52512   0.71805   0.00000  Uiso   1.00
O1020  O     0.06990   0.52293   0.77820   0.00000  Uiso   1.00
O1021  O     0.25440   0.48610   0.76767   0.00000  Uiso   1.00
O1022  O     0.13800   0.40236   0.73607   0.00000  Uiso   1.00
O1023  O     0.20437   0.58860   0.71805   0.00000  Uiso   1.00
Zn1024 Zn    0.19244   0.47423   0.78277   0.00000  Uiso   1.00
Zn1025 Zn    0.13459   0.45711   0.72257   0.00000  Uiso   1.00
Zn1026 Zn    0.21166   0.52997   0.71188   0.00000  Uiso   1.00
Zn1027 Zn    0.12798   0.53868   0.78277   0.00000  Uiso   1.00
C1028  C     0.38617   0.49361   0.75831   0.00000  Uiso   1.00
C1029  C     0.53664   0.46728   0.95837   0.00000  Uiso   1.00
C1030  C     0.55292   0.44256   0.97845   0.00000  Uiso   1.00
C1031  C     0.61427   0.50675   0.74140   0.00000  Uiso   1.00
C1032  C     0.54595   0.45145   0.51959   0.00000  Uiso   1.00
C1033  C     0.52510   0.48710   0.53949   0.00000  Uiso   1.00
C1034  C     0.55931   0.42550   0.54138   0.00000  Uiso   1.00
C1035  C     0.55207   0.43369   0.58214   0.00000  Uiso   1.00
C1036  C     0.51816   0.49482   0.58061   0.00000  Uiso   1.00
C1037  C     0.65990   0.50875   0.73840   0.00000  Uiso   1.00
C1038  C     0.34078   0.49033   0.76305   0.00000  Uiso   1.00
C1039  C     0.45776   0.57105   0.91668   0.00000  Uiso   1.00
C1040  C     0.51408   0.65547   0.73802   0.00000  Uiso   1.00
C1041  C     0.48503   0.34543   0.76218   0.00000  Uiso   1.00
C1042  C     0.48929   0.38946   0.75892   0.00000  Uiso   1.00
C1043  C     0.51016   0.61097   0.74134   0.00000  Uiso   1.00
C1044  C     0.52156   0.47850   0.64412   0.00000  Uiso   1.00
C1045  C     0.47921   0.52142   0.85612   0.00000  Uiso   1.00
C1046  C     0.47481   0.53404   0.89826   0.00000  Uiso   1.00
C1047  C     0.53135   0.46879   0.60157   0.00000  Uiso   1.00
C1048  C     0.45736   0.58524   0.95592   0.00000  Uiso   1.00
C1049  C     0.56673   0.40437   0.60387   0.00000  Uiso   1.00
C1050  C     0.49105   0.51031   0.91902   0.00000  Uiso   1.00
C1051  C     0.53492   0.36496   0.61062   0.00000  Uiso   1.00
C1052  C     0.57697   0.40660   0.95462   0.00000  Uiso   1.00
C1053  C     0.54754   0.36536   0.95676   0.00000  Uiso   1.00
C1054  C     0.43800   0.62538   0.97626   0.00000  Uiso   1.00
C1055  C     0.42004   0.64918   0.95158   0.00000  Uiso   1.00
C1056  C     0.49380   0.52411   0.95745   0.00000  Uiso   1.00
C1057  C     0.47576   0.56150   0.97635   0.00000  Uiso   1.00
C1058  C     0.51332   0.50113   0.97769   0.00000  Uiso   1.00
C1059  C     0.51042   0.51304   0.51809   0.00000  Uiso   1.00
C1060  C     0.49324   0.55077   0.53570   0.00000  Uiso   1.00
C1061  C     0.47668   0.57442   0.51530   0.00000  Uiso   1.00
H1062  H     0.46420   0.60289   0.53097   0.00000  Uiso   1.00
H1063  H     0.54380   0.45976   0.92696   0.00000  Uiso   1.00
H1064  H     0.65145   0.48214   0.82090   0.00000  Uiso   1.00
H1065  H     0.65426   0.43742   0.79018   0.00000  Uiso   1.00
H1066  H     0.50272   0.37326   0.62846   0.00000  Uiso   1.00
H1067  H     0.53224   0.34780   0.58206   0.00000  Uiso   1.00
H1068  H     0.54621   0.34407   0.62674   0.00000  Uiso   1.00
H1069  H     0.59891   0.39547   0.58653   0.00000  Uiso   1.00
H1070  H     0.57048   0.41966   0.63273   0.00000  Uiso   1.00
H1071  H     0.53435   0.35759   0.98759   0.00000  Uiso   1.00
H1072  H     0.52044   0.36749   0.94444   0.00000  Uiso   1.00
H1073  H     0.57510   0.39819   0.52728   0.00000  Uiso   1.00
H1074  H     0.56595   0.33968   0.93923   0.00000  Uiso   1.00
H1075  H     0.58974   0.41237   0.92313   0.00000  Uiso   1.00
H1076  H     0.60574   0.40403   0.96433   0.00000  Uiso   1.00
H1077  H     0.44583   0.65943   0.92559   0.00000  Uiso   1.00
H1078  H     0.39335   0.62943   0.94205   0.00000  Uiso   1.00
H1079  H     0.40712   0.34421   0.96967   0.00000  Uiso   1.00
H1080  H     0.41140   0.61748   0.50261   0.00000  Uiso   1.00
H1081  H     0.46308   0.64726   0.98629   0.00000  Uiso   1.00
H1082  H     0.34939   0.52568   0.71542   0.00000  Uiso   1.00
H1083  H     0.54084   0.33606   0.71575   0.00000  Uiso   1.00
H1084  H     0.45793   0.66563   0.78456   0.00000  Uiso   1.00
H1085  H     0.50083   0.51997   0.59784   0.00000  Uiso   1.00
H1086  H     0.44542   0.58881   0.89979   0.00000  Uiso   1.00
H1087  H     0.50082   0.48062   0.90438   0.00000  Uiso   1.00
H1088  H     0.49304   0.56385   0.56518   0.00000  Uiso   1.00
N1089  N     0.64590   0.46792   0.79437   0.00000  Uiso   1.00
O1090  O     0.50000   0.50000   0.75000   0.00000  Uiso   1.00
O1091  O     0.49027   0.45726   0.66625   0.00000  Uiso   1.00
O1092  O     0.46020   0.53979   0.83749   0.00000  Uiso   1.00
O1093  O     0.54421   0.50826   0.65877   0.00000  Uiso   1.00
O1094  O     0.50532   0.49468   0.83749   0.00000  Uiso   1.00
O1095  O     0.51182   0.41434   0.77820   0.00000  Uiso   1.00
O1096  O     0.47914   0.59469   0.76767   0.00000  Uiso   1.00
O1097  O     0.40785   0.46584   0.73607   0.00000  Uiso   1.00
O1098  O     0.60119   0.52512   0.71805   0.00000  Uiso   1.00
O1099  O     0.40323   0.52293   0.77820   0.00000  Uiso   1.00
O1100  O     0.58773   0.48610   0.76767   0.00000  Uiso   1.00
O1101  O     0.47133   0.40236   0.73607   0.00000  Uiso   1.00
O1102  O     0.53771   0.58860   0.71805   0.00000  Uiso   1.00
Zn1103 Zn    0.52577   0.47423   0.78277   0.00000  Uiso   1.00
Zn1104 Zn    0.46792   0.45711   0.72257   0.00000  Uiso   1.00
Zn1105 Zn    0.54500   0.52997   0.71188   0.00000  Uiso   1.00
Zn1106 Zn    0.46131   0.53868   0.78277   0.00000  Uiso   1.00
C1107  C     0.71951   0.49361   0.75831   0.00000  Uiso   1.00
C1108  C     0.86997   0.46728   0.95837   0.00000  Uiso   1.00
C1109  C     0.88625   0.44256   0.97845   0.00000  Uiso   1.00
C1110  C     0.94760   0.50675   0.74140   0.00000  Uiso   1.00
C1111  C     0.87928   0.45145   0.51959   0.00000  Uiso   1.00
C1112  C     0.85844   0.48710   0.53949   0.00000  Uiso   1.00
C1113  C     0.89264   0.42550   0.54138   0.00000  Uiso   1.00
C1114  C     0.88540   0.43369   0.58214   0.00000  Uiso   1.00
C1115  C     0.85150   0.49482   0.58061   0.00000  Uiso   1.00
C1116  C     0.99324   0.50875   0.73840   0.00000  Uiso   1.00
C1117  C     0.67411   0.49033   0.76305   0.00000  Uiso   1.00
C1118  C     0.79110   0.57105   0.91668   0.00000  Uiso   1.00
C1119  C     0.84741   0.65547   0.73802   0.00000  Uiso   1.00
C1120  C     0.81836   0.34543   0.76218   0.00000  Uiso   1.00
C1121  C     0.82263   0.38946   0.75892   0.00000  Uiso   1.00
C1122  C     0.84350   0.61097   0.74134   0.00000  Uiso   1.00
C1123  C     0.85489   0.47850   0.64412   0.00000  Uiso   1.00
C1124  C     0.81255   0.52142   0.85612   0.00000  Uiso   1.00
C1125  C     0.80814   0.53404   0.89826   0.00000  Uiso   1.00
C1126  C     0.86469   0.46879   0.60157   0.00000  Uiso   1.00
C1127  C     0.79069   0.58524   0.95592   0.00000  Uiso   1.00
C1128  C     0.90006   0.40437   0.60387   0.00000  Uiso   1.00
C1129  C     0.82438   0.51031   0.91902   0.00000  Uiso   1.00
C1130  C     0.86825   0.36496   0.61062   0.00000  Uiso   1.00
C1131  C     0.91030   0.40660   0.95462   0.00000  Uiso   1.00
C1132  C     0.88087   0.36536   0.95676   0.00000  Uiso   1.00
C1133  C     0.77133   0.62538   0.97626   0.00000  Uiso   1.00
C1134  C     0.75337   0.64918   0.95158   0.00000  Uiso   1.00
C1135  C     0.82713   0.52411   0.95745   0.00000  Uiso   1.00
C1136  C     0.80909   0.56150   0.97635   0.00000  Uiso   1.00
C1137  C     0.84665   0.50113   0.97769   0.00000  Uiso   1.00
C1138  C     0.84375   0.51304   0.51809   0.00000  Uiso   1.00
C1139  C     0.82657   0.55077   0.53570   0.00000  Uiso   1.00
C1140  C     0.81002   0.57442   0.51530   0.00000  Uiso   1.00
H1141  H     0.79753   0.60289   0.53097   0.00000  Uiso   1.00
H1142  H     0.87713   0.45976   0.92696   0.00000  Uiso   1.00
H1143  H     0.98478   0.48214   0.82090   0.00000  Uiso   1.00
H1144  H     0.98760   0.43742   0.79018   0.00000  Uiso   1.00
H1145  H     0.83605   0.37326   0.62846   0.00000  Uiso   1.00
H1146  H     0.86557   0.34780   0.58206   0.00000  Uiso   1.00
H1147  H     0.87954   0.34407   0.62674   0.00000  Uiso   1.00
H1148  H     0.93224   0.39547   0.58653   0.00000  Uiso   1.00
H1149  H     0.90381   0.41966   0.63273   0.00000  Uiso   1.00
H1150  H     0.86768   0.35759   0.98759   0.00000  Uiso   1.00
H1151  H     0.85378   0.36749   0.94444   0.00000  Uiso   1.00
H1152  H     0.90843   0.39819   0.52728   0.00000  Uiso   1.00
H1153  H     0.89928   0.33968   0.93923   0.00000  Uiso   1.00
H1154  H     0.92307   0.41237   0.92313   0.00000  Uiso   1.00
H1155  H     0.93908   0.40403   0.96433   0.00000  Uiso   1.00
H1156  H     0.77917   0.65943   0.92559   0.00000  Uiso   1.00
H1157  H     0.72668   0.62943   0.94205   0.00000  Uiso   1.00
H1158  H     0.74045   0.34421   0.96967   0.00000  Uiso   1.00
H1159  H     0.74473   0.61748   0.50261   0.00000  Uiso   1.00
H1160  H     0.79642   0.64726   0.98629   0.00000  Uiso   1.00
H1161  H     0.68272   0.52568   0.71542   0.00000  Uiso   1.00
H1162  H     0.87417   0.33606   0.71575   0.00000  Uiso   1.00
H1163  H     0.79126   0.66563   0.78456   0.00000  Uiso   1.00
H1164  H     0.83417   0.51997   0.59784   0.00000  Uiso   1.00
H1165  H     0.77875   0.58881   0.89979   0.00000  Uiso   1.00
H1166  H     0.83415   0.48062   0.90438   0.00000  Uiso   1.00
H1167  H     0.82637   0.56385   0.56518   0.00000  Uiso   1.00
N1168  N     0.97924   0.46792   0.79437   0.00000  Uiso   1.00
O1169  O     0.83333   0.50000   0.75000   0.00000  Uiso   1.00
O1170  O     0.82360   0.45726   0.66625   0.00000  Uiso   1.00
O1171  O     0.79354   0.53979   0.83749   0.00000  Uiso   1.00
O1172  O     0.87755   0.50826   0.65877   0.00000  Uiso   1.00
O1173  O     0.83865   0.49468   0.83749   0.00000  Uiso   1.00
O1174  O     0.84515   0.41434   0.77820   0.00000  Uiso   1.00
O1175  O     0.81247   0.59469   0.76767   0.00000  Uiso   1.00
O1176  O     0.74119   0.46584   0.73607   0.00000  Uiso   1.00
O1177  O     0.93452   0.52512   0.71805   0.00000  Uiso   1.00
O1178  O     0.73656   0.52293   0.77820   0.00000  Uiso   1.00
O1179  O     0.92106   0.48610   0.76767   0.00000  Uiso   1.00
O1180  O     0.80467   0.40236   0.73607   0.00000  Uiso   1.00
O1181  O     0.87104   0.58860   0.71805   0.00000  Uiso   1.00
Zn1182 Zn    0.85910   0.47423   0.78277   0.00000  Uiso   1.00
Zn1183 Zn    0.80125   0.45711   0.72257   0.00000  Uiso   1.00
Zn1184 Zn    0.87833   0.52997   0.71188   0.00000  Uiso   1.00
Zn1185 Zn    0.79465   0.53868   0.78277   0.00000  Uiso   1.00
C1186  C     0.05284   0.82694   0.75831   0.00000  Uiso   1.00
C1187  C     0.20331   0.80061   0.95837   0.00000  Uiso   1.00
C1188  C     0.21958   0.77590   0.97845   0.00000  Uiso   1.00
C1189  C     0.28093   0.84008   0.74140   0.00000  Uiso   1.00
C1190  C     0.21262   0.78479   0.51959   0.00000  Uiso   1.00
C1191  C     0.19177   0.82044   0.53949   0.00000  Uiso   1.00
C1192  C     0.22597   0.75883   0.54138   0.00000  Uiso   1.00
C1193  C     0.21874   0.76702   0.58214   0.00000  Uiso   1.00
C1194  C     0.18483   0.82815   0.58061   0.00000  Uiso   1.00
C1195  C     0.32657   0.84209   0.73840   0.00000  Uiso   1.00
C1196  C     0.00744   0.82366   0.76305   0.00000  Uiso   1.00
C1197  C     0.12443   0.90438   0.91668   0.00000  Uiso   1.00
C1198  C     0.18075   0.98880   0.73802   0.00000  Uiso   1.00
C1199  C     0.15170   0.67876   0.76218   0.00000  Uiso   1.00
C1200  C     0.15596   0.72279   0.75892   0.00000  Uiso   1.00
C1201  C     0.17683   0.94431   0.74134   0.00000  Uiso   1.00
C1202  C     0.18822   0.81183   0.64412   0.00000  Uiso   1.00
C1203  C     0.14588   0.85475   0.85612   0.00000  Uiso   1.00
C1204  C     0.14147   0.86737   0.89826   0.00000  Uiso   1.00
C1205  C     0.19802   0.80212   0.60157   0.00000  Uiso   1.00
C1206  C     0.12403   0.91858   0.95592   0.00000  Uiso   1.00
C1207  C     0.23339   0.73770   0.60387   0.00000  Uiso   1.00
C1208  C     0.15771   0.84364   0.91902   0.00000  Uiso   1.00
C1209  C     0.20159   0.69829   0.61062   0.00000  Uiso   1.00
C1210  C     0.24363   0.73993   0.95462   0.00000  Uiso   1.00
C1211  C     0.21420   0.69869   0.95676   0.00000  Uiso   1.00
C1212  C     0.10467   0.95871   0.97626   0.00000  Uiso   1.00
C1213  C     0.08670   0.98251   0.95158   0.00000  Uiso   1.00
C1214  C     0.16046   0.85745   0.95745   0.00000  Uiso   1.00
C1215  C     0.14242   0.89484   0.97635   0.00000  Uiso   1.00
C1216  C     0.17999   0.83446   0.97769   0.00000  Uiso   1.00
C1217  C     0.17709   0.84638   0.51809   0.00000  Uiso   1.00
C1218  C     0.15990   0.88410   0.53570   0.00000  Uiso   1.00
C1219  C     0.14335   0.90775   0.51530   0.00000  Uiso   1.00
H1220  H     0.13087   0.93623   0.53097   0.00000  Uiso   1.00
H1221  H     0.21047   0.79309   0.92696   0.00000  Uiso   1.00
H1222  H     0.31811   0.81547   0.82090   0.00000  Uiso   1.00
H1223  H     0.32093   0.77075   0.79018   0.00000  Uiso   1.00
H1224  H     0.16939   0.70659   0.62846   0.00000  Uiso   1.00
H1225  H     0.19890   0.68113   0.58206   0.00000  Uiso   1.00
H1226  H     0.21288   0.67741   0.62674   0.00000  Uiso   1.00
H1227  H     0.26557   0.72880   0.58653   0.00000  Uiso   1.00
H1228  H     0.23714   0.75300   0.63273   0.00000  Uiso   1.00
H1229  H     0.20102   0.69092   0.98759   0.00000  Uiso   1.00
H1230  H     0.18711   0.70082   0.94444   0.00000  Uiso   1.00
H1231  H     0.24177   0.73152   0.52728   0.00000  Uiso   1.00
H1232  H     0.23261   0.67301   0.93923   0.00000  Uiso   1.00
H1233  H     0.25641   0.74571   0.92313   0.00000  Uiso   1.00
H1234  H     0.27241   0.73736   0.96433   0.00000  Uiso   1.00
H1235  H     0.11250   0.99276   0.92559   0.00000  Uiso   1.00
H1236  H     0.06002   0.96277   0.94205   0.00000  Uiso   1.00
H1237  H     0.07378   0.67754   0.96967   0.00000  Uiso   1.00
H1238  H     0.07807   0.95081   0.50261   0.00000  Uiso   1.00
H1239  H     0.12975   0.98060   0.98629   0.00000  Uiso   1.00
H1240  H     0.01605   0.85901   0.71542   0.00000  Uiso   1.00
H1241  H     0.20751   0.66939   0.71575   0.00000  Uiso   1.00
H1242  H     0.12459   0.99897   0.78456   0.00000  Uiso   1.00
H1243  H     0.16750   0.85330   0.59784   0.00000  Uiso   1.00
H1244  H     0.11209   0.92215   0.89979   0.00000  Uiso   1.00
H1245  H     0.16749   0.81395   0.90438   0.00000  Uiso   1.00
H1246  H     0.15970   0.89719   0.56518   0.00000  Uiso   1.00
N1247  N     0.31257   0.80126   0.79437   0.00000  Uiso   1.00
O1248  O     0.16667   0.83333   0.75000   0.00000  Uiso   1.00
O1249  O     0.15693   0.79060   0.66625   0.00000  Uiso   1.00
O1250  O     0.12687   0.87313   0.83749   0.00000  Uiso   1.00
O1251  O     0.21088   0.84159   0.65877   0.00000  Uiso   1.00
O1252  O     0.17198   0.82802   0.83749   0.00000  Uiso   1.00
O1253  O     0.17849   0.74768   0.77820   0.00000  Uiso   1.00
O1254  O     0.14581   0.92803   0.76767   0.00000  Uiso   1.00
O1255  O     0.07452   0.79917   0.73607   0.00000  Uiso   1.00
O1256  O     0.26785   0.85845   0.71805   0.00000  Uiso   1.00
O1257  O     0.06990   0.85627   0.77820   0.00000  Uiso   1.00
O1258  O     0.25440   0.81944   0.76767   0.00000  Uiso   1.00
O1259  O     0.13800   0.73570   0.73607   0.00000  Uiso   1.00
O1260  O     0.20437   0.92193   0.71805   0.00000  Uiso   1.00
Zn1261 Zn    0.19244   0.80756   0.78277   0.00000  Uiso   1.00
Zn1262 Zn    0.13459   0.79044   0.72257   0.00000  Uiso   1.00
Zn1263 Zn    0.21166   0.86331   0.71188   0.00000  Uiso   1.00
Zn1264 Zn    0.12798   0.87202   0.78277   0.00000  Uiso   1.00
C1265  C     0.38617   0.82694   0.75831   0.00000  Uiso   1.00
C1266  C     0.53664   0.80061   0.95837   0.00000  Uiso   1.00
C1267  C     0.55292   0.77590   0.97845   0.00000  Uiso   1.00
C1268  C     0.61427   0.84008   0.74140   0.00000  Uiso   1.00
C1269  C     0.54595   0.78479   0.51959   0.00000  Uiso   1.00
C1270  C     0.52510   0.82044   0.53949   0.00000  Uiso   1.00
C1271  C     0.55931   0.75883   0.54138   0.00000  Uiso   1.00
C1272  C     0.55207   0.76702   0.58214   0.00000  Uiso   1.00
C1273  C     0.51816   0.82815   0.58061   0.00000  Uiso   1.00
C1274  C     0.65990   0.84209   0.73840   0.00000  Uiso   1.00
C1275  C     0.34078   0.82366   0.76305   0.00000  Uiso   1.00
C1276  C     0.45776   0.90438   0.91668   0.00000  Uiso   1.00
C1277  C     0.51408   0.98880   0.73802   0.00000  Uiso   1.00
C1278  C     0.48503   0.67876   0.76218   0.00000  Uiso   1.00
C1279  C     0.48929   0.72279   0.75892   0.00000  Uiso   1.00
C1280  C     0.51016   0.94431   0.74134   0.00000  Uiso   1.00
C1281  C     0.52156   0.81183   0.64412   0.00000  Uiso   1.00
C1282  C     0.47921   0.85475   0.85612   0.00000  Uiso   1.00
C1283  C     0.47481   0.86737   0.89826   0.00000  Uiso   1.00
C1284  C     0.53135   0.80212   0.60157   0.00000  Uiso   1.00
C1285  C     0.45736   0.91858   0.95592   0.00000  Uiso   1.00
C1286  C     0.56673   0.73770   0.60387   0.00000  Uiso   1.00
C1287  C     0.49105   0.84364   0.91902   0.00000  Uiso   1.00
C1288  C     0.53492   0.69829   0.61062   0.00000  Uiso   1.00
C1289  C     0.57697   0.73993   0.95462   0.00000  Uiso   1.00
C1290  C     0.54754   0.69869   0.95676   0.00000  Uiso   1.00
C1291  C     0.43800   0.95871   0.97626   0.00000  Uiso   1.00
C1292  C     0.42004   0.98251   0.95158   0.00000  Uiso   1.00
C1293  C     0.49380   0.85745   0.95745   0.00000  Uiso   1.00
C1294  C     0.47576   0.89484   0.97635   0.00000  Uiso   1.00
C1295  C     0.51332   0.83446   0.97769   0.00000  Uiso   1.00
C1296  C     0.51042   0.84638   0.51809   0.00000  Uiso   1.00
C1297  C     0.49324   0.88410   0.53570   0.00000  Uiso   1.00
C1298  C     0.47668   0.90775   0.51530   0.00000  Uiso   1.00
H1299  H     0.46420   0.93623   0.53097   0.00000  Uiso   1.00
H1300  H     0.54380   0.79309   0.92696   0.00000  Uiso   1.00
H1301  H     0.65145   0.81547   0.82090   0.00000  Uiso   1.00
H1302  H     0.65426   0.77075   0.79018   0.00000  Uiso   1.00
H1303  H     0.50272   0.70659   0.62846   0.00000  Uiso   1.00
H1304  H     0.53224   0.68113   0.58206   0.00000  Uiso   1.00
H1305  H     0.54621   0.67741   0.62674   0.00000  Uiso   1.00
H1306  H     0.59891   0.72880   0.58653   0.00000  Uiso   1.00
H1307  H     0.57048   0.75300   0.63273   0.00000  Uiso   1.00
H1308  H     0.53435   0.69092   0.98759   0.00000  Uiso   1.00
H1309  H     0.52044   0.70082   0.94444   0.00000  Uiso   1.00
H1310  H     0.57510   0.73152   0.52728   0.00000  Uiso   1.00
H1311  H     0.56595   0.67301   0.93923   0.00000  Uiso   1.00
H1312  H     0.58974   0.74571   0.92313   0.00000  Uiso   1.00
H1313  H     0.60574   0.73736   0.96433   0.00000  Uiso   1.00
H1314  H     0.44583   0.99276   0.92559   0.00000  Uiso   1.00
H1315  H     0.39335   0.96277   0.94205   0.00000  Uiso   1.00
H1316  H     0.40712   0.67754   0.96967   0.00000  Uiso   1.00
H1317  H     0.41140   0.95081   0.50261   0.00000  Uiso   1.00
H1318  H     0.46308   0.98060   0.98629   0.00000  Uiso   1.00
H1319  H     0.34939   0.85901   0.71542   0.00000  Uiso   1.00
H1320  H     0.54084   0.66939   0.71575   0.00000  Uiso   1.00
H1321  H     0.45793   0.99897   0.78456   0.00000  Uiso   1.00
H1322  H     0.50083   0.85330   0.59784   0.00000  Uiso   1.00
H1323  H     0.44542   0.92215   0.89979   0.00000  Uiso   1.00
H1324  H     0.50082   0.81395   0.90438   0.00000  Uiso   1.00
H1325  H     0.49304   0.89719   0.56518   0.00000  Uiso   1.00
N1326  N     0.64590   0.80126   0.79437   0.00000  Uiso   1.00
O1327  O     0.50000   0.83333   0.75000   0.00000  Uiso   1.00
O1328  O     0.49027   0.79060   0.66625   0.00000  Uiso   1.00
O1329  O     0.46020   0.87313   0.83749   0.00000  Uiso   1.00
O1330  O     0.54421   0.84159   0.65877   0.00000  Uiso   1.00
O1331  O     0.50532   0.82802   0.83749   0.00000  Uiso   1.00
O1332  O     0.51182   0.74768   0.77820   0.00000  Uiso   1.00
O1333  O     0.47914   0.92803   0.76767   0.00000  Uiso   1.00
O1334  O     0.40785   0.79917   0.73607   0.00000  Uiso   1.00
O1335  O     0.60119   0.85845   0.71805   0.00000  Uiso   1.00
O1336  O     0.40323   0.85627   0.77820   0.00000  Uiso   1.00
O1337  O     0.58773   0.81944   0.76767   0.00000  Uiso   1.00
O1338  O     0.47133   0.73570   0.73607   0.00000  Uiso   1.00
O1339  O     0.53771   0.92193   0.71805   0.00000  Uiso   1.00
Zn1340 Zn    0.52577   0.80756   0.78277   0.00000  Uiso   1.00
Zn1341 Zn    0.46792   0.79044   0.72257   0.00000  Uiso   1.00
Zn1342 Zn    0.54500   0.86331   0.71188   0.00000  Uiso   1.00
Zn1343 Zn    0.46131   0.87202   0.78277   0.00000  Uiso   1.00
C1344  C     0.71951   0.82694   0.75831   0.00000  Uiso   1.00
C1345  C     0.86997   0.80061   0.95837   0.00000  Uiso   1.00
C1346  C     0.88625   0.77590   0.97845   0.00000  Uiso   1.00
C1347  C     0.94760   0.84008   0.74140   0.00000  Uiso   1.00
C1348  C     0.87928   0.78479   0.51959   0.00000  Uiso   1.00
C1349  C     0.85844   0.82044   0.53949   0.00000  Uiso   1.00
C1350  C     0.89264   0.75883   0.54138   0.00000  Uiso   1.00
C1351  C     0.88540   0.76702   0.58214   0.00000  Uiso   1.00
C1352  C     0.85150   0.82815   0.58061   0.00000  Uiso   1.00
C1353  C     0.99324   0.84209   0.73840   0.00000  Uiso   1.00
C1354  C     0.67411   0.82366   0.76305   0.00000  Uiso   1.00
C1355  C     0.79110   0.90438   0.91668   0.00000  Uiso   1.00
C1356  C     0.84741   0.98880   0.73802   0.00000  Uiso   1.00
C1357  C     0.81836   0.67876   0.76218   0.00000  Uiso   1.00
C1358  C     0.82263   0.72279   0.75892   0.00000  Uiso   1.00
C1359  C     0.84350   0.94431   0.74134   0.00000  Uiso   1.00
C1360  C     0.85489   0.81183   0.64412   0.00000  Uiso   1.00
C1361  C     0.81255   0.85475   0.85612   0.00000  Uiso   1.00
C1362  C     0.80814   0.86737   0.89826   0.00000  Uiso   1.00
C1363  C     0.86469   0.80212   0.60157   0.00000  Uiso   1.00
C1364  C     0.79069   0.91858   0.95592   0.00000  Uiso   1.00
C1365  C     0.90006   0.73770   0.60387   0.00000  Uiso   1.00
C1366  C     0.82438   0.84364   0.91902   0.00000  Uiso   1.00
C1367  C     0.86825   0.69829   0.61062   0.00000  Uiso   1.00
C1368  C     0.91030   0.73993   0.95462   0.00000  Uiso   1.00
C1369  C     0.88087   0.69869   0.95676   0.00000  Uiso   1.00
C1370  C     0.77133   0.95871   0.97626   0.00000  Uiso   1.00
C1371  C     0.75337   0.98251   0.95158   0.00000  Uiso   1.00
C1372  C     0.82713   0.85745   0.95745   0.00000  Uiso   1.00
C1373  C     0.80909   0.89484   0.97635   0.00000  Uiso   1.00
C1374  C     0.84665   0.83446   0.97769   0.00000  Uiso   1.00
C1375  C     0.84375   0.84638   0.51809   0.00000  Uiso   1.00
C1376  C     0.82657   0.88410   0.53570   0.00000  Uiso   1.00
C1377  C     0.81002   0.90775   0.51530   0.00000  Uiso   1.00
H1378  H     0.79753   0.93623   0.53097   0.00000  Uiso   1.00
H1379  H     0.87713   0.79309   0.92696   0.00000  Uiso   1.00
H1380  H     0.98478   0.81547   0.82090   0.00000  Uiso   1.00
H1381  H     0.98760   0.77075   0.79018   0.00000  Uiso   1.00
H1382  H     0.83605   0.70659   0.62846   0.00000  Uiso   1.00
H1383  H     0.86557   0.68113   0.58206   0.00000  Uiso   1.00
H1384  H     0.87954   0.67741   0.62674   0.00000  Uiso   1.00
H1385  H     0.93224   0.72880   0.58653   0.00000  Uiso   1.00
H1386  H     0.90381   0.75300   0.63273   0.00000  Uiso   1.00
H1387  H     0.86768   0.69092   0.98759   0.00000  Uiso   1.00
H1388  H     0.85378   0.70082   0.94444   0.00000  Uiso   1.00
H1389  H     0.90843   0.73152   0.52728   0.00000  Uiso   1.00
H1390  H     0.89928   0.67301   0.93923   0.00000  Uiso   1.00
H1391  H     0.92307   0.74571   0.92313   0.00000  Uiso   1.00
H1392  H     0.93908   0.73736   0.96433   0.00000  Uiso   1.00
H1393  H     0.77917   0.99276   0.92559   0.00000  Uiso   1.00
H1394  H     0.72668   0.96277   0.94205   0.00000  Uiso   1.00
H1395  H     0.74045   0.67754   0.96967   0.00000  Uiso   1.00
H1396  H     0.74473   0.95081   0.50261   0.00000  Uiso   1.00
H1397  H     0.79642   0.98060   0.98629   0.00000  Uiso   1.00
H1398  H     0.68272   0.85901   0.71542   0.00000  Uiso   1.00
H1399  H     0.87417   0.66939   0.71575   0.00000  Uiso   1.00
H1400  H     0.79126   0.99897   0.78456   0.00000  Uiso   1.00
H1401  H     0.83417   0.85330   0.59784   0.00000  Uiso   1.00
H1402  H     0.77875   0.92215   0.89979   0.00000  Uiso   1.00
H1403  H     0.83415   0.81395   0.90438   0.00000  Uiso   1.00
H1404  H     0.82637   0.89719   0.56518   0.00000  Uiso   1.00
N1405  N     0.97924   0.80126   0.79437   0.00000  Uiso   1.00
O1406  O     0.83333   0.83333   0.75000   0.00000  Uiso   1.00
O1407  O     0.82360   0.79060   0.66625   0.00000  Uiso   1.00
O1408  O     0.79354   0.87313   0.83749   0.00000  Uiso   1.00
O1409  O     0.87755   0.84159   0.65877   0.00000  Uiso   1.00
O1410  O     0.83865   0.82802   0.83749   0.00000  Uiso   1.00
O1411  O     0.84515   0.74768   0.77820   0.00000  Uiso   1.00
O1412  O     0.81247   0.92803   0.76767   0.00000  Uiso   1.00
O1413  O     0.74119   0.79917   0.73607   0.00000  Uiso   1.00
O1414  O     0.93452   0.85845   0.71805   0.00000  Uiso   1.00
O1415  O     0.73656   0.85627   0.77820   0.00000  Uiso   1.00
O1416  O     0.92106   0.81944   0.76767   0.00000  Uiso   1.00
O1417  O     0.80467   0.73570   0.73607   0.00000  Uiso   1.00
O1418  O     0.87104   0.92193   0.71805   0.00000  Uiso   1.00
Zn1419 Zn    0.85910   0.80756   0.78277   0.00000  Uiso   1.00
Zn1420 Zn    0.80125   0.79044   0.72257   0.00000  Uiso   1.00
Zn1421 Zn    0.87833   0.86331   0.71188   0.00000  Uiso   1.00
Zn1422 Zn    0.79465   0.87202   0.78277   0.00000  Uiso   1.00
loop_
_geom_bond_atom_site_label_1
_geom_bond_atom_site_label_2
_geom_bond_distance
_geom_bond_site_symmetry_2
_ccdc_geom_bond_type
C1     C11     1.434   .     S
C1     O72     1.267   .     A
C1     O70     1.268   .     A
C2     C31     1.413   .     A
C2     H36     1.076   .     S
C2     C3      1.396   .     A
C3     C25     1.520   .     S
C3     C716    1.413   .     S
C4     O73     1.271   .     A
C4     C10     1.457   .     S
C4     O71     1.286   .     A
C5     C6      1.425   .     A
C5     C7      1.412   .     A
C5     C714    1.413   1_554 S
C6     C32     1.427   .     A
C6     C9      1.410   .     A
C7     C8      1.397   .     A
C7     H46     1.080   .     S
C8     C20     1.405   .     A
C8     C22     1.515   .     S
C9     C20     1.390   .     A
C9     H58     1.077   .     S
C10    C90     1.346   .     S
C10    H134    1.088   .     S
C11    C168    1.346   1_455 S
C11    N220    1.437   1_455 S
C12    H59     1.080   .     S
C12    C21     1.408   .     A
C12    C19     1.397   .     A
C13    C16     1.451   .     S
C13    C251    1.331   .     S
C13    H293    1.088   .     S
C14    C15     1.434   .     S
C14    C487    1.331   1_545 S
C14    H531    1.086   1_545 S
C15    O68     1.277   .     A
C15    O74     1.277   .     A
C16    O75     1.273   .     A
C16    O69     1.273   .     A
C17    O66     1.276   .     A
C17    O64     1.274   .     A
C17    C20     1.456   .     S
C18    O65     1.282   .     A
C18    C19     1.472   .     S
C18    O67     1.285   .     A
C19    C23     1.390   .     A
C21    C27     1.529   .     S
C21    C30     1.427   .     A
C22    H43     1.110   .     S
C22    C24     1.526   .     S
C22    H42     1.112   .     S
C23    C29     1.405   .     A
C23    H60     1.076   .     S
C24    H39     1.111   .     S
C24    H41     1.110   .     S
C24    H40     1.111   .     S
C25    C26     1.527   .     S
C25    H48     1.112   .     S
C25    H49     1.110   .     S
C26    H44     1.110   .     S
C26    H45     1.111   .     S
C26    H47     1.110   .     S
C27    H54     1.110   .     S
C27    C28     1.530   .     S
C27    H764    1.111   .     S
C28    H51     1.111   .     S
C28    H50     1.111   .     S
C28    H289    1.111   .     S
C29    C30     1.424   .     A
C29    C31     1.430   .     A
C30    C745    1.401   .     S
C31    C743    1.418   .     S
C32    C33     1.412   .     A
C32    C742    1.418   1_554 S
C33    C34     1.385   .     A
C33    H61     1.076   .     S
C34    H35     1.081   .     S
C34    C741    1.401   1_554 S
H37    N62     1.046   .     S
H38    N62     1.046   .     S
H52    C502    1.111   1_545 S
H53    C738    1.111   1_554 S
H55    C168    1.088   1_455 S
H56    C487    1.088   1_545 S
H57    C251    1.086   .     S
N62    C90     1.437   .     S
O63    Zn79    1.935   .     S
O63    Zn76    1.957   .     S
O63    Zn77    1.944   .     S
O63    Zn78    1.938   .     S
O64    Zn77    1.930   .     S
O65    Zn79    1.937   .     S
O66    Zn78    1.933   .     S
O67    Zn76    1.926   .     S
O68    Zn76    1.927   .     S
O69    Zn79    1.929   .     S
O70    Zn77    1.936   .     S
O71    Zn78    1.944   .     S
O72    Zn79    1.940   .     S
O73    Zn76    1.934   .     S
O74    Zn77    1.933   .     S
O75    Zn78    1.928   .     S
C80    C90     1.434   .     S
C80    O151    1.267   .     A
C80    O149    1.268   .     A
C81    C110    1.413   .     A
C81    H115    1.076   .     S
C81    C82     1.396   .     A
C82    C104    1.520   .     S
C82    C795    1.413   .     S
C83    O152    1.271   .     A
C83    C89     1.457   .     S
C83    O150    1.286   .     A
C84    C85     1.425   .     A
C84    C86     1.412   .     A
C84    C793    1.413   1_554 S
C85    C111    1.427   .     A
C85    C88     1.410   .     A
C86    C87     1.397   .     A
C86    H125    1.080   .     S
C87    C99     1.405   .     A
C87    C101    1.515   .     S
C88    C99     1.390   .     A
C88    H137    1.077   .     S
C89    C169    1.346   .     S
C89    H213    1.088   .     S
C91    H138    1.080   .     S
C91    C100    1.408   .     A
C91    C98     1.397   .     A
C92    C95     1.451   .     S
C92    C330    1.331   .     S
C92    H372    1.088   .     S
C93    C94     1.434   .     S
C93    C566    1.331   1_545 S
C93    H610    1.086   1_545 S
C94    O147    1.277   .     A
C94    O153    1.277   .     A
C95    O154    1.273   .     A
C95    O148    1.273   .     A
C96    O145    1.276   .     A
C96    O143    1.274   .     A
C96    C99     1.456   .     S
C97    O144    1.282   .     A
C97    C98     1.472   .     S
C97    O146    1.285   .     A
C98    C102    1.390   .     A
C100   C106    1.529   .     S
C100   C109    1.427   .     A
C101   H122    1.110   .     S
C101   C103    1.526   .     S
C101   H121    1.112   .     S
C102   C108    1.405   .     A
C102   H139    1.076   .     S
C103   H118    1.111   .     S
C103   H120    1.110   .     S
C103   H119    1.111   .     S
C104   C105    1.527   .     S
C104   H127    1.112   .     S
C104   H128    1.110   .     S
C105   H123    1.110   .     S
C105   H124    1.111   .     S
C105   H126    1.110   .     S
C106   H133    1.110   .     S
C106   C107    1.530   .     S
C106   H843    1.111   .     S
C107   H130    1.111   .     S
C107   H129    1.111   .     S
C107   H368    1.111   .     S
C108   C109    1.424   .     A
C108   C110    1.430   .     A
C109   C824    1.401   .     S
C110   C822    1.418   .     S
C111   C112    1.412   .     A
C111   C821    1.418   1_554 S
C112   C113    1.385   .     A
C112   H140    1.076   .     S
C113   H114    1.081   .     S
C113   C820    1.401   1_554 S
H116   N141    1.046   .     S
H117   N141    1.046   .     S
H131   C581    1.111   1_545 S
H132   C817    1.111   1_554 S
H135   C566    1.088   1_545 S
H136   C330    1.086   .     S
N141   C169    1.437   .     S
O142   Zn158   1.935   .     S
O142   Zn155   1.957   .     S
O142   Zn156   1.944   .     S
O142   Zn157   1.938   .     S
O143   Zn156   1.930   .     S
O144   Zn158   1.937   .     S
O145   Zn157   1.933   .     S
O146   Zn155   1.926   .     S
O147   Zn155   1.927   .     S
O148   Zn158   1.929   .     S
O149   Zn156   1.936   .     S
O150   Zn157   1.944   .     S
O151   Zn158   1.940   .     S
O152   Zn155   1.934   .     S
O153   Zn156   1.933   .     S
O154   Zn157   1.928   .     S
C159   C169    1.434   .     S
C159   O230    1.267   .     A
C159   O228    1.268   .     A
C160   C189    1.413   .     A
C160   H194    1.076   .     S
C160   C161    1.396   .     A
C161   C183    1.520   .     S
C161   C874    1.413   .     S
C162   O231    1.271   .     A
C162   C168    1.457   .     S
C162   O229    1.286   .     A
C163   C164    1.425   .     A
C163   C165    1.412   .     A
C163   C872    1.413   1_554 S
C164   C190    1.427   .     A
C164   C167    1.410   .     A
C165   C166    1.397   .     A
C165   H204    1.080   .     S
C166   C178    1.405   .     A
C166   C180    1.515   .     S
C167   C178    1.390   .     A
C167   H216    1.077   .     S
C168   C11     1.346   1_655 S
C168   H55     1.088   1_655 S
C170   H217    1.080   .     S
C170   C179    1.408   .     A
C170   C177    1.397   .     A
C171   C174    1.451   .     S
C171   C409    1.331   .     S
C171   H451    1.088   .     S
C172   C173    1.434   .     S
C172   C645    1.331   1_545 S
C172   H689    1.086   1_545 S
C173   O226    1.277   .     A
C173   O232    1.277   .     A
C174   O233    1.273   .     A
C174   O227    1.273   .     A
C175   O224    1.276   .     A
C175   O222    1.274   .     A
C175   C178    1.456   .     S
C176   O223    1.282   .     A
C176   C177    1.472   .     S
C176   O225    1.285   .     A
C177   C181    1.390   .     A
C179   C185    1.529   .     S
C179   C188    1.427   .     A
C180   H201    1.110   .     S
C180   C182    1.526   .     S
C180   H200    1.112   .     S
C181   C187    1.405   .     A
C181   H218    1.076   .     S
C182   H197    1.111   .     S
C182   H199    1.110   .     S
C182   H198    1.111   .     S
C183   C184    1.527   .     S
C183   H206    1.112   .     S
C183   H207    1.110   .     S
C184   H202    1.110   .     S
C184   H203    1.111   .     S
C184   H205    1.110   .     S
C185   H212    1.110   .     S
C185   C186    1.530   .     S
C185   H922    1.111   .     S
C186   H209    1.111   .     S
C186   H208    1.111   .     S
C186   H447    1.111   .     S
C187   C188    1.424   .     A
C187   C189    1.430   .     A
C188   C903    1.401   .     S
C189   C901    1.418   .     S
C190   C191    1.412   .     A
C190   C900    1.418   1_554 S
C191   C192    1.385   .     A
C191   H219    1.076   .     S
C192   H193    1.081   .     S
C192   C899    1.401   1_554 S
H195   N220    1.046   .     S
H196   N220    1.046   .     S
H210   C660    1.111   1_545 S
H211   C896    1.111   1_554 S
H214   C645    1.088   1_545 S
H215   C409    1.086   .     S
N220   C11     1.437   1_655 S
O221   Zn237   1.935   .     S
O221   Zn234   1.957   .     S
O221   Zn235   1.944   .     S
O221   Zn236   1.938   .     S
O222   Zn235   1.930   .     S
O223   Zn237   1.937   .     S
O224   Zn236   1.933   .     S
O225   Zn234   1.926   .     S
O226   Zn234   1.927   .     S
O227   Zn237   1.929   .     S
O228   Zn235   1.936   .     S
O229   Zn236   1.944   .     S
O230   Zn237   1.940   .     S
O231   Zn234   1.934   .     S
O232   Zn235   1.933   .     S
O233   Zn236   1.928   .     S
C238   C248    1.434   .     S
C238   O309    1.267   .     A
C238   O307    1.268   .     A
C239   C268    1.413   .     A
C239   H273    1.076   .     S
C239   C240    1.396   .     A
C240   C262    1.520   .     S
C240   C953    1.413   .     S
C241   O310    1.271   .     A
C241   C247    1.457   .     S
C241   O308    1.286   .     A
C242   C243    1.425   .     A
C242   C244    1.412   .     A
C242   C951    1.413   1_554 S
C243   C269    1.427   .     A
C243   C246    1.410   .     A
C244   C245    1.397   .     A
C244   H283    1.080   .     S
C245   C257    1.405   .     A
C245   C259    1.515   .     S
C246   C257    1.390   .     A
C246   H295    1.077   .     S
C247   C327    1.346   .     S
C247   H371    1.088   .     S
C248   C405    1.346   1_455 S
C248   N457    1.437   1_455 S
C249   H296    1.080   .     S
C249   C258    1.408   .     A
C249   C256    1.397   .     A
C250   C253    1.451   .     S
C250   C488    1.331   .     S
C250   H530    1.088   .     S
C251   C252    1.434   .     S
C252   O305    1.277   .     A
C252   O311    1.277   .     A
C253   O312    1.273   .     A
C253   O306    1.273   .     A
C254   O303    1.276   .     A
C254   O301    1.274   .     A
C254   C257    1.456   .     S
C255   O302    1.282   .     A
C255   C256    1.472   .     S
C255   O304    1.285   .     A
C256   C260    1.390   .     A
C258   C264    1.529   .     S
C258   C267    1.427   .     A
C259   H280    1.110   .     S
C259   C261    1.526   .     S
C259   H279    1.112   .     S
C260   C266    1.405   .     A
C260   H297    1.076   .     S
C261   H276    1.111   .     S
C261   H278    1.110   .     S
C261   H277    1.111   .     S
C262   C263    1.527   .     S
C262   H285    1.112   .     S
C262   H286    1.110   .     S
C263   H281    1.110   .     S
C263   H282    1.111   .     S
C263   H284    1.110   .     S
C264   H291    1.110   .     S
C264   C265    1.530   .     S
C264   H1001   1.111   .     S
C265   H288    1.111   .     S
C265   H287    1.111   .     S
C265   H526    1.111   .     S
C266   C267    1.424   .     A
C266   C268    1.430   .     A
C267   C982    1.401   .     S
C268   C980    1.418   .     S
C269   C270    1.412   .     A
C269   C979    1.418   1_554 S
C270   C271    1.385   .     A
C270   H298    1.076   .     S
C271   H272    1.081   .     S
C271   C978    1.401   1_554 S
H274   N299    1.046   .     S
H275   N299    1.046   .     S
H290   C975    1.111   1_554 S
H292   C405    1.088   1_455 S
H294   C488    1.086   .     S
N299   C327    1.437   .     S
O300   Zn316   1.935   .     S
O300   Zn313   1.957   .     S
O300   Zn314   1.944   .     S
O300   Zn315   1.938   .     S
O301   Zn314   1.930   .     S
O302   Zn316   1.937   .     S
O303   Zn315   1.933   .     S
O304   Zn313   1.926   .     S
O305   Zn313   1.927   .     S
O306   Zn316   1.929   .     S
O307   Zn314   1.936   .     S
O308   Zn315   1.944   .     S
O309   Zn316   1.940   .     S
O310   Zn313   1.934   .     S
O311   Zn314   1.933   .     S
O312   Zn315   1.928   .     S
C317   C327    1.434   .     S
C317   O388    1.267   .     A
C317   O386    1.268   .     A
C318   C347    1.413   .     A
C318   H352    1.076   .     S
C318   C319    1.396   .     A
C319   C341    1.520   .     S
C319   C1032   1.413   .     S
C320   O389    1.271   .     A
C320   C326    1.457   .     S
C320   O387    1.286   .     A
C321   C322    1.425   .     A
C321   C323    1.412   .     A
C321   C1030   1.413   1_554 S
C322   C348    1.427   .     A
C322   C325    1.410   .     A
C323   C324    1.397   .     A
C323   H362    1.080   .     S
C324   C336    1.405   .     A
C324   C338    1.515   .     S
C325   C336    1.390   .     A
C325   H374    1.077   .     S
C326   C406    1.346   .     S
C326   H450    1.088   .     S
C328   H375    1.080   .     S
C328   C337    1.408   .     A
C328   C335    1.397   .     A
C329   C332    1.451   .     S
C329   C567    1.331   .     S
C329   H609    1.088   .     S
C330   C331    1.434   .     S
C331   O384    1.277   .     A
C331   O390    1.277   .     A
C332   O391    1.273   .     A
C332   O385    1.273   .     A
C333   O382    1.276   .     A
C333   O380    1.274   .     A
C333   C336    1.456   .     S
C334   O381    1.282   .     A
C334   C335    1.472   .     S
C334   O383    1.285   .     A
C335   C339    1.390   .     A
C337   C343    1.529   .     S
C337   C346    1.427   .     A
C338   H359    1.110   .     S
C338   C340    1.526   .     S
C338   H358    1.112   .     S
C339   C345    1.405   .     A
C339   H376    1.076   .     S
C340   H355    1.111   .     S
C340   H357    1.110   .     S
C340   H356    1.111   .     S
C341   C342    1.527   .     S
C341   H364    1.112   .     S
C341   H365    1.110   .     S
C342   H360    1.110   .     S
C342   H361    1.111   .     S
C342   H363    1.110   .     S
C343   H370    1.110   .     S
C343   C344    1.530   .     S
C343   H1080   1.111   .     S
C344   H367    1.111   .     S
C344   H366    1.111   .     S
C344   H605    1.111   .     S
C345   C346    1.424   .     A
C345   C347    1.430   .     A
C346   C1061   1.401   .     S
C347   C1059   1.418   .     S
C348   C349    1.412   .     A
C348   C1058   1.418   1_554 S
C349   C350    1.385   .     A
C349   H377    1.076   .     S
C350   H351    1.081   .     S
C350   C1057   1.401   1_554 S
H353   N378    1.046   .     S
H354   N378    1.046   .     S
H369   C1054   1.111   1_554 S
H373   C567    1.086   .     S
N378   C406    1.437   .     S
O379   Zn395   1.935   .     S
O379   Zn392   1.957   .     S
O379   Zn393   1.944   .     S
O379   Zn394   1.938   .     S
O380   Zn393   1.930   .     S
O381   Zn395   1.937   .     S
O382   Zn394   1.933   .     S
O383   Zn392   1.926   .     S
O384   Zn392   1.927   .     S
O385   Zn395   1.929   .     S
O386   Zn393   1.936   .     S
O387   Zn394   1.944   .     S
O388   Zn395   1.940   .     S
O389   Zn392   1.934   .     S
O390   Zn393   1.933   .     S
O391   Zn394   1.928   .     S
C396   C406    1.434   .     S
C396   O467    1.267   .     A
C396   O465    1.268   .     A
C397   C426    1.413   .     A
C397   H431    1.076   .     S
C397   C398    1.396   .     A
C398   C420    1.520   .     S
C398   C1111   1.413   .     S
C399   O468    1.271   .     A
C399   C405    1.457   .     S
C399   O466    1.286   .     A
C400   C401    1.425   .     A
C400   C402    1.412   .     A
C400   C1109   1.413   1_554 S
C401   C427    1.427   .     A
C401   C404    1.410   .     A
C402   C403    1.397   .     A
C402   H441    1.080   .     S
C403   C415    1.405   .     A
C403   C417    1.515   .     S
C404   C415    1.390   .     A
C404   H453    1.077   .     S
C405   C248    1.346   1_655 S
C405   H292    1.088   1_655 S
C407   H454    1.080   .     S
C407   C416    1.408   .     A
C407   C414    1.397   .     A
C408   C411    1.451   .     S
C408   C646    1.331   .     S
C408   H688    1.088   .     S
C409   C410    1.434   .     S
C410   O463    1.277   .     A
C410   O469    1.277   .     A
C411   O470    1.273   .     A
C411   O464    1.273   .     A
C412   O461    1.276   .     A
C412   O459    1.274   .     A
C412   C415    1.456   .     S
C413   O460    1.282   .     A
C413   C414    1.472   .     S
C413   O462    1.285   .     A
C414   C418    1.390   .     A
C416   C422    1.529   .     S
C416   C425    1.427   .     A
C417   H438    1.110   .     S
C417   C419    1.526   .     S
C417   H437    1.112   .     S
C418   C424    1.405   .     A
C418   H455    1.076   .     S
C419   H434    1.111   .     S
C419   H436    1.110   .     S
C419   H435    1.111   .     S
C420   C421    1.527   .     S
C420   H443    1.112   .     S
C420   H444    1.110   .     S
C421   H439    1.110   .     S
C421   H440    1.111   .     S
C421   H442    1.110   .     S
C422   H449    1.110   .     S
C422   C423    1.530   .     S
C422   H1159   1.111   .     S
C423   H446    1.111   .     S
C423   H445    1.111   .     S
C423   H684    1.111   .     S
C424   C425    1.424   .     A
C424   C426    1.430   .     A
C425   C1140   1.401   .     S
C426   C1138   1.418   .     S
C427   C428    1.412   .     A
C427   C1137   1.418   1_554 S
C428   C429    1.385   .     A
C428   H456    1.076   .     S
C429   H430    1.081   .     S
C429   C1136   1.401   1_554 S
H432   N457    1.046   .     S
H433   N457    1.046   .     S
H448   C1133   1.111   1_554 S
H452   C646    1.086   .     S
N457   C248    1.437   1_655 S
O458   Zn474   1.935   .     S
O458   Zn471   1.957   .     S
O458   Zn472   1.944   .     S
O458   Zn473   1.938   .     S
O459   Zn472   1.930   .     S
O460   Zn474   1.937   .     S
O461   Zn473   1.933   .     S
O462   Zn471   1.926   .     S
O463   Zn471   1.927   .     S
O464   Zn474   1.929   .     S
O465   Zn472   1.936   .     S
O466   Zn473   1.944   .     S
O467   Zn474   1.940   .     S
O468   Zn471   1.934   .     S
O469   Zn472   1.933   .     S
O470   Zn473   1.928   .     S
C475   C485    1.434   .     S
C475   O546    1.267   .     A
C475   O544    1.268   .     A
C476   C505    1.413   .     A
C476   H510    1.076   .     S
C476   C477    1.396   .     A
C477   C499    1.520   .     S
C477   C1190   1.413   .     S
C478   O547    1.271   .     A
C478   C484    1.457   .     S
C478   O545    1.286   .     A
C479   C480    1.425   .     A
C479   C481    1.412   .     A
C479   C1188   1.413   1_554 S
C480   C506    1.427   .     A
C480   C483    1.410   .     A
C481   C482    1.397   .     A
C481   H520    1.080   .     S
C482   C494    1.405   .     A
C482   C496    1.515   .     S
C483   C494    1.390   .     A
C483   H532    1.077   .     S
C484   C564    1.346   .     S
C484   H608    1.088   .     S
C485   C642    1.346   1_455 S
C485   N694    1.437   1_455 S
C486   H533    1.080   .     S
C486   C495    1.408   .     A
C486   C493    1.397   .     A
C487   C490    1.451   .     S
C487   C14     1.331   1_565 S
C487   H56     1.088   1_565 S
C488   C489    1.434   .     S
C489   O542    1.277   .     A
C489   O548    1.277   .     A
C490   O549    1.273   .     A
C490   O543    1.273   .     A
C491   O540    1.276   .     A
C491   O538    1.274   .     A
C491   C494    1.456   .     S
C492   O539    1.282   .     A
C492   C493    1.472   .     S
C492   O541    1.285   .     A
C493   C497    1.390   .     A
C495   C501    1.529   .     S
C495   C504    1.427   .     A
C496   H517    1.110   .     S
C496   C498    1.526   .     S
C496   H516    1.112   .     S
C497   C503    1.405   .     A
C497   H534    1.076   .     S
C498   H513    1.111   .     S
C498   H515    1.110   .     S
C498   H514    1.111   .     S
C499   C500    1.527   .     S
C499   H522    1.112   .     S
C499   H523    1.110   .     S
C500   H518    1.110   .     S
C500   H519    1.111   .     S
C500   H521    1.110   .     S
C501   H528    1.110   .     S
C501   C502    1.530   .     S
C501   H1238   1.111   .     S
C502   H525    1.111   .     S
C502   H524    1.111   .     S
C502   H52     1.111   1_565 S
C503   C504    1.424   .     A
C503   C505    1.430   .     A
C504   C1219   1.401   .     S
C505   C1217   1.418   .     S
C506   C507    1.412   .     A
C506   C1216   1.418   1_554 S
C507   C508    1.385   .     A
C507   H535    1.076   .     S
C508   H509    1.081   .     S
C508   C1215   1.401   1_554 S
H511   N536    1.046   .     S
H512   N536    1.046   .     S
H527   C1212   1.111   1_554 S
H529   C642    1.088   1_455 S
H531   C14     1.086   1_565 S
N536   C564    1.437   .     S
O537   Zn553   1.935   .     S
O537   Zn550   1.957   .     S
O537   Zn551   1.944   .     S
O537   Zn552   1.938   .     S
O538   Zn551   1.930   .     S
O539   Zn553   1.937   .     S
O540   Zn552   1.933   .     S
O541   Zn550   1.926   .     S
O542   Zn550   1.927   .     S
O543   Zn553   1.929   .     S
O544   Zn551   1.936   .     S
O545   Zn552   1.944   .     S
O546   Zn553   1.940   .     S
O547   Zn550   1.934   .     S
O548   Zn551   1.933   .     S
O549   Zn552   1.928   .     S
C554   C564    1.434   .     S
C554   O625    1.267   .     A
C554   O623    1.268   .     A
C555   C584    1.413   .     A
C555   H589    1.076   .     S
C555   C556    1.396   .     A
C556   C578    1.520   .     S
C556   C1269   1.413   .     S
C557   O626    1.271   .     A
C557   C563    1.457   .     S
C557   O624    1.286   .     A
C558   C559    1.425   .     A
C558   C560    1.412   .     A
C558   C1267   1.413   1_554 S
C559   C585    1.427   .     A
C559   C562    1.410   .     A
C560   C561    1.397   .     A
C560   H599    1.080   .     S
C561   C573    1.405   .     A
C561   C575    1.515   .     S
C562   C573    1.390   .     A
C562   H611    1.077   .     S
C563   C643    1.346   .     S
C563   H687    1.088   .     S
C565   H612    1.080   .     S
C565   C574    1.408   .     A
C565   C572    1.397   .     A
C566   C569    1.451   .     S
C566   C93     1.331   1_565 S
C566   H135    1.088   1_565 S
C567   C568    1.434   .     S
C568   O621    1.277   .     A
C568   O627    1.277   .     A
C569   O628    1.273   .     A
C569   O622    1.273   .     A
C570   O619    1.276   .     A
C570   O617    1.274   .     A
C570   C573    1.456   .     S
C571   O618    1.282   .     A
C571   C572    1.472   .     S
C571   O620    1.285   .     A
C572   C576    1.390   .     A
C574   C580    1.529   .     S
C574   C583    1.427   .     A
C575   H596    1.110   .     S
C575   C577    1.526   .     S
C575   H595    1.112   .     S
C576   C582    1.405   .     A
C576   H613    1.076   .     S
C577   H592    1.111   .     S
C577   H594    1.110   .     S
C577   H593    1.111   .     S
C578   C579    1.527   .     S
C578   H601    1.112   .     S
C578   H602    1.110   .     S
C579   H597    1.110   .     S
C579   H598    1.111   .     S
C579   H600    1.110   .     S
C580   H607    1.110   .     S
C580   C581    1.530   .     S
C580   H1317   1.111   .     S
C581   H604    1.111   .     S
C581   H603    1.111   .     S
C581   H131    1.111   1_565 S
C582   C583    1.424   .     A
C582   C584    1.430   .     A
C583   C1298   1.401   .     S
C584   C1296   1.418   .     S
C585   C586    1.412   .     A
C585   C1295   1.418   1_554 S
C586   C587    1.385   .     A
C586   H614    1.076   .     S
C587   H588    1.081   .     S
C587   C1294   1.401   1_554 S
H590   N615    1.046   .     S
H591   N615    1.046   .     S
H606   C1291   1.111   1_554 S
H610   C93     1.086   1_565 S
N615   C643    1.437   .     S
O616   Zn632   1.935   .     S
O616   Zn629   1.957   .     S
O616   Zn630   1.944   .     S
O616   Zn631   1.938   .     S
O617   Zn630   1.930   .     S
O618   Zn632   1.937   .     S
O619   Zn631   1.933   .     S
O620   Zn629   1.926   .     S
O621   Zn629   1.927   .     S
O622   Zn632   1.929   .     S
O623   Zn630   1.936   .     S
O624   Zn631   1.944   .     S
O625   Zn632   1.940   .     S
O626   Zn629   1.934   .     S
O627   Zn630   1.933   .     S
O628   Zn631   1.928   .     S
C633   C643    1.434   .     S
C633   O704    1.267   .     A
C633   O702    1.268   .     A
C634   C663    1.413   .     A
C634   H668    1.076   .     S
C634   C635    1.396   .     A
C635   C657    1.520   .     S
C635   C1348   1.413   .     S
C636   O705    1.271   .     A
C636   C642    1.457   .     S
C636   O703    1.286   .     A
C637   C638    1.425   .     A
C637   C639    1.412   .     A
C637   C1346   1.413   1_554 S
C638   C664    1.427   .     A
C638   C641    1.410   .     A
C639   C640    1.397   .     A
C639   H678    1.080   .     S
C640   C652    1.405   .     A
C640   C654    1.515   .     S
C641   C652    1.390   .     A
C641   H690    1.077   .     S
C642   C485    1.346   1_655 S
C642   H529    1.088   1_655 S
C644   H691    1.080   .     S
C644   C653    1.408   .     A
C644   C651    1.397   .     A
C645   C648    1.451   .     S
C645   C172    1.331   1_565 S
C645   H214    1.088   1_565 S
C646   C647    1.434   .     S
C647   O700    1.277   .     A
C647   O706    1.277   .     A
C648   O707    1.273   .     A
C648   O701    1.273   .     A
C649   O698    1.276   .     A
C649   O696    1.274   .     A
C649   C652    1.456   .     S
C650   O697    1.282   .     A
C650   C651    1.472   .     S
C650   O699    1.285   .     A
C651   C655    1.390   .     A
C653   C659    1.529   .     S
C653   C662    1.427   .     A
C654   H675    1.110   .     S
C654   C656    1.526   .     S
C654   H674    1.112   .     S
C655   C661    1.405   .     A
C655   H692    1.076   .     S
C656   H671    1.111   .     S
C656   H673    1.110   .     S
C656   H672    1.111   .     S
C657   C658    1.527   .     S
C657   H680    1.112   .     S
C657   H681    1.110   .     S
C658   H676    1.110   .     S
C658   H677    1.111   .     S
C658   H679    1.110   .     S
C659   H686    1.110   .     S
C659   C660    1.530   .     S
C659   H1396   1.111   .     S
C660   H683    1.111   .     S
C660   H682    1.111   .     S
C660   H210    1.111   1_565 S
C661   C662    1.424   .     A
C661   C663    1.430   .     A
C662   C1377   1.401   .     S
C663   C1375   1.418   .     S
C664   C665    1.412   .     A
C664   C1374   1.418   1_554 S
C665   C666    1.385   .     A
C665   H693    1.076   .     S
C666   H667    1.081   .     S
C666   C1373   1.401   1_554 S
H669   N694    1.046   .     S
H670   N694    1.046   .     S
H685   C1370   1.111   1_554 S
H689   C172    1.086   1_565 S
N694   C485    1.437   1_655 S
O695   Zn711   1.935   .     S
O695   Zn708   1.957   .     S
O695   Zn709   1.944   .     S
O695   Zn710   1.938   .     S
O696   Zn709   1.930   .     S
O697   Zn711   1.937   .     S
O698   Zn710   1.933   .     S
O699   Zn708   1.926   .     S
O700   Zn708   1.927   .     S
O701   Zn711   1.929   .     S
O702   Zn709   1.936   .     S
O703   Zn710   1.944   .     S
O704   Zn711   1.940   .     S
O705   Zn708   1.934   .     S
O706   Zn709   1.933   .     S
O707   Zn710   1.928   .     S
C712   C722    1.434   .     S
C712   O783    1.267   .     A
C712   O781    1.268   .     A
C713   C742    1.413   .     A
C713   H747    1.076   .     S
C713   C714    1.396   .     A
C714   C736    1.520   .     S
C714   C5      1.413   1_556 S
C715   O784    1.271   .     A
C715   C721    1.457   .     S
C715   O782    1.286   .     A
C716   C717    1.425   .     A
C716   C718    1.412   .     A
C717   C743    1.427   .     A
C717   C720    1.410   .     A
C718   C719    1.397   .     A
C718   H757    1.080   .     S
C719   C731    1.405   .     A
C719   C733    1.515   .     S
C720   C731    1.390   .     A
C720   H769    1.077   .     S
C721   C801    1.346   .     S
C721   H845    1.088   .     S
C722   C879    1.346   1_455 S
C722   N931    1.437   1_455 S
C723   H770    1.080   .     S
C723   C732    1.408   .     A
C723   C730    1.397   .     A
C724   C727    1.451   .     S
C724   C962    1.331   .     S
C724   H1004   1.088   .     S
C725   C726    1.434   .     S
C725   C1198   1.331   1_545 S
C725   H1242   1.086   1_545 S
C726   O779    1.277   .     A
C726   O785    1.277   .     A
C727   O786    1.273   .     A
C727   O780    1.273   .     A
C728   O777    1.276   .     A
C728   O775    1.274   .     A
C728   C731    1.456   .     S
C729   O776    1.282   .     A
C729   C730    1.472   .     S
C729   O778    1.285   .     A
C730   C734    1.390   .     A
C732   C738    1.529   .     S
C732   C741    1.427   .     A
C733   H754    1.110   .     S
C733   C735    1.526   .     S
C733   H753    1.112   .     S
C734   C740    1.405   .     A
C734   H771    1.076   .     S
C735   H750    1.111   .     S
C735   H752    1.110   .     S
C735   H751    1.111   .     S
C736   C737    1.527   .     S
C736   H759    1.112   .     S
C736   H760    1.110   .     S
C737   H755    1.110   .     S
C737   H756    1.111   .     S
C737   H758    1.110   .     S
C738   H765    1.110   .     S
C738   C739    1.530   .     S
C738   H53     1.111   1_556 S
C739   H762    1.111   .     S
C739   H761    1.111   .     S
C739   H1000   1.111   .     S
C740   C741    1.424   .     A
C740   C742    1.430   .     A
C741   C34     1.401   1_556 S
C742   C32     1.418   1_556 S
C743   C744    1.412   .     A
C744   C745    1.385   .     A
C744   H772    1.076   .     S
C745   H746    1.081   .     S
H748   N773    1.046   .     S
H749   N773    1.046   .     S
H763   C1213   1.111   1_545 S
H766   C879    1.088   1_455 S
H767   C1198   1.088   1_545 S
H768   C962    1.086   .     S
N773   C801    1.437   .     S
O774   Zn790   1.935   .     S
O774   Zn787   1.957   .     S
O774   Zn788   1.944   .     S
O774   Zn789   1.938   .     S
O775   Zn788   1.930   .     S
O776   Zn790   1.937   .     S
O777   Zn789   1.933   .     S
O778   Zn787   1.926   .     S
O779   Zn787   1.927   .     S
O780   Zn790   1.929   .     S
O781   Zn788   1.936   .     S
O782   Zn789   1.944   .     S
O783   Zn790   1.940   .     S
O784   Zn787   1.934   .     S
O785   Zn788   1.933   .     S
O786   Zn789   1.928   .     S
C791   C801    1.434   .     S
C791   O862    1.267   .     A
C791   O860    1.268   .     A
C792   C821    1.413   .     A
C792   H826    1.076   .     S
C792   C793    1.396   .     A
C793   C815    1.520   .     S
C793   C84     1.413   1_556 S
C794   O863    1.271   .     A
C794   C800    1.457   .     S
C794   O861    1.286   .     A
C795   C796    1.425   .     A
C795   C797    1.412   .     A
C796   C822    1.427   .     A
C796   C799    1.410   .     A
C797   C798    1.397   .     A
C797   H836    1.080   .     S
C798   C810    1.405   .     A
C798   C812    1.515   .     S
C799   C810    1.390   .     A
C799   H848    1.077   .     S
C800   C880    1.346   .     S
C800   H924    1.088   .     S
C802   H849    1.080   .     S
C802   C811    1.408   .     A
C802   C809    1.397   .     A
C803   C806    1.451   .     S
C803   C1041   1.331   .     S
C803   H1083   1.088   .     S
C804   C805    1.434   .     S
C804   C1277   1.331   1_545 S
C804   H1321   1.086   1_545 S
C805   O858    1.277   .     A
C805   O864    1.277   .     A
C806   O865    1.273   .     A
C806   O859    1.273   .     A
C807   O856    1.276   .     A
C807   O854    1.274   .     A
C807   C810    1.456   .     S
C808   O855    1.282   .     A
C808   C809    1.472   .     S
C808   O857    1.285   .     A
C809   C813    1.390   .     A
C811   C817    1.529   .     S
C811   C820    1.427   .     A
C812   H833    1.110   .     S
C812   C814    1.526   .     S
C812   H832    1.112   .     S
C813   C819    1.405   .     A
C813   H850    1.076   .     S
C814   H829    1.111   .     S
C814   H831    1.110   .     S
C814   H830    1.111   .     S
C815   C816    1.527   .     S
C815   H838    1.112   .     S
C815   H839    1.110   .     S
C816   H834    1.110   .     S
C816   H835    1.111   .     S
C816   H837    1.110   .     S
C817   H844    1.110   .     S
C817   C818    1.530   .     S
C817   H132    1.111   1_556 S
C818   H841    1.111   .     S
C818   H840    1.111   .     S
C818   H1079   1.111   .     S
C819   C820    1.424   .     A
C819   C821    1.430   .     A
C820   C113    1.401   1_556 S
C821   C111    1.418   1_556 S
C822   C823    1.412   .     A
C823   C824    1.385   .     A
C823   H851    1.076   .     S
C824   H825    1.081   .     S
H827   N852    1.046   .     S
H828   N852    1.046   .     S
H842   C1292   1.111   1_545 S
H846   C1277   1.088   1_545 S
H847   C1041   1.086   .     S
N852   C880    1.437   .     S
O853   Zn869   1.935   .     S
O853   Zn866   1.957   .     S
O853   Zn867   1.944   .     S
O853   Zn868   1.938   .     S
O854   Zn867   1.930   .     S
O855   Zn869   1.937   .     S
O856   Zn868   1.933   .     S
O857   Zn866   1.926   .     S
O858   Zn866   1.927   .     S
O859   Zn869   1.929   .     S
O860   Zn867   1.936   .     S
O861   Zn868   1.944   .     S
O862   Zn869   1.940   .     S
O863   Zn866   1.934   .     S
O864   Zn867   1.933   .     S
O865   Zn868   1.928   .     S
C870   C880    1.434   .     S
C870   O941    1.267   .     A
C870   O939    1.268   .     A
C871   C900    1.413   .     A
C871   H905    1.076   .     S
C871   C872    1.396   .     A
C872   C894    1.520   .     S
C872   C163    1.413   1_556 S
C873   O942    1.271   .     A
C873   C879    1.457   .     S
C873   O940    1.286   .     A
C874   C875    1.425   .     A
C874   C876    1.412   .     A
C875   C901    1.427   .     A
C875   C878    1.410   .     A
C876   C877    1.397   .     A
C876   H915    1.080   .     S
C877   C889    1.405   .     A
C877   C891    1.515   .     S
C878   C889    1.390   .     A
C878   H927    1.077   .     S
C879   C722    1.346   1_655 S
C879   H766    1.088   1_655 S
C881   H928    1.080   .     S
C881   C890    1.408   .     A
C881   C888    1.397   .     A
C882   C885    1.451   .     S
C882   C1120   1.331   .     S
C882   H1162   1.088   .     S
C883   C884    1.434   .     S
C883   C1356   1.331   1_545 S
C883   H1400   1.086   1_545 S
C884   O937    1.277   .     A
C884   O943    1.277   .     A
C885   O944    1.273   .     A
C885   O938    1.273   .     A
C886   O935    1.276   .     A
C886   O933    1.274   .     A
C886   C889    1.456   .     S
C887   O934    1.282   .     A
C887   C888    1.472   .     S
C887   O936    1.285   .     A
C888   C892    1.390   .     A
C890   C896    1.529   .     S
C890   C899    1.427   .     A
C891   H912    1.110   .     S
C891   C893    1.526   .     S
C891   H911    1.112   .     S
C892   C898    1.405   .     A
C892   H929    1.076   .     S
C893   H908    1.111   .     S
C893   H910    1.110   .     S
C893   H909    1.111   .     S
C894   C895    1.527   .     S
C894   H917    1.112   .     S
C894   H918    1.110   .     S
C895   H913    1.110   .     S
C895   H914    1.111   .     S
C895   H916    1.110   .     S
C896   H923    1.110   .     S
C896   C897    1.530   .     S
C896   H211    1.111   1_556 S
C897   H920    1.111   .     S
C897   H919    1.111   .     S
C897   H1158   1.111   .     S
C898   C899    1.424   .     A
C898   C900    1.430   .     A
C899   C192    1.401   1_556 S
C900   C190    1.418   1_556 S
C901   C902    1.412   .     A
C902   C903    1.385   .     A
C902   H930    1.076   .     S
C903   H904    1.081   .     S
H906   N931    1.046   .     S
H907   N931    1.046   .     S
H921   C1371   1.111   1_545 S
H925   C1356   1.088   1_545 S
H926   C1120   1.086   .     S
N931   C722    1.437   1_655 S
O932   Zn948   1.935   .     S
O932   Zn945   1.957   .     S
O932   Zn946   1.944   .     S
O932   Zn947   1.938   .     S
O933   Zn946   1.930   .     S
O934   Zn948   1.937   .     S
O935   Zn947   1.933   .     S
O936   Zn945   1.926   .     S
O937   Zn945   1.927   .     S
O938   Zn948   1.929   .     S
O939   Zn946   1.936   .     S
O940   Zn947   1.944   .     S
O941   Zn948   1.940   .     S
O942   Zn945   1.934   .     S
O943   Zn946   1.933   .     S
O944   Zn947   1.928   .     S
C949   C959    1.434   .     S
C949   O1020   1.267   .     A
C949   O1018   1.268   .     A
C950   C979    1.413   .     A
C950   H984    1.076   .     S
C950   C951    1.396   .     A
C951   C973    1.520   .     S
C951   C242    1.413   1_556 S
C952   O1021   1.271   .     A
C952   C958    1.457   .     S
C952   O1019   1.286   .     A
C953   C954    1.425   .     A
C953   C955    1.412   .     A
C954   C980    1.427   .     A
C954   C957    1.410   .     A
C955   C956    1.397   .     A
C955   H994    1.080   .     S
C956   C968    1.405   .     A
C956   C970    1.515   .     S
C957   C968    1.390   .     A
C957   H1006   1.077   .     S
C958   C1038   1.346   .     S
C958   H1082   1.088   .     S
C959   C1116   1.346   1_455 S
C959   N1168   1.437   1_455 S
C960   H1007   1.080   .     S
C960   C969    1.408   .     A
C960   C967    1.397   .     A
C961   C964    1.451   .     S
C961   C1199   1.331   .     S
C961   H1241   1.088   .     S
C962   C963    1.434   .     S
C963   O1016   1.277   .     A
C963   O1022   1.277   .     A
C964   O1023   1.273   .     A
C964   O1017   1.273   .     A
C965   O1014   1.276   .     A
C965   O1012   1.274   .     A
C965   C968    1.456   .     S
C966   O1013   1.282   .     A
C966   C967    1.472   .     S
C966   O1015   1.285   .     A
C967   C971    1.390   .     A
C969   C975    1.529   .     S
C969   C978    1.427   .     A
C970   H991    1.110   .     S
C970   C972    1.526   .     S
C970   H990    1.112   .     S
C971   C977    1.405   .     A
C971   H1008   1.076   .     S
C972   H987    1.111   .     S
C972   H989    1.110   .     S
C972   H988    1.111   .     S
C973   C974    1.527   .     S
C973   H996    1.112   .     S
C973   H997    1.110   .     S
C974   H992    1.110   .     S
C974   H993    1.111   .     S
C974   H995    1.110   .     S
C975   H1002   1.110   .     S
C975   C976    1.530   .     S
C975   H290    1.111   1_556 S
C976   H999    1.111   .     S
C976   H998    1.111   .     S
C976   H1237   1.111   .     S
C977   C978    1.424   .     A
C977   C979    1.430   .     A
C978   C271    1.401   1_556 S
C979   C269    1.418   1_556 S
C980   C981    1.412   .     A
C981   C982    1.385   .     A
C981   H1009   1.076   .     S
C982   H983    1.081   .     S
H985   N1010   1.046   .     S
H986   N1010   1.046   .     S
H1003  C1116   1.088   1_455 S
H1005  C1199   1.086   .     S
N1010  C1038   1.437   .     S
O1011  Zn1027  1.935   .     S
O1011  Zn1024  1.957   .     S
O1011  Zn1025  1.944   .     S
O1011  Zn1026  1.938   .     S
O1012  Zn1025  1.930   .     S
O1013  Zn1027  1.937   .     S
O1014  Zn1026  1.933   .     S
O1015  Zn1024  1.926   .     S
O1016  Zn1024  1.927   .     S
O1017  Zn1027  1.929   .     S
O1018  Zn1025  1.936   .     S
O1019  Zn1026  1.944   .     S
O1020  Zn1027  1.940   .     S
O1021  Zn1024  1.934   .     S
O1022  Zn1025  1.933   .     S
O1023  Zn1026  1.928   .     S
C1028  C1038   1.434   .     S
C1028  O1099   1.267   .     A
C1028  O1097   1.268   .     A
C1029  C1058   1.413   .     A
C1029  H1063   1.076   .     S
C1029  C1030   1.396   .     A
C1030  C1052   1.520   .     S
C1030  C321    1.413   1_556 S
C1031  O1100   1.271   .     A
C1031  C1037   1.457   .     S
C1031  O1098   1.286   .     A
C1032  C1033   1.425   .     A
C1032  C1034   1.412   .     A
C1033  C1059   1.427   .     A
C1033  C1036   1.410   .     A
C1034  C1035   1.397   .     A
C1034  H1073   1.080   .     S
C1035  C1047   1.405   .     A
C1035  C1049   1.515   .     S
C1036  C1047   1.390   .     A
C1036  H1085   1.077   .     S
C1037  C1117   1.346   .     S
C1037  H1161   1.088   .     S
C1039  H1086   1.080   .     S
C1039  C1048   1.408   .     A
C1039  C1046   1.397   .     A
C1040  C1043   1.451   .     S
C1040  C1278   1.331   .     S
C1040  H1320   1.088   .     S
C1041  C1042   1.434   .     S
C1042  O1095   1.277   .     A
C1042  O1101   1.277   .     A
C1043  O1102   1.273   .     A
C1043  O1096   1.273   .     A
C1044  O1093   1.276   .     A
C1044  O1091   1.274   .     A
C1044  C1047   1.456   .     S
C1045  O1092   1.282   .     A
C1045  C1046   1.472   .     S
C1045  O1094   1.285   .     A
C1046  C1050   1.390   .     A
C1048  C1054   1.529   .     S
C1048  C1057   1.427   .     A
C1049  H1070   1.110   .     S
C1049  C1051   1.526   .     S
C1049  H1069   1.112   .     S
C1050  C1056   1.405   .     A
C1050  H1087   1.076   .     S
C1051  H1066   1.111   .     S
C1051  H1068   1.110   .     S
C1051  H1067   1.111   .     S
C1052  C1053   1.527   .     S
C1052  H1075   1.112   .     S
C1052  H1076   1.110   .     S
C1053  H1071   1.110   .     S
C1053  H1072   1.111   .     S
C1053  H1074   1.110   .     S
C1054  H1081   1.110   .     S
C1054  C1055   1.530   .     S
C1054  H369    1.111   1_556 S
C1055  H1078   1.111   .     S
C1055  H1077   1.111   .     S
C1055  H1316   1.111   .     S
C1056  C1057   1.424   .     A
C1056  C1058   1.430   .     A
C1057  C350    1.401   1_556 S
C1058  C348    1.418   1_556 S
C1059  C1060   1.412   .     A
C1060  C1061   1.385   .     A
C1060  H1088   1.076   .     S
C1061  H1062   1.081   .     S
H1064  N1089   1.046   .     S
H1065  N1089   1.046   .     S
H1084  C1278   1.086   .     S
N1089  C1117   1.437   .     S
O1090  Zn1106  1.935   .     S
O1090  Zn1103  1.957   .     S
O1090  Zn1104  1.944   .     S
O1090  Zn1105  1.938   .     S
O1091  Zn1104  1.930   .     S
O1092  Zn1106  1.937   .     S
O1093  Zn1105  1.933   .     S
O1094  Zn1103  1.926   .     S
O1095  Zn1103  1.927   .     S
O1096  Zn1106  1.929   .     S
O1097  Zn1104  1.936   .     S
O1098  Zn1105  1.944   .     S
O1099  Zn1106  1.940   .     S
O1100  Zn1103  1.934   .     S
O1101  Zn1104  1.933   .     S
O1102  Zn1105  1.928   .     S
C1107  C1117   1.434   .     S
C1107  O1178   1.267   .     A
C1107  O1176   1.268   .     A
C1108  C1137   1.413   .     A
C1108  H1142   1.076   .     S
C1108  C1109   1.396   .     A
C1109  C1131   1.520   .     S
C1109  C400    1.413   1_556 S
C1110  O1179   1.271   .     A
C1110  C1116   1.457   .     S
C1110  O1177   1.286   .     A
C1111  C1112   1.425   .     A
C1111  C1113   1.412   .     A
C1112  C1138   1.427   .     A
C1112  C1115   1.410   .     A
C1113  C1114   1.397   .     A
C1113  H1152   1.080   .     S
C1114  C1126   1.405   .     A
C1114  C1128   1.515   .     S
C1115  C1126   1.390   .     A
C1115  H1164   1.077   .     S
C1116  C959    1.346   1_655 S
C1116  H1003   1.088   1_655 S
C1118  H1165   1.080   .     S
C1118  C1127   1.408   .     A
C1118  C1125   1.397   .     A
C1119  C1122   1.451   .     S
C1119  C1357   1.331   .     S
C1119  H1399   1.088   .     S
C1120  C1121   1.434   .     S
C1121  O1174   1.277   .     A
C1121  O1180   1.277   .     A
C1122  O1181   1.273   .     A
C1122  O1175   1.273   .     A
C1123  O1172   1.276   .     A
C1123  O1170   1.274   .     A
C1123  C1126   1.456   .     S
C1124  O1171   1.282   .     A
C1124  C1125   1.472   .     S
C1124  O1173   1.285   .     A
C1125  C1129   1.390   .     A
C1127  C1133   1.529   .     S
C1127  C1136   1.427   .     A
C1128  H1149   1.110   .     S
C1128  C1130   1.526   .     S
C1128  H1148   1.112   .     S
C1129  C1135   1.405   .     A
C1129  H1166   1.076   .     S
C1130  H1145   1.111   .     S
C1130  H1147   1.110   .     S
C1130  H1146   1.111   .     S
C1131  C1132   1.527   .     S
C1131  H1154   1.112   .     S
C1131  H1155   1.110   .     S
C1132  H1150   1.110   .     S
C1132  H1151   1.111   .     S
C1132  H1153   1.110   .     S
C1133  H1160   1.110   .     S
C1133  C1134   1.530   .     S
C1133  H448    1.111   1_556 S
C1134  H1157   1.111   .     S
C1134  H1156   1.111   .     S
C1134  H1395   1.111   .     S
C1135  C1136   1.424   .     A
C1135  C1137   1.430   .     A
C1136  C429    1.401   1_556 S
C1137  C427    1.418   1_556 S
C1138  C1139   1.412   .     A
C1139  C1140   1.385   .     A
C1139  H1167   1.076   .     S
C1140  H1141   1.081   .     S
H1143  N1168   1.046   .     S
H1144  N1168   1.046   .     S
H1163  C1357   1.086   .     S
N1168  C959    1.437   1_655 S
O1169  Zn1185  1.935   .     S
O1169  Zn1182  1.957   .     S
O1169  Zn1183  1.944   .     S
O1169  Zn1184  1.938   .     S
O1170  Zn1183  1.930   .     S
O1171  Zn1185  1.937   .     S
O1172  Zn1184  1.933   .     S
O1173  Zn1182  1.926   .     S
O1174  Zn1182  1.927   .     S
O1175  Zn1185  1.929   .     S
O1176  Zn1183  1.936   .     S
O1177  Zn1184  1.944   .     S
O1178  Zn1185  1.940   .     S
O1179  Zn1182  1.934   .     S
O1180  Zn1183  1.933   .     S
O1181  Zn1184  1.928   .     S
C1186  C1196   1.434   .     S
C1186  O1257   1.267   .     A
C1186  O1255   1.268   .     A
C1187  C1216   1.413   .     A
C1187  H1221   1.076   .     S
C1187  C1188   1.396   .     A
C1188  C1210   1.520   .     S
C1188  C479    1.413   1_556 S
C1189  O1258   1.271   .     A
C1189  C1195   1.457   .     S
C1189  O1256   1.286   .     A
C1190  C1191   1.425   .     A
C1190  C1192   1.412   .     A
C1191  C1217   1.427   .     A
C1191  C1194   1.410   .     A
C1192  C1193   1.397   .     A
C1192  H1231   1.080   .     S
C1193  C1205   1.405   .     A
C1193  C1207   1.515   .     S
C1194  C1205   1.390   .     A
C1194  H1243   1.077   .     S
C1195  C1275   1.346   .     S
C1195  H1319   1.088   .     S
C1196  C1353   1.346   1_455 S
C1196  N1405   1.437   1_455 S
C1197  H1244   1.080   .     S
C1197  C1206   1.408   .     A
C1197  C1204   1.397   .     A
C1198  C1201   1.451   .     S
C1198  C725    1.331   1_565 S
C1198  H767    1.088   1_565 S
C1199  C1200   1.434   .     S
C1200  O1253   1.277   .     A
C1200  O1259   1.277   .     A
C1201  O1260   1.273   .     A
C1201  O1254   1.273   .     A
C1202  O1251   1.276   .     A
C1202  O1249   1.274   .     A
C1202  C1205   1.456   .     S
C1203  O1250   1.282   .     A
C1203  C1204   1.472   .     S
C1203  O1252   1.285   .     A
C1204  C1208   1.390   .     A
C1206  C1212   1.529   .     S
C1206  C1215   1.427   .     A
C1207  H1228   1.110   .     S
C1207  C1209   1.526   .     S
C1207  H1227   1.112   .     S
C1208  C1214   1.405   .     A
C1208  H1245   1.076   .     S
C1209  H1224   1.111   .     S
C1209  H1226   1.110   .     S
C1209  H1225   1.111   .     S
C1210  C1211   1.527   .     S
C1210  H1233   1.112   .     S
C1210  H1234   1.110   .     S
C1211  H1229   1.110   .     S
C1211  H1230   1.111   .     S
C1211  H1232   1.110   .     S
C1212  H1239   1.110   .     S
C1212  C1213   1.530   .     S
C1212  H527    1.111   1_556 S
C1213  H1236   1.111   .     S
C1213  H1235   1.111   .     S
C1213  H763    1.111   1_565 S
C1214  C1215   1.424   .     A
C1214  C1216   1.430   .     A
C1215  C508    1.401   1_556 S
C1216  C506    1.418   1_556 S
C1217  C1218   1.412   .     A
C1218  C1219   1.385   .     A
C1218  H1246   1.076   .     S
C1219  H1220   1.081   .     S
H1222  N1247   1.046   .     S
H1223  N1247   1.046   .     S
H1240  C1353   1.088   1_455 S
H1242  C725    1.086   1_565 S
N1247  C1275   1.437   .     S
O1248  Zn1264  1.935   .     S
O1248  Zn1261  1.957   .     S
O1248  Zn1262  1.944   .     S
O1248  Zn1263  1.938   .     S
O1249  Zn1262  1.930   .     S
O1250  Zn1264  1.937   .     S
O1251  Zn1263  1.933   .     S
O1252  Zn1261  1.926   .     S
O1253  Zn1261  1.927   .     S
O1254  Zn1264  1.929   .     S
O1255  Zn1262  1.936   .     S
O1256  Zn1263  1.944   .     S
O1257  Zn1264  1.940   .     S
O1258  Zn1261  1.934   .     S
O1259  Zn1262  1.933   .     S
O1260  Zn1263  1.928   .     S
C1265  C1275   1.434   .     S
C1265  O1336   1.267   .     A
C1265  O1334   1.268   .     A
C1266  C1295   1.413   .     A
C1266  H1300   1.076   .     S
C1266  C1267   1.396   .     A
C1267  C1289   1.520   .     S
C1267  C558    1.413   1_556 S
C1268  O1337   1.271   .     A
C1268  C1274   1.457   .     S
C1268  O1335   1.286   .     A
C1269  C1270   1.425   .     A
C1269  C1271   1.412   .     A
C1270  C1296   1.427   .     A
C1270  C1273   1.410   .     A
C1271  C1272   1.397   .     A
C1271  H1310   1.080   .     S
C1272  C1284   1.405   .     A
C1272  C1286   1.515   .     S
C1273  C1284   1.390   .     A
C1273  H1322   1.077   .     S
C1274  C1354   1.346   .     S
C1274  H1398   1.088   .     S
C1276  H1323   1.080   .     S
C1276  C1285   1.408   .     A
C1276  C1283   1.397   .     A
C1277  C1280   1.451   .     S
C1277  C804    1.331   1_565 S
C1277  H846    1.088   1_565 S
C1278  C1279   1.434   .     S
C1279  O1332   1.277   .     A
C1279  O1338   1.277   .     A
C1280  O1339   1.273   .     A
C1280  O1333   1.273   .     A
C1281  O1330   1.276   .     A
C1281  O1328   1.274   .     A
C1281  C1284   1.456   .     S
C1282  O1329   1.282   .     A
C1282  C1283   1.472   .     S
C1282  O1331   1.285   .     A
C1283  C1287   1.390   .     A
C1285  C1291   1.529   .     S
C1285  C1294   1.427   .     A
C1286  H1307   1.110   .     S
C1286  C1288   1.526   .     S
C1286  H1306   1.112   .     S
C1287  C1293   1.405   .     A
C1287  H1324   1.076   .     S
C1288  H1303   1.111   .     S
C1288  H1305   1.110   .     S
C1288  H1304   1.111   .     S
C1289  C1290   1.527   .     S
C1289  H1312   1.112   .     S
C1289  H1313   1.110   .     S
C1290  H1308   1.110   .     S
C1290  H1309   1.111   .     S
C1290  H1311   1.110   .     S
C1291  H1318   1.110   .     S
C1291  C1292   1.530   .     S
C1291  H606    1.111   1_556 S
C1292  H1315   1.111   .     S
C1292  H1314   1.111   .     S
C1292  H842    1.111   1_565 S
C1293  C1294   1.424   .     A
C1293  C1295   1.430   .     A
C1294  C587    1.401   1_556 S
C1295  C585    1.418   1_556 S
C1296  C1297   1.412   .     A
C1297  C1298   1.385   .     A
C1297  H1325   1.076   .     S
C1298  H1299   1.081   .     S
H1301  N1326   1.046   .     S
H1302  N1326   1.046   .     S
H1321  C804    1.086   1_565 S
N1326  C1354   1.437   .     S
O1327  Zn1343  1.935   .     S
O1327  Zn1340  1.957   .     S
O1327  Zn1341  1.944   .     S
O1327  Zn1342  1.938   .     S
O1328  Zn1341  1.930   .     S
O1329  Zn1343  1.937   .     S
O1330  Zn1342  1.933   .     S
O1331  Zn1340  1.926   .     S
O1332  Zn1340  1.927   .     S
O1333  Zn1343  1.929   .     S
O1334  Zn1341  1.936   .     S
O1335  Zn1342  1.944   .     S
O1336  Zn1343  1.940   .     S
O1337  Zn1340  1.934   .     S
O1338  Zn1341  1.933   .     S
O1339  Zn1342  1.928   .     S
C1344  C1354   1.434   .     S
C1344  O1415   1.267   .     A
C1344  O1413   1.268   .     A
C1345  C1374   1.413   .     A
C1345  H1379   1.076   .     S
C1345  C1346   1.396   .     A
C1346  C1368   1.520   .     S
C1346  C637    1.413   1_556 S
C1347  O1416   1.271   .     A
C1347  C1353   1.457   .     S
C1347  O1414   1.286   .     A
C1348  C1349   1.425   .     A
C1348  C1350   1.412   .     A
C1349  C1375   1.427   .     A
C1349  C1352   1.410   .     A
C1350  C1351   1.397   .     A
C1350  H1389   1.080   .     S
C1351  C1363   1.405   .     A
C1351  C1365   1.515   .     S
C1352  C1363   1.390   .     A
C1352  H1401   1.077   .     S
C1353  C1196   1.346   1_655 S
C1353  H1240   1.088   1_655 S
C1355  H1402   1.080   .     S
C1355  C1364   1.408   .     A
C1355  C1362   1.397   .     A
C1356  C1359   1.451   .     S
C1356  C883    1.331   1_565 S
C1356  H925    1.088   1_565 S
C1357  C1358   1.434   .     S
C1358  O1411   1.277   .     A
C1358  O1417   1.277   .     A
C1359  O1418   1.273   .     A
C1359  O1412   1.273   .     A
C1360  O1409   1.276   .     A
C1360  O1407   1.274   .     A
C1360  C1363   1.456   .     S
C1361  O1408   1.282   .     A
C1361  C1362   1.472   .     S
C1361  O1410   1.285   .     A
C1362  C1366   1.390   .     A
C1364  C1370   1.529   .     S
C1364  C1373   1.427   .     A
C1365  H1386   1.110   .     S
C1365  C1367   1.526   .     S
C1365  H1385   1.112   .     S
C1366  C1372   1.405   .     A
C1366  H1403   1.076   .     S
C1367  H1382   1.111   .     S
C1367  H1384   1.110   .     S
C1367  H1383   1.111   .     S
C1368  C1369   1.527   .     S
C1368  H1391   1.112   .     S
C1368  H1392   1.110   .     S
C1369  H1387   1.110   .     S
C1369  H1388   1.111   .     S
C1369  H1390   1.110   .     S
C1370  H1397   1.110   .     S
C1370  C1371   1.530   .     S
C1370  H685    1.111   1_556 S
C1371  H1394   1.111   .     S
C1371  H1393   1.111   .     S
C1371  H921    1.111   1_565 S
C1372  C1373   1.424   .     A
C1372  C1374   1.430   .     A
C1373  C666    1.401   1_556 S
C1374  C664    1.418   1_556 S
C1375  C1376   1.412   .     A
C1376  C1377   1.385   .     A
C1376  H1404   1.076   .     S
C1377  H1378   1.081   .     S
H1380  N1405   1.046   .     S
H1381  N1405   1.046   .     S
H1400  C883    1.086   1_565 S
N1405  C1196   1.437   1_655 S
O1406  Zn1422  1.935   .     S
O1406  Zn1419  1.957   .     S
O1406  Zn1420  1.944   .     S
O1406  Zn1421  1.938   .     S
O1407  Zn1420  1.930   .     S
O1408  Zn1422  1.937   .     S
O1409  Zn1421  1.933   .     S
O1410  Zn1419  1.926   .     S
O1411  Zn1419  1.927   .     S
O1412  Zn1422  1.929   .     S
O1413  Zn1420  1.936   .     S
O1414  Zn1421  1.944   .     S
O1415  Zn1422  1.940   .     S
O1416  Zn1419  1.934   .     S
O1417  Zn1420  1.933   .     S
O1418  Zn1421  1.928   .     S
