data_str_m3_o2_o10_pcu_sym.140
_audit_creation_date              2020-01-03
_audit_creation_method            'Materials Studio'
_symmetry_space_group_name_H-M    'P1'
_symmetry_Int_Tables_number       1
_symmetry_cell_setting            triclinic
loop_
_symmetry_equiv_pos_as_xyz
  x,y,z
_cell_length_a                    25.9075
_cell_length_b                    29.9279
_cell_length_c                    28.3049
_cell_angle_alpha                 89.6470
_cell_angle_beta                  98.1977
_cell_angle_gamma                 90.0044
loop_
_atom_site_label
_atom_site_type_symbol
_atom_site_fract_x
_atom_site_fract_y
_atom_site_fract_z
_atom_site_U_iso_or_equiv
_atom_site_adp_type
_atom_site_occupancy
C1     C     0.16709   0.16366   0.25025   0.00000  Uiso   1.00
C2     C     0.16584   0.33616   0.24972   0.00000  Uiso   1.00
C3     C     0.12809   0.27272   0.04705   0.00000  Uiso   1.00
C4     C     0.20862   0.26758   0.45320   0.00000  Uiso   1.00
C5     C     0.12920   0.27268   0.09705   0.00000  Uiso   1.00
C6     C     0.20758   0.26767   0.40321   0.00000  Uiso   1.00
C7     C     0.20366   0.22619   0.10768   0.00000  Uiso   1.00
C8     C     0.12588   0.23132   0.39208   0.00000  Uiso   1.00
C9     C     0.20452   0.22429   0.05818   0.00000  Uiso   1.00
C10    C     0.12465   0.22954   0.44156   0.00000  Uiso   1.00
C11    C     0.16650   0.24848   0.02670   0.00000  Uiso   1.00
C12    C     0.16643   0.24852   0.47330   0.00000  Uiso   1.00
C13    C     0.06720   0.24902   0.23783   0.00000  Uiso   1.00
C14    C     0.26614   0.25102   0.26219   0.00000  Uiso   1.00
C15    C     0.01274   0.24235   0.23257   0.00000  Uiso   1.00
C16    C     0.32063   0.25763   0.26752   0.00000  Uiso   1.00
C17    C     0.16565   0.04420   0.29015   0.00000  Uiso   1.00
C18    C     0.15136   0.45532   0.21045   0.00000  Uiso   1.00
C19    C     0.15928   0.09041   0.29045   0.00000  Uiso   1.00
C20    C     0.14285   0.40968   0.21085   0.00000  Uiso   1.00
C21    C     0.17162   0.11546   0.25121   0.00000  Uiso   1.00
C22    C     0.16833   0.38415   0.24955   0.00000  Uiso   1.00
C23    C     0.19028   0.09438   0.21285   0.00000  Uiso   1.00
C24    C     0.20004   0.40470   0.28746   0.00000  Uiso   1.00
C25    C     0.19598   0.04855   0.21287   0.00000  Uiso   1.00
C26    C     0.20687   0.45040   0.28720   0.00000  Uiso   1.00
C27    C     0.18333   0.02360   0.25132   0.00000  Uiso   1.00
C28    C     0.18242   0.47558   0.24879   0.00000  Uiso   1.00
H29    H     0.15484   0.02407   0.31917   0.00000  Uiso   1.00
H30    H     0.13119   0.47537   0.18152   0.00000  Uiso   1.00
H31    H     0.20050   0.11330   0.18278   0.00000  Uiso   1.00
H32    H     0.22003   0.38530   0.31700   0.00000  Uiso   1.00
H33    H     0.20941   0.03241   0.18268   0.00000  Uiso   1.00
H34    H     0.23066   0.46626   0.31702   0.00000  Uiso   1.00
H35    H     0.09987   0.29093   0.11272   0.00000  Uiso   1.00
H36    H     0.23975   0.28203   0.38780   0.00000  Uiso   1.00
H37    H     0.23231   0.20760   0.13155   0.00000  Uiso   1.00
H38    H     0.09420   0.21675   0.36806   0.00000  Uiso   1.00
N39    N     0.16667   0.24999   0.12624   0.00000  Uiso   1.00
N40    N     0.16667   0.25001   0.37377   0.00000  Uiso   1.00
O41    O     0.16667   0.18453   0.28974   0.00000  Uiso   1.00
O42    O     0.16666   0.31547   0.21026   0.00000  Uiso   1.00
O43    O     0.16667   0.18453   0.21026   0.00000  Uiso   1.00
O44    O     0.16666   0.31547   0.28974   0.00000  Uiso   1.00
O45    O     0.09058   0.25000   0.28045   0.00000  Uiso   1.00
O46    O     0.24275   0.25000   0.21956   0.00000  Uiso   1.00
O47    O     0.09058   0.25000   0.20097   0.00000  Uiso   1.00
O48    O     0.24275   0.25000   0.29904   0.00000  Uiso   1.00
Zn49   Zn    0.16667   0.25001   0.30307   0.00000  Uiso   1.00
Zn50   Zn    0.16667   0.25000   0.19693   0.00000  Uiso   1.00
O51    O     0.32148   0.21685   0.19507   0.00000  Uiso   1.00
H52    H     0.01421   0.20575   0.17549   0.00000  Uiso   1.00
O53    O     0.01194   0.28296   0.30518   0.00000  Uiso   1.00
H54    H     0.31918   0.29412   0.32470   0.00000  Uiso   1.00
O55    O     0.13976   0.11128   0.32761   0.00000  Uiso   1.00
H56    H     0.13333   0.08864   0.35184   0.00000  Uiso   1.00
O57    O     0.10849   0.39194   0.17396   0.00000  Uiso   1.00
H58    H     0.09323   0.36420   0.18522   0.00000  Uiso   1.00
N59    N     0.08680   0.29527   0.01768   0.00000  Uiso   1.00
H60    H     0.05257   0.29650   0.03234   0.00000  Uiso   1.00
C61    C     0.10042   0.33845   0.49988   0.00000  Uiso   1.00
H62    H     0.06555   0.35363   0.47836   0.00000  Uiso   1.00
H63    H     0.11429   0.36105   0.03006   0.00000  Uiso   1.00
H64    H     0.13096   0.33503   0.47641   0.00000  Uiso   1.00
N65    N     0.25332   0.28461   0.48280   0.00000  Uiso   1.00
H66    H     0.28739   0.28150   0.46814   0.00000  Uiso   1.00
C67    C     0.24725   0.32902   0.00108   0.00000  Uiso   1.00
H68    H     0.28437   0.33961   0.02268   0.00000  Uiso   1.00
H69    H     0.21652   0.32947   0.02460   0.00000  Uiso   1.00
H70    H     0.23733   0.35317   0.47118   0.00000  Uiso   1.00
O71    O     0.24226   0.19772   0.04266   0.00000  Uiso   1.00
H72    H     0.23414   0.19328   0.00782   0.00000  Uiso   1.00
O73    O     0.08267   0.20817   0.45680   0.00000  Uiso   1.00
H74    H     0.08990   0.20270   0.49160   0.00000  Uiso   1.00
C75    C     0.50042   0.16366   0.25025   0.00000  Uiso   1.00
C76    C     0.49917   0.33616   0.24972   0.00000  Uiso   1.00
C77    C     0.46142   0.27272   0.04705   0.00000  Uiso   1.00
C78    C     0.54195   0.26758   0.45320   0.00000  Uiso   1.00
C79    C     0.46254   0.27268   0.09705   0.00000  Uiso   1.00
C80    C     0.54091   0.26767   0.40321   0.00000  Uiso   1.00
C81    C     0.53699   0.22619   0.10768   0.00000  Uiso   1.00
C82    C     0.45921   0.23132   0.39208   0.00000  Uiso   1.00
C83    C     0.53785   0.22429   0.05818   0.00000  Uiso   1.00
C84    C     0.45798   0.22954   0.44156   0.00000  Uiso   1.00
C85    C     0.49983   0.24848   0.02670   0.00000  Uiso   1.00
C86    C     0.49977   0.24852   0.47330   0.00000  Uiso   1.00
C87    C     0.40054   0.24902   0.23783   0.00000  Uiso   1.00
C88    C     0.59947   0.25102   0.26219   0.00000  Uiso   1.00
C89    C     0.34608   0.24235   0.23257   0.00000  Uiso   1.00
C90    C     0.65396   0.25763   0.26752   0.00000  Uiso   1.00
C91    C     0.49898   0.04420   0.29015   0.00000  Uiso   1.00
C92    C     0.48469   0.45532   0.21045   0.00000  Uiso   1.00
C93    C     0.49262   0.09041   0.29045   0.00000  Uiso   1.00
C94    C     0.47619   0.40968   0.21085   0.00000  Uiso   1.00
C95    C     0.50496   0.11546   0.25121   0.00000  Uiso   1.00
C96    C     0.50166   0.38415   0.24955   0.00000  Uiso   1.00
C97    C     0.52361   0.09438   0.21285   0.00000  Uiso   1.00
C98    C     0.53337   0.40470   0.28746   0.00000  Uiso   1.00
C99    C     0.52931   0.04855   0.21287   0.00000  Uiso   1.00
C100   C     0.54020   0.45040   0.28720   0.00000  Uiso   1.00
C101   C     0.51667   0.02360   0.25132   0.00000  Uiso   1.00
C102   C     0.51575   0.47558   0.24879   0.00000  Uiso   1.00
H103   H     0.48818   0.02407   0.31917   0.00000  Uiso   1.00
H104   H     0.46453   0.47537   0.18152   0.00000  Uiso   1.00
H105   H     0.53383   0.11330   0.18278   0.00000  Uiso   1.00
H106   H     0.55336   0.38530   0.31700   0.00000  Uiso   1.00
H107   H     0.54274   0.03241   0.18268   0.00000  Uiso   1.00
H108   H     0.56400   0.46626   0.31702   0.00000  Uiso   1.00
H109   H     0.43321   0.29093   0.11272   0.00000  Uiso   1.00
H110   H     0.57308   0.28203   0.38780   0.00000  Uiso   1.00
H111   H     0.56564   0.20760   0.13155   0.00000  Uiso   1.00
H112   H     0.42754   0.21675   0.36806   0.00000  Uiso   1.00
N113   N     0.50000   0.24999   0.12624   0.00000  Uiso   1.00
N114   N     0.50000   0.25001   0.37377   0.00000  Uiso   1.00
O115   O     0.50000   0.18453   0.28974   0.00000  Uiso   1.00
O116   O     0.50000   0.31547   0.21026   0.00000  Uiso   1.00
O117   O     0.50000   0.18453   0.21026   0.00000  Uiso   1.00
O118   O     0.50000   0.31547   0.28974   0.00000  Uiso   1.00
O119   O     0.42392   0.25000   0.28045   0.00000  Uiso   1.00
O120   O     0.57608   0.25000   0.21956   0.00000  Uiso   1.00
O121   O     0.42392   0.25000   0.20097   0.00000  Uiso   1.00
O122   O     0.57608   0.25000   0.29904   0.00000  Uiso   1.00
Zn123  Zn    0.50000   0.25001   0.30307   0.00000  Uiso   1.00
Zn124  Zn    0.50000   0.25000   0.19693   0.00000  Uiso   1.00
O125   O     0.65481   0.21685   0.19507   0.00000  Uiso   1.00
H126   H     0.34754   0.20575   0.17549   0.00000  Uiso   1.00
O127   O     0.34527   0.28296   0.30518   0.00000  Uiso   1.00
H128   H     0.65252   0.29412   0.32470   0.00000  Uiso   1.00
O129   O     0.47310   0.11128   0.32761   0.00000  Uiso   1.00
H130   H     0.46666   0.08864   0.35184   0.00000  Uiso   1.00
O131   O     0.44182   0.39194   0.17396   0.00000  Uiso   1.00
H132   H     0.42656   0.36420   0.18522   0.00000  Uiso   1.00
N133   N     0.42013   0.29527   0.01768   0.00000  Uiso   1.00
H134   H     0.38590   0.29650   0.03234   0.00000  Uiso   1.00
C135   C     0.43375   0.33845   0.49988   0.00000  Uiso   1.00
H136   H     0.39888   0.35363   0.47836   0.00000  Uiso   1.00
H137   H     0.44762   0.36105   0.03006   0.00000  Uiso   1.00
H138   H     0.46429   0.33503   0.47641   0.00000  Uiso   1.00
N139   N     0.58665   0.28461   0.48280   0.00000  Uiso   1.00
H140   H     0.62073   0.28150   0.46814   0.00000  Uiso   1.00
C141   C     0.58059   0.32902   0.00108   0.00000  Uiso   1.00
H142   H     0.61771   0.33961   0.02268   0.00000  Uiso   1.00
H143   H     0.54986   0.32947   0.02460   0.00000  Uiso   1.00
H144   H     0.57066   0.35317   0.47118   0.00000  Uiso   1.00
O145   O     0.57559   0.19772   0.04266   0.00000  Uiso   1.00
H146   H     0.56747   0.19328   0.00782   0.00000  Uiso   1.00
O147   O     0.41600   0.20817   0.45680   0.00000  Uiso   1.00
H148   H     0.42323   0.20270   0.49160   0.00000  Uiso   1.00
C149   C     0.83376   0.16366   0.25025   0.00000  Uiso   1.00
C150   C     0.83251   0.33616   0.24972   0.00000  Uiso   1.00
C151   C     0.79476   0.27272   0.04705   0.00000  Uiso   1.00
C152   C     0.87529   0.26758   0.45320   0.00000  Uiso   1.00
C153   C     0.79587   0.27268   0.09705   0.00000  Uiso   1.00
C154   C     0.87425   0.26767   0.40321   0.00000  Uiso   1.00
C155   C     0.87032   0.22619   0.10768   0.00000  Uiso   1.00
C156   C     0.79254   0.23132   0.39208   0.00000  Uiso   1.00
C157   C     0.87119   0.22429   0.05818   0.00000  Uiso   1.00
C158   C     0.79132   0.22954   0.44156   0.00000  Uiso   1.00
C159   C     0.83317   0.24848   0.02670   0.00000  Uiso   1.00
C160   C     0.83310   0.24852   0.47330   0.00000  Uiso   1.00
C161   C     0.73387   0.24902   0.23783   0.00000  Uiso   1.00
C162   C     0.93280   0.25102   0.26219   0.00000  Uiso   1.00
C163   C     0.67941   0.24235   0.23257   0.00000  Uiso   1.00
C164   C     0.98729   0.25763   0.26752   0.00000  Uiso   1.00
C165   C     0.83232   0.04420   0.29015   0.00000  Uiso   1.00
C166   C     0.81803   0.45532   0.21045   0.00000  Uiso   1.00
C167   C     0.82595   0.09041   0.29045   0.00000  Uiso   1.00
C168   C     0.80952   0.40968   0.21085   0.00000  Uiso   1.00
C169   C     0.83829   0.11546   0.25121   0.00000  Uiso   1.00
C170   C     0.83499   0.38415   0.24955   0.00000  Uiso   1.00
C171   C     0.85694   0.09438   0.21285   0.00000  Uiso   1.00
C172   C     0.86670   0.40470   0.28746   0.00000  Uiso   1.00
C173   C     0.86265   0.04855   0.21287   0.00000  Uiso   1.00
C174   C     0.87353   0.45040   0.28720   0.00000  Uiso   1.00
C175   C     0.85000   0.02360   0.25132   0.00000  Uiso   1.00
C176   C     0.84908   0.47558   0.24879   0.00000  Uiso   1.00
H177   H     0.82151   0.02407   0.31917   0.00000  Uiso   1.00
H178   H     0.79786   0.47537   0.18152   0.00000  Uiso   1.00
H179   H     0.86717   0.11330   0.18278   0.00000  Uiso   1.00
H180   H     0.88670   0.38530   0.31700   0.00000  Uiso   1.00
H181   H     0.87607   0.03241   0.18268   0.00000  Uiso   1.00
H182   H     0.89733   0.46626   0.31702   0.00000  Uiso   1.00
H183   H     0.76654   0.29093   0.11272   0.00000  Uiso   1.00
H184   H     0.90642   0.28203   0.38780   0.00000  Uiso   1.00
H185   H     0.89897   0.20760   0.13155   0.00000  Uiso   1.00
H186   H     0.76087   0.21675   0.36806   0.00000  Uiso   1.00
N187   N     0.83333   0.24999   0.12624   0.00000  Uiso   1.00
N188   N     0.83333   0.25001   0.37377   0.00000  Uiso   1.00
O189   O     0.83334   0.18453   0.28974   0.00000  Uiso   1.00
O190   O     0.83333   0.31547   0.21026   0.00000  Uiso   1.00
O191   O     0.83334   0.18453   0.21026   0.00000  Uiso   1.00
O192   O     0.83333   0.31547   0.28974   0.00000  Uiso   1.00
O193   O     0.75725   0.25000   0.28045   0.00000  Uiso   1.00
O194   O     0.90942   0.25000   0.21956   0.00000  Uiso   1.00
O195   O     0.75725   0.25000   0.20097   0.00000  Uiso   1.00
O196   O     0.90942   0.25000   0.29904   0.00000  Uiso   1.00
Zn197  Zn    0.83333   0.25001   0.30307   0.00000  Uiso   1.00
Zn198  Zn    0.83333   0.25000   0.19693   0.00000  Uiso   1.00
O199   O     0.98815   0.21685   0.19507   0.00000  Uiso   1.00
H200   H     0.68088   0.20575   0.17549   0.00000  Uiso   1.00
O201   O     0.67861   0.28296   0.30518   0.00000  Uiso   1.00
H202   H     0.98585   0.29412   0.32470   0.00000  Uiso   1.00
O203   O     0.80643   0.11128   0.32761   0.00000  Uiso   1.00
H204   H     0.80000   0.08864   0.35184   0.00000  Uiso   1.00
O205   O     0.77516   0.39194   0.17396   0.00000  Uiso   1.00
H206   H     0.75989   0.36420   0.18522   0.00000  Uiso   1.00
N207   N     0.75346   0.29527   0.01768   0.00000  Uiso   1.00
H208   H     0.71923   0.29650   0.03234   0.00000  Uiso   1.00
C209   C     0.76708   0.33845   0.49988   0.00000  Uiso   1.00
H210   H     0.73221   0.35363   0.47836   0.00000  Uiso   1.00
H211   H     0.78096   0.36105   0.03006   0.00000  Uiso   1.00
H212   H     0.79763   0.33503   0.47641   0.00000  Uiso   1.00
N213   N     0.91999   0.28461   0.48280   0.00000  Uiso   1.00
H214   H     0.95406   0.28150   0.46814   0.00000  Uiso   1.00
C215   C     0.91392   0.32902   0.00108   0.00000  Uiso   1.00
H216   H     0.95104   0.33961   0.02268   0.00000  Uiso   1.00
H217   H     0.88319   0.32947   0.02460   0.00000  Uiso   1.00
H218   H     0.90399   0.35317   0.47118   0.00000  Uiso   1.00
O219   O     0.90893   0.19772   0.04266   0.00000  Uiso   1.00
H220   H     0.90080   0.19328   0.00782   0.00000  Uiso   1.00
O221   O     0.74934   0.20817   0.45680   0.00000  Uiso   1.00
H222   H     0.75657   0.20270   0.49160   0.00000  Uiso   1.00
C223   C     0.16709   0.66366   0.25025   0.00000  Uiso   1.00
C224   C     0.16584   0.83616   0.24972   0.00000  Uiso   1.00
C225   C     0.12809   0.77272   0.04705   0.00000  Uiso   1.00
C226   C     0.20862   0.76758   0.45320   0.00000  Uiso   1.00
C227   C     0.12920   0.77268   0.09705   0.00000  Uiso   1.00
C228   C     0.20758   0.76767   0.40321   0.00000  Uiso   1.00
C229   C     0.20366   0.72619   0.10768   0.00000  Uiso   1.00
C230   C     0.12588   0.73132   0.39208   0.00000  Uiso   1.00
C231   C     0.20452   0.72429   0.05818   0.00000  Uiso   1.00
C232   C     0.12465   0.72954   0.44156   0.00000  Uiso   1.00
C233   C     0.16650   0.74848   0.02670   0.00000  Uiso   1.00
C234   C     0.16643   0.74852   0.47330   0.00000  Uiso   1.00
C235   C     0.06720   0.74902   0.23783   0.00000  Uiso   1.00
C236   C     0.26614   0.75102   0.26219   0.00000  Uiso   1.00
C237   C     0.01274   0.74235   0.23257   0.00000  Uiso   1.00
C238   C     0.32063   0.75763   0.26752   0.00000  Uiso   1.00
C239   C     0.16565   0.54420   0.29015   0.00000  Uiso   1.00
C240   C     0.15136   0.95532   0.21045   0.00000  Uiso   1.00
C241   C     0.15928   0.59041   0.29045   0.00000  Uiso   1.00
C242   C     0.14285   0.90968   0.21085   0.00000  Uiso   1.00
C243   C     0.17162   0.61546   0.25121   0.00000  Uiso   1.00
C244   C     0.16833   0.88415   0.24955   0.00000  Uiso   1.00
C245   C     0.19028   0.59438   0.21285   0.00000  Uiso   1.00
C246   C     0.20004   0.90470   0.28746   0.00000  Uiso   1.00
C247   C     0.19598   0.54855   0.21287   0.00000  Uiso   1.00
C248   C     0.20687   0.95040   0.28720   0.00000  Uiso   1.00
C249   C     0.18333   0.52360   0.25132   0.00000  Uiso   1.00
C250   C     0.18242   0.97558   0.24879   0.00000  Uiso   1.00
H251   H     0.15484   0.52407   0.31917   0.00000  Uiso   1.00
H252   H     0.13119   0.97537   0.18152   0.00000  Uiso   1.00
H253   H     0.20050   0.61330   0.18278   0.00000  Uiso   1.00
H254   H     0.22003   0.88530   0.31700   0.00000  Uiso   1.00
H255   H     0.20941   0.53241   0.18268   0.00000  Uiso   1.00
H256   H     0.23066   0.96626   0.31702   0.00000  Uiso   1.00
H257   H     0.09987   0.79093   0.11272   0.00000  Uiso   1.00
H258   H     0.23975   0.78203   0.38780   0.00000  Uiso   1.00
H259   H     0.23231   0.70760   0.13155   0.00000  Uiso   1.00
H260   H     0.09420   0.71675   0.36806   0.00000  Uiso   1.00
N261   N     0.16667   0.74999   0.12624   0.00000  Uiso   1.00
N262   N     0.16667   0.75001   0.37377   0.00000  Uiso   1.00
O263   O     0.16667   0.68453   0.28974   0.00000  Uiso   1.00
O264   O     0.16666   0.81547   0.21026   0.00000  Uiso   1.00
O265   O     0.16667   0.68453   0.21026   0.00000  Uiso   1.00
O266   O     0.16666   0.81547   0.28974   0.00000  Uiso   1.00
O267   O     0.09058   0.75000   0.28045   0.00000  Uiso   1.00
O268   O     0.24275   0.75000   0.21956   0.00000  Uiso   1.00
O269   O     0.09058   0.75000   0.20097   0.00000  Uiso   1.00
O270   O     0.24275   0.75000   0.29904   0.00000  Uiso   1.00
Zn271  Zn    0.16667   0.75001   0.30307   0.00000  Uiso   1.00
Zn272  Zn    0.16667   0.75000   0.19693   0.00000  Uiso   1.00
O273   O     0.32148   0.71685   0.19507   0.00000  Uiso   1.00
H274   H     0.01421   0.70575   0.17549   0.00000  Uiso   1.00
O275   O     0.01194   0.78296   0.30518   0.00000  Uiso   1.00
H276   H     0.31918   0.79412   0.32470   0.00000  Uiso   1.00
O277   O     0.13976   0.61128   0.32761   0.00000  Uiso   1.00
H278   H     0.13333   0.58864   0.35184   0.00000  Uiso   1.00
O279   O     0.10849   0.89194   0.17396   0.00000  Uiso   1.00
H280   H     0.09323   0.86420   0.18522   0.00000  Uiso   1.00
N281   N     0.08680   0.79527   0.01768   0.00000  Uiso   1.00
H282   H     0.05257   0.79650   0.03234   0.00000  Uiso   1.00
C283   C     0.10042   0.83845   0.49988   0.00000  Uiso   1.00
H284   H     0.06555   0.85363   0.47836   0.00000  Uiso   1.00
H285   H     0.11429   0.86105   0.03006   0.00000  Uiso   1.00
H286   H     0.13096   0.83503   0.47641   0.00000  Uiso   1.00
N287   N     0.25332   0.78461   0.48280   0.00000  Uiso   1.00
H288   H     0.28739   0.78150   0.46814   0.00000  Uiso   1.00
C289   C     0.24725   0.82902   0.00108   0.00000  Uiso   1.00
H290   H     0.28437   0.83961   0.02268   0.00000  Uiso   1.00
H291   H     0.21652   0.82947   0.02460   0.00000  Uiso   1.00
H292   H     0.23733   0.85317   0.47118   0.00000  Uiso   1.00
O293   O     0.24226   0.69772   0.04266   0.00000  Uiso   1.00
H294   H     0.23414   0.69328   0.00782   0.00000  Uiso   1.00
O295   O     0.08267   0.70817   0.45680   0.00000  Uiso   1.00
H296   H     0.08990   0.70270   0.49160   0.00000  Uiso   1.00
C297   C     0.50042   0.66366   0.25025   0.00000  Uiso   1.00
C298   C     0.49917   0.83616   0.24972   0.00000  Uiso   1.00
C299   C     0.46142   0.77272   0.04705   0.00000  Uiso   1.00
C300   C     0.54195   0.76758   0.45320   0.00000  Uiso   1.00
C301   C     0.46254   0.77268   0.09705   0.00000  Uiso   1.00
C302   C     0.54091   0.76767   0.40321   0.00000  Uiso   1.00
C303   C     0.53699   0.72619   0.10768   0.00000  Uiso   1.00
C304   C     0.45921   0.73132   0.39208   0.00000  Uiso   1.00
C305   C     0.53785   0.72429   0.05818   0.00000  Uiso   1.00
C306   C     0.45798   0.72954   0.44156   0.00000  Uiso   1.00
C307   C     0.49983   0.74848   0.02670   0.00000  Uiso   1.00
C308   C     0.49977   0.74852   0.47330   0.00000  Uiso   1.00
C309   C     0.40054   0.74902   0.23783   0.00000  Uiso   1.00
C310   C     0.59947   0.75102   0.26219   0.00000  Uiso   1.00
C311   C     0.34608   0.74235   0.23257   0.00000  Uiso   1.00
C312   C     0.65396   0.75763   0.26752   0.00000  Uiso   1.00
C313   C     0.49898   0.54420   0.29015   0.00000  Uiso   1.00
C314   C     0.48469   0.95532   0.21045   0.00000  Uiso   1.00
C315   C     0.49262   0.59041   0.29045   0.00000  Uiso   1.00
C316   C     0.47619   0.90968   0.21085   0.00000  Uiso   1.00
C317   C     0.50496   0.61546   0.25121   0.00000  Uiso   1.00
C318   C     0.50166   0.88415   0.24955   0.00000  Uiso   1.00
C319   C     0.52361   0.59438   0.21285   0.00000  Uiso   1.00
C320   C     0.53337   0.90470   0.28746   0.00000  Uiso   1.00
C321   C     0.52931   0.54855   0.21287   0.00000  Uiso   1.00
C322   C     0.54020   0.95040   0.28720   0.00000  Uiso   1.00
C323   C     0.51667   0.52360   0.25132   0.00000  Uiso   1.00
C324   C     0.51575   0.97558   0.24879   0.00000  Uiso   1.00
H325   H     0.48818   0.52407   0.31917   0.00000  Uiso   1.00
H326   H     0.46453   0.97537   0.18152   0.00000  Uiso   1.00
H327   H     0.53383   0.61330   0.18278   0.00000  Uiso   1.00
H328   H     0.55336   0.88530   0.31700   0.00000  Uiso   1.00
H329   H     0.54274   0.53241   0.18268   0.00000  Uiso   1.00
H330   H     0.56400   0.96626   0.31702   0.00000  Uiso   1.00
H331   H     0.43321   0.79093   0.11272   0.00000  Uiso   1.00
H332   H     0.57308   0.78203   0.38780   0.00000  Uiso   1.00
H333   H     0.56564   0.70760   0.13155   0.00000  Uiso   1.00
H334   H     0.42754   0.71675   0.36806   0.00000  Uiso   1.00
N335   N     0.50000   0.74999   0.12624   0.00000  Uiso   1.00
N336   N     0.50000   0.75001   0.37377   0.00000  Uiso   1.00
O337   O     0.50000   0.68453   0.28974   0.00000  Uiso   1.00
O338   O     0.50000   0.81547   0.21026   0.00000  Uiso   1.00
O339   O     0.50000   0.68453   0.21026   0.00000  Uiso   1.00
O340   O     0.50000   0.81547   0.28974   0.00000  Uiso   1.00
O341   O     0.42392   0.75000   0.28045   0.00000  Uiso   1.00
O342   O     0.57608   0.75000   0.21956   0.00000  Uiso   1.00
O343   O     0.42392   0.75000   0.20097   0.00000  Uiso   1.00
O344   O     0.57608   0.75000   0.29904   0.00000  Uiso   1.00
Zn345  Zn    0.50000   0.75001   0.30307   0.00000  Uiso   1.00
Zn346  Zn    0.50000   0.75000   0.19693   0.00000  Uiso   1.00
O347   O     0.65481   0.71685   0.19507   0.00000  Uiso   1.00
H348   H     0.34754   0.70575   0.17549   0.00000  Uiso   1.00
O349   O     0.34527   0.78296   0.30518   0.00000  Uiso   1.00
H350   H     0.65252   0.79412   0.32470   0.00000  Uiso   1.00
O351   O     0.47310   0.61128   0.32761   0.00000  Uiso   1.00
H352   H     0.46666   0.58864   0.35184   0.00000  Uiso   1.00
O353   O     0.44182   0.89194   0.17396   0.00000  Uiso   1.00
H354   H     0.42656   0.86420   0.18522   0.00000  Uiso   1.00
N355   N     0.42013   0.79527   0.01768   0.00000  Uiso   1.00
H356   H     0.38590   0.79650   0.03234   0.00000  Uiso   1.00
C357   C     0.43375   0.83845   0.49988   0.00000  Uiso   1.00
H358   H     0.39888   0.85363   0.47836   0.00000  Uiso   1.00
H359   H     0.44762   0.86105   0.03006   0.00000  Uiso   1.00
H360   H     0.46429   0.83503   0.47641   0.00000  Uiso   1.00
N361   N     0.58665   0.78461   0.48280   0.00000  Uiso   1.00
H362   H     0.62073   0.78150   0.46814   0.00000  Uiso   1.00
C363   C     0.58059   0.82902   0.00108   0.00000  Uiso   1.00
H364   H     0.61771   0.83961   0.02268   0.00000  Uiso   1.00
H365   H     0.54986   0.82947   0.02460   0.00000  Uiso   1.00
H366   H     0.57066   0.85317   0.47118   0.00000  Uiso   1.00
O367   O     0.57559   0.69772   0.04266   0.00000  Uiso   1.00
H368   H     0.56747   0.69328   0.00782   0.00000  Uiso   1.00
O369   O     0.41600   0.70817   0.45680   0.00000  Uiso   1.00
H370   H     0.42323   0.70270   0.49160   0.00000  Uiso   1.00
C371   C     0.83376   0.66366   0.25025   0.00000  Uiso   1.00
C372   C     0.83251   0.83616   0.24972   0.00000  Uiso   1.00
C373   C     0.79476   0.77272   0.04705   0.00000  Uiso   1.00
C374   C     0.87529   0.76758   0.45320   0.00000  Uiso   1.00
C375   C     0.79587   0.77268   0.09705   0.00000  Uiso   1.00
C376   C     0.87425   0.76767   0.40321   0.00000  Uiso   1.00
C377   C     0.87032   0.72619   0.10768   0.00000  Uiso   1.00
C378   C     0.79254   0.73132   0.39208   0.00000  Uiso   1.00
C379   C     0.87119   0.72429   0.05818   0.00000  Uiso   1.00
C380   C     0.79132   0.72954   0.44156   0.00000  Uiso   1.00
C381   C     0.83317   0.74848   0.02670   0.00000  Uiso   1.00
C382   C     0.83310   0.74852   0.47330   0.00000  Uiso   1.00
C383   C     0.73387   0.74902   0.23783   0.00000  Uiso   1.00
C384   C     0.93280   0.75102   0.26219   0.00000  Uiso   1.00
C385   C     0.67941   0.74235   0.23257   0.00000  Uiso   1.00
C386   C     0.98729   0.75763   0.26752   0.00000  Uiso   1.00
C387   C     0.83232   0.54420   0.29015   0.00000  Uiso   1.00
C388   C     0.81803   0.95532   0.21045   0.00000  Uiso   1.00
C389   C     0.82595   0.59041   0.29045   0.00000  Uiso   1.00
C390   C     0.80952   0.90968   0.21085   0.00000  Uiso   1.00
C391   C     0.83829   0.61546   0.25121   0.00000  Uiso   1.00
C392   C     0.83499   0.88415   0.24955   0.00000  Uiso   1.00
C393   C     0.85694   0.59438   0.21285   0.00000  Uiso   1.00
C394   C     0.86670   0.90470   0.28746   0.00000  Uiso   1.00
C395   C     0.86265   0.54855   0.21287   0.00000  Uiso   1.00
C396   C     0.87353   0.95040   0.28720   0.00000  Uiso   1.00
C397   C     0.85000   0.52360   0.25132   0.00000  Uiso   1.00
C398   C     0.84908   0.97558   0.24879   0.00000  Uiso   1.00
H399   H     0.82151   0.52407   0.31917   0.00000  Uiso   1.00
H400   H     0.79786   0.97537   0.18152   0.00000  Uiso   1.00
H401   H     0.86717   0.61330   0.18278   0.00000  Uiso   1.00
H402   H     0.88670   0.88530   0.31700   0.00000  Uiso   1.00
H403   H     0.87607   0.53241   0.18268   0.00000  Uiso   1.00
H404   H     0.89733   0.96626   0.31702   0.00000  Uiso   1.00
H405   H     0.76654   0.79093   0.11272   0.00000  Uiso   1.00
H406   H     0.90642   0.78203   0.38780   0.00000  Uiso   1.00
H407   H     0.89897   0.70760   0.13155   0.00000  Uiso   1.00
H408   H     0.76087   0.71675   0.36806   0.00000  Uiso   1.00
N409   N     0.83333   0.74999   0.12624   0.00000  Uiso   1.00
N410   N     0.83333   0.75001   0.37377   0.00000  Uiso   1.00
O411   O     0.83334   0.68453   0.28974   0.00000  Uiso   1.00
O412   O     0.83333   0.81547   0.21026   0.00000  Uiso   1.00
O413   O     0.83334   0.68453   0.21026   0.00000  Uiso   1.00
O414   O     0.83333   0.81547   0.28974   0.00000  Uiso   1.00
O415   O     0.75725   0.75000   0.28045   0.00000  Uiso   1.00
O416   O     0.90942   0.75000   0.21956   0.00000  Uiso   1.00
O417   O     0.75725   0.75000   0.20097   0.00000  Uiso   1.00
O418   O     0.90942   0.75000   0.29904   0.00000  Uiso   1.00
Zn419  Zn    0.83333   0.75001   0.30307   0.00000  Uiso   1.00
Zn420  Zn    0.83333   0.75000   0.19693   0.00000  Uiso   1.00
O421   O     0.98815   0.71685   0.19507   0.00000  Uiso   1.00
H422   H     0.68088   0.70575   0.17549   0.00000  Uiso   1.00
O423   O     0.67861   0.78296   0.30518   0.00000  Uiso   1.00
H424   H     0.98585   0.79412   0.32470   0.00000  Uiso   1.00
O425   O     0.80643   0.61128   0.32761   0.00000  Uiso   1.00
H426   H     0.80000   0.58864   0.35184   0.00000  Uiso   1.00
O427   O     0.77516   0.89194   0.17396   0.00000  Uiso   1.00
H428   H     0.75989   0.86420   0.18522   0.00000  Uiso   1.00
N429   N     0.75346   0.79527   0.01768   0.00000  Uiso   1.00
H430   H     0.71923   0.79650   0.03234   0.00000  Uiso   1.00
C431   C     0.76708   0.83845   0.49988   0.00000  Uiso   1.00
H432   H     0.73221   0.85363   0.47836   0.00000  Uiso   1.00
H433   H     0.78096   0.86105   0.03006   0.00000  Uiso   1.00
H434   H     0.79763   0.83503   0.47641   0.00000  Uiso   1.00
N435   N     0.91999   0.78461   0.48280   0.00000  Uiso   1.00
H436   H     0.95406   0.78150   0.46814   0.00000  Uiso   1.00
C437   C     0.91392   0.82902   0.00108   0.00000  Uiso   1.00
H438   H     0.95104   0.83961   0.02268   0.00000  Uiso   1.00
H439   H     0.88319   0.82947   0.02460   0.00000  Uiso   1.00
H440   H     0.90399   0.85317   0.47118   0.00000  Uiso   1.00
O441   O     0.90893   0.69772   0.04266   0.00000  Uiso   1.00
H442   H     0.90080   0.69328   0.00782   0.00000  Uiso   1.00
O443   O     0.74934   0.70817   0.45680   0.00000  Uiso   1.00
H444   H     0.75657   0.70270   0.49160   0.00000  Uiso   1.00
C445   C     0.16709   0.16366   0.75025   0.00000  Uiso   1.00
C446   C     0.16584   0.33616   0.74972   0.00000  Uiso   1.00
C447   C     0.12809   0.27272   0.54705   0.00000  Uiso   1.00
C448   C     0.20862   0.26758   0.95320   0.00000  Uiso   1.00
C449   C     0.12920   0.27268   0.59705   0.00000  Uiso   1.00
C450   C     0.20758   0.26767   0.90321   0.00000  Uiso   1.00
C451   C     0.20366   0.22619   0.60768   0.00000  Uiso   1.00
C452   C     0.12588   0.23132   0.89208   0.00000  Uiso   1.00
C453   C     0.20452   0.22429   0.55818   0.00000  Uiso   1.00
C454   C     0.12465   0.22954   0.94156   0.00000  Uiso   1.00
C455   C     0.16650   0.24848   0.52670   0.00000  Uiso   1.00
C456   C     0.16643   0.24852   0.97330   0.00000  Uiso   1.00
C457   C     0.06720   0.24902   0.73783   0.00000  Uiso   1.00
C458   C     0.26614   0.25102   0.76219   0.00000  Uiso   1.00
C459   C     0.01274   0.24235   0.73257   0.00000  Uiso   1.00
C460   C     0.32063   0.25763   0.76752   0.00000  Uiso   1.00
C461   C     0.16565   0.04420   0.79015   0.00000  Uiso   1.00
C462   C     0.15136   0.45532   0.71045   0.00000  Uiso   1.00
C463   C     0.15928   0.09041   0.79045   0.00000  Uiso   1.00
C464   C     0.14285   0.40968   0.71085   0.00000  Uiso   1.00
C465   C     0.17162   0.11546   0.75121   0.00000  Uiso   1.00
C466   C     0.16833   0.38415   0.74955   0.00000  Uiso   1.00
C467   C     0.19028   0.09438   0.71285   0.00000  Uiso   1.00
C468   C     0.20004   0.40470   0.78746   0.00000  Uiso   1.00
C469   C     0.19598   0.04855   0.71287   0.00000  Uiso   1.00
C470   C     0.20687   0.45040   0.78720   0.00000  Uiso   1.00
C471   C     0.18333   0.02360   0.75132   0.00000  Uiso   1.00
C472   C     0.18242   0.47558   0.74879   0.00000  Uiso   1.00
H473   H     0.15484   0.02407   0.81917   0.00000  Uiso   1.00
H474   H     0.13119   0.47537   0.68152   0.00000  Uiso   1.00
H475   H     0.20050   0.11330   0.68278   0.00000  Uiso   1.00
H476   H     0.22003   0.38530   0.81700   0.00000  Uiso   1.00
H477   H     0.20941   0.03241   0.68268   0.00000  Uiso   1.00
H478   H     0.23066   0.46626   0.81702   0.00000  Uiso   1.00
H479   H     0.09987   0.29093   0.61272   0.00000  Uiso   1.00
H480   H     0.23975   0.28203   0.88780   0.00000  Uiso   1.00
H481   H     0.23231   0.20760   0.63155   0.00000  Uiso   1.00
H482   H     0.09420   0.21675   0.86806   0.00000  Uiso   1.00
N483   N     0.16667   0.24999   0.62624   0.00000  Uiso   1.00
N484   N     0.16667   0.25001   0.87377   0.00000  Uiso   1.00
O485   O     0.16667   0.18453   0.78974   0.00000  Uiso   1.00
O486   O     0.16666   0.31547   0.71026   0.00000  Uiso   1.00
O487   O     0.16667   0.18453   0.71026   0.00000  Uiso   1.00
O488   O     0.16666   0.31547   0.78974   0.00000  Uiso   1.00
O489   O     0.09058   0.25000   0.78045   0.00000  Uiso   1.00
O490   O     0.24275   0.25000   0.71956   0.00000  Uiso   1.00
O491   O     0.09058   0.25000   0.70097   0.00000  Uiso   1.00
O492   O     0.24275   0.25000   0.79904   0.00000  Uiso   1.00
Zn493  Zn    0.16667   0.25001   0.80307   0.00000  Uiso   1.00
Zn494  Zn    0.16667   0.25000   0.69693   0.00000  Uiso   1.00
O495   O     0.32148   0.21685   0.69507   0.00000  Uiso   1.00
H496   H     0.01421   0.20575   0.67549   0.00000  Uiso   1.00
O497   O     0.01194   0.28296   0.80518   0.00000  Uiso   1.00
H498   H     0.31918   0.29412   0.82470   0.00000  Uiso   1.00
O499   O     0.13976   0.11128   0.82761   0.00000  Uiso   1.00
H500   H     0.13333   0.08864   0.85184   0.00000  Uiso   1.00
O501   O     0.10849   0.39194   0.67396   0.00000  Uiso   1.00
H502   H     0.09323   0.36420   0.68522   0.00000  Uiso   1.00
N503   N     0.08680   0.29527   0.51768   0.00000  Uiso   1.00
H504   H     0.05257   0.29650   0.53234   0.00000  Uiso   1.00
C505   C     0.10042   0.33845   0.99988   0.00000  Uiso   1.00
H506   H     0.06555   0.35363   0.97836   0.00000  Uiso   1.00
H507   H     0.11429   0.36105   0.53006   0.00000  Uiso   1.00
H508   H     0.13096   0.33503   0.97641   0.00000  Uiso   1.00
N509   N     0.25332   0.28461   0.98280   0.00000  Uiso   1.00
H510   H     0.28739   0.28150   0.96814   0.00000  Uiso   1.00
C511   C     0.24725   0.32902   0.50108   0.00000  Uiso   1.00
H512   H     0.28437   0.33961   0.52268   0.00000  Uiso   1.00
H513   H     0.21652   0.32947   0.52460   0.00000  Uiso   1.00
H514   H     0.23733   0.35317   0.97118   0.00000  Uiso   1.00
O515   O     0.24226   0.19772   0.54266   0.00000  Uiso   1.00
H516   H     0.23414   0.19328   0.50782   0.00000  Uiso   1.00
O517   O     0.08267   0.20817   0.95680   0.00000  Uiso   1.00
H518   H     0.08990   0.20270   0.99160   0.00000  Uiso   1.00
C519   C     0.50042   0.16366   0.75025   0.00000  Uiso   1.00
C520   C     0.49917   0.33616   0.74972   0.00000  Uiso   1.00
C521   C     0.46142   0.27272   0.54705   0.00000  Uiso   1.00
C522   C     0.54195   0.26758   0.95320   0.00000  Uiso   1.00
C523   C     0.46254   0.27268   0.59705   0.00000  Uiso   1.00
C524   C     0.54091   0.26767   0.90321   0.00000  Uiso   1.00
C525   C     0.53699   0.22619   0.60768   0.00000  Uiso   1.00
C526   C     0.45921   0.23132   0.89208   0.00000  Uiso   1.00
C527   C     0.53785   0.22429   0.55818   0.00000  Uiso   1.00
C528   C     0.45798   0.22954   0.94156   0.00000  Uiso   1.00
C529   C     0.49983   0.24848   0.52670   0.00000  Uiso   1.00
C530   C     0.49977   0.24852   0.97330   0.00000  Uiso   1.00
C531   C     0.40054   0.24902   0.73783   0.00000  Uiso   1.00
C532   C     0.59947   0.25102   0.76219   0.00000  Uiso   1.00
C533   C     0.34608   0.24235   0.73257   0.00000  Uiso   1.00
C534   C     0.65396   0.25763   0.76752   0.00000  Uiso   1.00
C535   C     0.49898   0.04420   0.79015   0.00000  Uiso   1.00
C536   C     0.48469   0.45532   0.71045   0.00000  Uiso   1.00
C537   C     0.49262   0.09041   0.79045   0.00000  Uiso   1.00
C538   C     0.47619   0.40968   0.71085   0.00000  Uiso   1.00
C539   C     0.50496   0.11546   0.75121   0.00000  Uiso   1.00
C540   C     0.50166   0.38415   0.74955   0.00000  Uiso   1.00
C541   C     0.52361   0.09438   0.71285   0.00000  Uiso   1.00
C542   C     0.53337   0.40470   0.78746   0.00000  Uiso   1.00
C543   C     0.52931   0.04855   0.71287   0.00000  Uiso   1.00
C544   C     0.54020   0.45040   0.78720   0.00000  Uiso   1.00
C545   C     0.51667   0.02360   0.75132   0.00000  Uiso   1.00
C546   C     0.51575   0.47558   0.74879   0.00000  Uiso   1.00
H547   H     0.48818   0.02407   0.81917   0.00000  Uiso   1.00
H548   H     0.46453   0.47537   0.68152   0.00000  Uiso   1.00
H549   H     0.53383   0.11330   0.68278   0.00000  Uiso   1.00
H550   H     0.55336   0.38530   0.81700   0.00000  Uiso   1.00
H551   H     0.54274   0.03241   0.68268   0.00000  Uiso   1.00
H552   H     0.56400   0.46626   0.81702   0.00000  Uiso   1.00
H553   H     0.43321   0.29093   0.61272   0.00000  Uiso   1.00
H554   H     0.57308   0.28203   0.88780   0.00000  Uiso   1.00
H555   H     0.56564   0.20760   0.63155   0.00000  Uiso   1.00
H556   H     0.42754   0.21675   0.86806   0.00000  Uiso   1.00
N557   N     0.50000   0.24999   0.62624   0.00000  Uiso   1.00
N558   N     0.50000   0.25001   0.87377   0.00000  Uiso   1.00
O559   O     0.50000   0.18453   0.78974   0.00000  Uiso   1.00
O560   O     0.50000   0.31547   0.71026   0.00000  Uiso   1.00
O561   O     0.50000   0.18453   0.71026   0.00000  Uiso   1.00
O562   O     0.50000   0.31547   0.78974   0.00000  Uiso   1.00
O563   O     0.42392   0.25000   0.78045   0.00000  Uiso   1.00
O564   O     0.57608   0.25000   0.71956   0.00000  Uiso   1.00
O565   O     0.42392   0.25000   0.70097   0.00000  Uiso   1.00
O566   O     0.57608   0.25000   0.79904   0.00000  Uiso   1.00
Zn567  Zn    0.50000   0.25001   0.80307   0.00000  Uiso   1.00
Zn568  Zn    0.50000   0.25000   0.69693   0.00000  Uiso   1.00
O569   O     0.65481   0.21685   0.69507   0.00000  Uiso   1.00
H570   H     0.34754   0.20575   0.67549   0.00000  Uiso   1.00
O571   O     0.34527   0.28296   0.80518   0.00000  Uiso   1.00
H572   H     0.65252   0.29412   0.82470   0.00000  Uiso   1.00
O573   O     0.47310   0.11128   0.82761   0.00000  Uiso   1.00
H574   H     0.46666   0.08864   0.85184   0.00000  Uiso   1.00
O575   O     0.44182   0.39194   0.67396   0.00000  Uiso   1.00
H576   H     0.42656   0.36420   0.68522   0.00000  Uiso   1.00
N577   N     0.42013   0.29527   0.51768   0.00000  Uiso   1.00
H578   H     0.38590   0.29650   0.53234   0.00000  Uiso   1.00
C579   C     0.43375   0.33845   0.99988   0.00000  Uiso   1.00
H580   H     0.39888   0.35363   0.97836   0.00000  Uiso   1.00
H581   H     0.44762   0.36105   0.53006   0.00000  Uiso   1.00
H582   H     0.46429   0.33503   0.97641   0.00000  Uiso   1.00
N583   N     0.58665   0.28461   0.98280   0.00000  Uiso   1.00
H584   H     0.62073   0.28150   0.96814   0.00000  Uiso   1.00
C585   C     0.58059   0.32902   0.50108   0.00000  Uiso   1.00
H586   H     0.61771   0.33961   0.52268   0.00000  Uiso   1.00
H587   H     0.54986   0.32947   0.52460   0.00000  Uiso   1.00
H588   H     0.57066   0.35317   0.97118   0.00000  Uiso   1.00
O589   O     0.57559   0.19772   0.54266   0.00000  Uiso   1.00
H590   H     0.56747   0.19328   0.50782   0.00000  Uiso   1.00
O591   O     0.41600   0.20817   0.95680   0.00000  Uiso   1.00
H592   H     0.42323   0.20270   0.99160   0.00000  Uiso   1.00
C593   C     0.83376   0.16366   0.75025   0.00000  Uiso   1.00
C594   C     0.83251   0.33616   0.74972   0.00000  Uiso   1.00
C595   C     0.79476   0.27272   0.54705   0.00000  Uiso   1.00
C596   C     0.87529   0.26758   0.95320   0.00000  Uiso   1.00
C597   C     0.79587   0.27268   0.59705   0.00000  Uiso   1.00
C598   C     0.87425   0.26767   0.90321   0.00000  Uiso   1.00
C599   C     0.87032   0.22619   0.60768   0.00000  Uiso   1.00
C600   C     0.79254   0.23132   0.89208   0.00000  Uiso   1.00
C601   C     0.87119   0.22429   0.55818   0.00000  Uiso   1.00
C602   C     0.79132   0.22954   0.94156   0.00000  Uiso   1.00
C603   C     0.83317   0.24848   0.52670   0.00000  Uiso   1.00
C604   C     0.83310   0.24852   0.97330   0.00000  Uiso   1.00
C605   C     0.73387   0.24902   0.73783   0.00000  Uiso   1.00
C606   C     0.93280   0.25102   0.76219   0.00000  Uiso   1.00
C607   C     0.67941   0.24235   0.73257   0.00000  Uiso   1.00
C608   C     0.98729   0.25763   0.76752   0.00000  Uiso   1.00
C609   C     0.83232   0.04420   0.79015   0.00000  Uiso   1.00
C610   C     0.81803   0.45532   0.71045   0.00000  Uiso   1.00
C611   C     0.82595   0.09041   0.79045   0.00000  Uiso   1.00
C612   C     0.80952   0.40968   0.71085   0.00000  Uiso   1.00
C613   C     0.83829   0.11546   0.75121   0.00000  Uiso   1.00
C614   C     0.83499   0.38415   0.74955   0.00000  Uiso   1.00
C615   C     0.85694   0.09438   0.71285   0.00000  Uiso   1.00
C616   C     0.86670   0.40470   0.78746   0.00000  Uiso   1.00
C617   C     0.86265   0.04855   0.71287   0.00000  Uiso   1.00
C618   C     0.87353   0.45040   0.78720   0.00000  Uiso   1.00
C619   C     0.85000   0.02360   0.75132   0.00000  Uiso   1.00
C620   C     0.84908   0.47558   0.74879   0.00000  Uiso   1.00
H621   H     0.82151   0.02407   0.81917   0.00000  Uiso   1.00
H622   H     0.79786   0.47537   0.68152   0.00000  Uiso   1.00
H623   H     0.86717   0.11330   0.68278   0.00000  Uiso   1.00
H624   H     0.88670   0.38530   0.81700   0.00000  Uiso   1.00
H625   H     0.87607   0.03241   0.68268   0.00000  Uiso   1.00
H626   H     0.89733   0.46626   0.81702   0.00000  Uiso   1.00
H627   H     0.76654   0.29093   0.61272   0.00000  Uiso   1.00
H628   H     0.90642   0.28203   0.88780   0.00000  Uiso   1.00
H629   H     0.89897   0.20760   0.63155   0.00000  Uiso   1.00
H630   H     0.76087   0.21675   0.86806   0.00000  Uiso   1.00
N631   N     0.83333   0.24999   0.62624   0.00000  Uiso   1.00
N632   N     0.83333   0.25001   0.87377   0.00000  Uiso   1.00
O633   O     0.83334   0.18453   0.78974   0.00000  Uiso   1.00
O634   O     0.83333   0.31547   0.71026   0.00000  Uiso   1.00
O635   O     0.83334   0.18453   0.71026   0.00000  Uiso   1.00
O636   O     0.83333   0.31547   0.78974   0.00000  Uiso   1.00
O637   O     0.75725   0.25000   0.78045   0.00000  Uiso   1.00
O638   O     0.90942   0.25000   0.71956   0.00000  Uiso   1.00
O639   O     0.75725   0.25000   0.70097   0.00000  Uiso   1.00
O640   O     0.90942   0.25000   0.79904   0.00000  Uiso   1.00
Zn641  Zn    0.83333   0.25001   0.80307   0.00000  Uiso   1.00
Zn642  Zn    0.83333   0.25000   0.69693   0.00000  Uiso   1.00
O643   O     0.98815   0.21685   0.69507   0.00000  Uiso   1.00
H644   H     0.68088   0.20575   0.67549   0.00000  Uiso   1.00
O645   O     0.67861   0.28296   0.80518   0.00000  Uiso   1.00
H646   H     0.98585   0.29412   0.82470   0.00000  Uiso   1.00
O647   O     0.80643   0.11128   0.82761   0.00000  Uiso   1.00
H648   H     0.80000   0.08864   0.85184   0.00000  Uiso   1.00
O649   O     0.77516   0.39194   0.67396   0.00000  Uiso   1.00
H650   H     0.75989   0.36420   0.68522   0.00000  Uiso   1.00
N651   N     0.75346   0.29527   0.51768   0.00000  Uiso   1.00
H652   H     0.71923   0.29650   0.53234   0.00000  Uiso   1.00
C653   C     0.76708   0.33845   0.99988   0.00000  Uiso   1.00
H654   H     0.73221   0.35363   0.97836   0.00000  Uiso   1.00
H655   H     0.78096   0.36105   0.53006   0.00000  Uiso   1.00
H656   H     0.79763   0.33503   0.97641   0.00000  Uiso   1.00
N657   N     0.91999   0.28461   0.98280   0.00000  Uiso   1.00
H658   H     0.95406   0.28150   0.96814   0.00000  Uiso   1.00
C659   C     0.91392   0.32902   0.50108   0.00000  Uiso   1.00
H660   H     0.95104   0.33961   0.52268   0.00000  Uiso   1.00
H661   H     0.88319   0.32947   0.52460   0.00000  Uiso   1.00
H662   H     0.90399   0.35317   0.97118   0.00000  Uiso   1.00
O663   O     0.90893   0.19772   0.54266   0.00000  Uiso   1.00
H664   H     0.90080   0.19328   0.50782   0.00000  Uiso   1.00
O665   O     0.74934   0.20817   0.95680   0.00000  Uiso   1.00
H666   H     0.75657   0.20270   0.99160   0.00000  Uiso   1.00
C667   C     0.16709   0.66366   0.75025   0.00000  Uiso   1.00
C668   C     0.16584   0.83616   0.74972   0.00000  Uiso   1.00
C669   C     0.12809   0.77272   0.54705   0.00000  Uiso   1.00
C670   C     0.20862   0.76758   0.95320   0.00000  Uiso   1.00
C671   C     0.12920   0.77268   0.59705   0.00000  Uiso   1.00
C672   C     0.20758   0.76767   0.90321   0.00000  Uiso   1.00
C673   C     0.20366   0.72619   0.60768   0.00000  Uiso   1.00
C674   C     0.12588   0.73132   0.89208   0.00000  Uiso   1.00
C675   C     0.20452   0.72429   0.55818   0.00000  Uiso   1.00
C676   C     0.12465   0.72954   0.94156   0.00000  Uiso   1.00
C677   C     0.16650   0.74848   0.52670   0.00000  Uiso   1.00
C678   C     0.16643   0.74852   0.97330   0.00000  Uiso   1.00
C679   C     0.06720   0.74902   0.73783   0.00000  Uiso   1.00
C680   C     0.26614   0.75102   0.76219   0.00000  Uiso   1.00
C681   C     0.01274   0.74235   0.73257   0.00000  Uiso   1.00
C682   C     0.32063   0.75763   0.76752   0.00000  Uiso   1.00
C683   C     0.16565   0.54420   0.79015   0.00000  Uiso   1.00
C684   C     0.15136   0.95532   0.71045   0.00000  Uiso   1.00
C685   C     0.15928   0.59041   0.79045   0.00000  Uiso   1.00
C686   C     0.14285   0.90968   0.71085   0.00000  Uiso   1.00
C687   C     0.17162   0.61546   0.75121   0.00000  Uiso   1.00
C688   C     0.16833   0.88415   0.74955   0.00000  Uiso   1.00
C689   C     0.19028   0.59438   0.71285   0.00000  Uiso   1.00
C690   C     0.20004   0.90470   0.78746   0.00000  Uiso   1.00
C691   C     0.19598   0.54855   0.71287   0.00000  Uiso   1.00
C692   C     0.20687   0.95040   0.78720   0.00000  Uiso   1.00
C693   C     0.18333   0.52360   0.75132   0.00000  Uiso   1.00
C694   C     0.18242   0.97558   0.74879   0.00000  Uiso   1.00
H695   H     0.15484   0.52407   0.81917   0.00000  Uiso   1.00
H696   H     0.13119   0.97537   0.68152   0.00000  Uiso   1.00
H697   H     0.20050   0.61330   0.68278   0.00000  Uiso   1.00
H698   H     0.22003   0.88530   0.81700   0.00000  Uiso   1.00
H699   H     0.20941   0.53241   0.68268   0.00000  Uiso   1.00
H700   H     0.23066   0.96626   0.81702   0.00000  Uiso   1.00
H701   H     0.09987   0.79093   0.61272   0.00000  Uiso   1.00
H702   H     0.23975   0.78203   0.88780   0.00000  Uiso   1.00
H703   H     0.23231   0.70760   0.63155   0.00000  Uiso   1.00
H704   H     0.09420   0.71675   0.86806   0.00000  Uiso   1.00
N705   N     0.16667   0.74999   0.62624   0.00000  Uiso   1.00
N706   N     0.16667   0.75001   0.87377   0.00000  Uiso   1.00
O707   O     0.16667   0.68453   0.78974   0.00000  Uiso   1.00
O708   O     0.16666   0.81547   0.71026   0.00000  Uiso   1.00
O709   O     0.16667   0.68453   0.71026   0.00000  Uiso   1.00
O710   O     0.16666   0.81547   0.78974   0.00000  Uiso   1.00
O711   O     0.09058   0.75000   0.78045   0.00000  Uiso   1.00
O712   O     0.24275   0.75000   0.71956   0.00000  Uiso   1.00
O713   O     0.09058   0.75000   0.70097   0.00000  Uiso   1.00
O714   O     0.24275   0.75000   0.79904   0.00000  Uiso   1.00
Zn715  Zn    0.16667   0.75001   0.80307   0.00000  Uiso   1.00
Zn716  Zn    0.16667   0.75000   0.69693   0.00000  Uiso   1.00
O717   O     0.32148   0.71685   0.69507   0.00000  Uiso   1.00
H718   H     0.01421   0.70575   0.67549   0.00000  Uiso   1.00
O719   O     0.01194   0.78296   0.80518   0.00000  Uiso   1.00
H720   H     0.31918   0.79412   0.82470   0.00000  Uiso   1.00
O721   O     0.13976   0.61128   0.82761   0.00000  Uiso   1.00
H722   H     0.13333   0.58864   0.85184   0.00000  Uiso   1.00
O723   O     0.10849   0.89194   0.67396   0.00000  Uiso   1.00
H724   H     0.09323   0.86420   0.68522   0.00000  Uiso   1.00
N725   N     0.08680   0.79527   0.51768   0.00000  Uiso   1.00
H726   H     0.05257   0.79650   0.53234   0.00000  Uiso   1.00
C727   C     0.10042   0.83845   0.99988   0.00000  Uiso   1.00
H728   H     0.06555   0.85363   0.97836   0.00000  Uiso   1.00
H729   H     0.11429   0.86105   0.53006   0.00000  Uiso   1.00
H730   H     0.13096   0.83503   0.97641   0.00000  Uiso   1.00
N731   N     0.25332   0.78461   0.98280   0.00000  Uiso   1.00
H732   H     0.28739   0.78150   0.96814   0.00000  Uiso   1.00
C733   C     0.24725   0.82902   0.50108   0.00000  Uiso   1.00
H734   H     0.28437   0.83961   0.52268   0.00000  Uiso   1.00
H735   H     0.21652   0.82947   0.52460   0.00000  Uiso   1.00
H736   H     0.23733   0.85317   0.97118   0.00000  Uiso   1.00
O737   O     0.24226   0.69772   0.54266   0.00000  Uiso   1.00
H738   H     0.23414   0.69328   0.50782   0.00000  Uiso   1.00
O739   O     0.08267   0.70817   0.95680   0.00000  Uiso   1.00
H740   H     0.08990   0.70270   0.99160   0.00000  Uiso   1.00
C741   C     0.50042   0.66366   0.75025   0.00000  Uiso   1.00
C742   C     0.49917   0.83616   0.74972   0.00000  Uiso   1.00
C743   C     0.46142   0.77272   0.54705   0.00000  Uiso   1.00
C744   C     0.54195   0.76758   0.95320   0.00000  Uiso   1.00
C745   C     0.46254   0.77268   0.59705   0.00000  Uiso   1.00
C746   C     0.54091   0.76767   0.90321   0.00000  Uiso   1.00
C747   C     0.53699   0.72619   0.60768   0.00000  Uiso   1.00
C748   C     0.45921   0.73132   0.89208   0.00000  Uiso   1.00
C749   C     0.53785   0.72429   0.55818   0.00000  Uiso   1.00
C750   C     0.45798   0.72954   0.94156   0.00000  Uiso   1.00
C751   C     0.49983   0.74848   0.52670   0.00000  Uiso   1.00
C752   C     0.49977   0.74852   0.97330   0.00000  Uiso   1.00
C753   C     0.40054   0.74902   0.73783   0.00000  Uiso   1.00
C754   C     0.59947   0.75102   0.76219   0.00000  Uiso   1.00
C755   C     0.34608   0.74235   0.73257   0.00000  Uiso   1.00
C756   C     0.65396   0.75763   0.76752   0.00000  Uiso   1.00
C757   C     0.49898   0.54420   0.79015   0.00000  Uiso   1.00
C758   C     0.48469   0.95532   0.71045   0.00000  Uiso   1.00
C759   C     0.49262   0.59041   0.79045   0.00000  Uiso   1.00
C760   C     0.47619   0.90968   0.71085   0.00000  Uiso   1.00
C761   C     0.50496   0.61546   0.75121   0.00000  Uiso   1.00
C762   C     0.50166   0.88415   0.74955   0.00000  Uiso   1.00
C763   C     0.52361   0.59438   0.71285   0.00000  Uiso   1.00
C764   C     0.53337   0.90470   0.78746   0.00000  Uiso   1.00
C765   C     0.52931   0.54855   0.71287   0.00000  Uiso   1.00
C766   C     0.54020   0.95040   0.78720   0.00000  Uiso   1.00
C767   C     0.51667   0.52360   0.75132   0.00000  Uiso   1.00
C768   C     0.51575   0.97558   0.74879   0.00000  Uiso   1.00
H769   H     0.48818   0.52407   0.81917   0.00000  Uiso   1.00
H770   H     0.46453   0.97537   0.68152   0.00000  Uiso   1.00
H771   H     0.53383   0.61330   0.68278   0.00000  Uiso   1.00
H772   H     0.55336   0.88530   0.81700   0.00000  Uiso   1.00
H773   H     0.54274   0.53241   0.68268   0.00000  Uiso   1.00
H774   H     0.56400   0.96626   0.81702   0.00000  Uiso   1.00
H775   H     0.43321   0.79093   0.61272   0.00000  Uiso   1.00
H776   H     0.57308   0.78203   0.88780   0.00000  Uiso   1.00
H777   H     0.56564   0.70760   0.63155   0.00000  Uiso   1.00
H778   H     0.42754   0.71675   0.86806   0.00000  Uiso   1.00
N779   N     0.50000   0.74999   0.62624   0.00000  Uiso   1.00
N780   N     0.50000   0.75001   0.87377   0.00000  Uiso   1.00
O781   O     0.50000   0.68453   0.78974   0.00000  Uiso   1.00
O782   O     0.50000   0.81547   0.71026   0.00000  Uiso   1.00
O783   O     0.50000   0.68453   0.71026   0.00000  Uiso   1.00
O784   O     0.50000   0.81547   0.78974   0.00000  Uiso   1.00
O785   O     0.42392   0.75000   0.78045   0.00000  Uiso   1.00
O786   O     0.57608   0.75000   0.71956   0.00000  Uiso   1.00
O787   O     0.42392   0.75000   0.70097   0.00000  Uiso   1.00
O788   O     0.57608   0.75000   0.79904   0.00000  Uiso   1.00
Zn789  Zn    0.50000   0.75001   0.80307   0.00000  Uiso   1.00
Zn790  Zn    0.50000   0.75000   0.69693   0.00000  Uiso   1.00
O791   O     0.65481   0.71685   0.69507   0.00000  Uiso   1.00
H792   H     0.34754   0.70575   0.67549   0.00000  Uiso   1.00
O793   O     0.34527   0.78296   0.80518   0.00000  Uiso   1.00
H794   H     0.65252   0.79412   0.82470   0.00000  Uiso   1.00
O795   O     0.47310   0.61128   0.82761   0.00000  Uiso   1.00
H796   H     0.46666   0.58864   0.85184   0.00000  Uiso   1.00
O797   O     0.44182   0.89194   0.67396   0.00000  Uiso   1.00
H798   H     0.42656   0.86420   0.68522   0.00000  Uiso   1.00
N799   N     0.42013   0.79527   0.51768   0.00000  Uiso   1.00
H800   H     0.38590   0.79650   0.53234   0.00000  Uiso   1.00
C801   C     0.43375   0.83845   0.99988   0.00000  Uiso   1.00
H802   H     0.39888   0.85363   0.97836   0.00000  Uiso   1.00
H803   H     0.44762   0.86105   0.53006   0.00000  Uiso   1.00
H804   H     0.46429   0.83503   0.97641   0.00000  Uiso   1.00
N805   N     0.58665   0.78461   0.98280   0.00000  Uiso   1.00
H806   H     0.62073   0.78150   0.96814   0.00000  Uiso   1.00
C807   C     0.58059   0.82902   0.50108   0.00000  Uiso   1.00
H808   H     0.61771   0.83961   0.52268   0.00000  Uiso   1.00
H809   H     0.54986   0.82947   0.52460   0.00000  Uiso   1.00
H810   H     0.57066   0.85317   0.97118   0.00000  Uiso   1.00
O811   O     0.57559   0.69772   0.54266   0.00000  Uiso   1.00
H812   H     0.56747   0.69328   0.50782   0.00000  Uiso   1.00
O813   O     0.41600   0.70817   0.95680   0.00000  Uiso   1.00
H814   H     0.42323   0.70270   0.99160   0.00000  Uiso   1.00
C815   C     0.83376   0.66366   0.75025   0.00000  Uiso   1.00
C816   C     0.83251   0.83616   0.74972   0.00000  Uiso   1.00
C817   C     0.79476   0.77272   0.54705   0.00000  Uiso   1.00
C818   C     0.87529   0.76758   0.95320   0.00000  Uiso   1.00
C819   C     0.79587   0.77268   0.59705   0.00000  Uiso   1.00
C820   C     0.87425   0.76767   0.90321   0.00000  Uiso   1.00
C821   C     0.87032   0.72619   0.60768   0.00000  Uiso   1.00
C822   C     0.79254   0.73132   0.89208   0.00000  Uiso   1.00
C823   C     0.87119   0.72429   0.55818   0.00000  Uiso   1.00
C824   C     0.79132   0.72954   0.94156   0.00000  Uiso   1.00
C825   C     0.83317   0.74848   0.52670   0.00000  Uiso   1.00
C826   C     0.83310   0.74852   0.97330   0.00000  Uiso   1.00
C827   C     0.73387   0.74902   0.73783   0.00000  Uiso   1.00
C828   C     0.93280   0.75102   0.76219   0.00000  Uiso   1.00
C829   C     0.67941   0.74235   0.73257   0.00000  Uiso   1.00
C830   C     0.98729   0.75763   0.76752   0.00000  Uiso   1.00
C831   C     0.83232   0.54420   0.79015   0.00000  Uiso   1.00
C832   C     0.81803   0.95532   0.71045   0.00000  Uiso   1.00
C833   C     0.82595   0.59041   0.79045   0.00000  Uiso   1.00
C834   C     0.80952   0.90968   0.71085   0.00000  Uiso   1.00
C835   C     0.83829   0.61546   0.75121   0.00000  Uiso   1.00
C836   C     0.83499   0.88415   0.74955   0.00000  Uiso   1.00
C837   C     0.85694   0.59438   0.71285   0.00000  Uiso   1.00
C838   C     0.86670   0.90470   0.78746   0.00000  Uiso   1.00
C839   C     0.86265   0.54855   0.71287   0.00000  Uiso   1.00
C840   C     0.87353   0.95040   0.78720   0.00000  Uiso   1.00
C841   C     0.85000   0.52360   0.75132   0.00000  Uiso   1.00
C842   C     0.84908   0.97558   0.74879   0.00000  Uiso   1.00
H843   H     0.82151   0.52407   0.81917   0.00000  Uiso   1.00
H844   H     0.79786   0.97537   0.68152   0.00000  Uiso   1.00
H845   H     0.86717   0.61330   0.68278   0.00000  Uiso   1.00
H846   H     0.88670   0.88530   0.81700   0.00000  Uiso   1.00
H847   H     0.87607   0.53241   0.68268   0.00000  Uiso   1.00
H848   H     0.89733   0.96626   0.81702   0.00000  Uiso   1.00
H849   H     0.76654   0.79093   0.61272   0.00000  Uiso   1.00
H850   H     0.90642   0.78203   0.88780   0.00000  Uiso   1.00
H851   H     0.89897   0.70760   0.63155   0.00000  Uiso   1.00
H852   H     0.76087   0.71675   0.86806   0.00000  Uiso   1.00
N853   N     0.83333   0.74999   0.62624   0.00000  Uiso   1.00
N854   N     0.83333   0.75001   0.87377   0.00000  Uiso   1.00
O855   O     0.83334   0.68453   0.78974   0.00000  Uiso   1.00
O856   O     0.83333   0.81547   0.71026   0.00000  Uiso   1.00
O857   O     0.83334   0.68453   0.71026   0.00000  Uiso   1.00
O858   O     0.83333   0.81547   0.78974   0.00000  Uiso   1.00
O859   O     0.75725   0.75000   0.78045   0.00000  Uiso   1.00
O860   O     0.90942   0.75000   0.71956   0.00000  Uiso   1.00
O861   O     0.75725   0.75000   0.70097   0.00000  Uiso   1.00
O862   O     0.90942   0.75000   0.79904   0.00000  Uiso   1.00
Zn863  Zn    0.83333   0.75001   0.80307   0.00000  Uiso   1.00
Zn864  Zn    0.83333   0.75000   0.69693   0.00000  Uiso   1.00
O865   O     0.98815   0.71685   0.69507   0.00000  Uiso   1.00
H866   H     0.68088   0.70575   0.67549   0.00000  Uiso   1.00
O867   O     0.67861   0.78296   0.80518   0.00000  Uiso   1.00
H868   H     0.98585   0.79412   0.82470   0.00000  Uiso   1.00
O869   O     0.80643   0.61128   0.82761   0.00000  Uiso   1.00
H870   H     0.80000   0.58864   0.85184   0.00000  Uiso   1.00
O871   O     0.77516   0.89194   0.67396   0.00000  Uiso   1.00
H872   H     0.75989   0.86420   0.68522   0.00000  Uiso   1.00
N873   N     0.75346   0.79527   0.51768   0.00000  Uiso   1.00
H874   H     0.71923   0.79650   0.53234   0.00000  Uiso   1.00
C875   C     0.76708   0.83845   0.99988   0.00000  Uiso   1.00
H876   H     0.73221   0.85363   0.97836   0.00000  Uiso   1.00
H877   H     0.78096   0.86105   0.53006   0.00000  Uiso   1.00
H878   H     0.79763   0.83503   0.97641   0.00000  Uiso   1.00
N879   N     0.91999   0.78461   0.98280   0.00000  Uiso   1.00
H880   H     0.95406   0.78150   0.96814   0.00000  Uiso   1.00
C881   C     0.91392   0.82902   0.50108   0.00000  Uiso   1.00
H882   H     0.95104   0.83961   0.52268   0.00000  Uiso   1.00
H883   H     0.88319   0.82947   0.52460   0.00000  Uiso   1.00
H884   H     0.90399   0.85317   0.97118   0.00000  Uiso   1.00
O885   O     0.90893   0.69772   0.54266   0.00000  Uiso   1.00
H886   H     0.90080   0.69328   0.50782   0.00000  Uiso   1.00
O887   O     0.74934   0.70817   0.95680   0.00000  Uiso   1.00
H888   H     0.75657   0.70270   0.99160   0.00000  Uiso   1.00
loop_
_geom_bond_atom_site_label_1
_geom_bond_atom_site_label_2
_geom_bond_distance
_geom_bond_site_symmetry_2
_ccdc_geom_bond_type
C1     C21     1.447   .     S
C1     O43     1.288   .     A
C1     O41     1.285   .     A
C2     C22     1.438   .     S
C2     O42     1.283   .     A
C2     O44     1.285   .     A
C3     N59     1.425   .     S
C3     C5      1.411   .     A
C3     C11     1.420   .     A
C4     N65     1.425   .     S
C4     C6      1.411   .     A
C4     C12     1.420   .     A
C5     N39     1.360   .     A
C5     H35     1.082   .     S
C6     H36     1.082   .     S
C6     N40     1.360   .     A
C7     C9      1.406   .     A
C7     H37     1.081   .     S
C7     N39     1.360   .     A
C8     H38     1.082   .     S
C8     N40     1.361   .     A
C8     C10     1.406   .     A
C9     O71     1.381   .     S
C9     C11     1.425   .     A
C10    C12     1.425   .     A
C10    O73     1.381   .     S
C11    C456    1.511   1_554 S
C12    C455    1.511   .     S
C13    C15     1.412   .     S
C13    O45     1.271   .     A
C13    O47     1.279   .     A
C14    O46     1.271   .     A
C14    C16     1.412   .     S
C14    O48     1.279   .     A
C15    C164    1.347   1_455 S
C15    O199    1.390   1_455 S
C16    C89     1.347   .     S
C16    O127    1.391   .     S
C17    H29     1.084   .     S
C17    C27     1.396   .     A
C17    C19     1.393   .     A
C18    H30     1.084   .     S
C18    C28     1.397   .     A
C18    C20     1.384   .     A
C19    C21     1.410   .     A
C19    O55     1.383   .     S
C20    C22     1.415   .     A
C20    O57     1.381   .     S
C21    C23     1.403   .     A
C22    C24     1.400   .     A
C23    C25     1.380   .     A
C23    H31     1.084   .     S
C24    H32     1.084   .     S
C24    C26     1.379   .     A
C25    C27     1.393   .     A
C25    H33     1.084   .     S
C26    C28     1.394   .     A
C26    H34     1.084   .     S
C27    C250    1.440   1_545 S
C28    C249    1.440   .     S
N39    Zn50    2.001   .     S
N40    Zn49    2.001   .     S
O41    Zn49    1.998   .     S
O42    Zn50    1.998   .     S
O43    Zn50    1.993   .     S
O44    Zn49    1.993   .     S
O45    Zn49    1.984   .     S
O46    Zn50    1.984   .     S
O47    Zn50    1.991   .     S
O48    Zn49    1.991   .     S
O51    C89     1.390   .     S
O51    H126    0.991   .     S
H52    O199    0.991   1_455 S
O53    C164    1.391   1_455 S
O53    H202    0.991   1_455 S
H54    O127    0.991   .     S
O55    H56     0.992   .     S
O57    H58     0.990   .     S
N59    H60     1.032   .     S
N59    C505    1.446   1_554 S
C61    H64     1.108   .     S
C61    H62     1.111   .     S
C61    N503    1.446   .     S
C61    H507    1.112   .     S
H63    C505    1.112   1_554 S
N65    H66     1.032   .     S
N65    C511    1.446   .     S
C67    H68     1.111   .     S
C67    H69     1.108   .     S
C67    N509    1.446   1_554 S
C67    H514    1.112   1_554 S
H70    C511    1.112   .     S
O71    H72     0.988   .     S
O73    H74     0.988   .     S
C75    C95     1.447   .     S
C75    O117    1.288   .     A
C75    O115    1.285   .     A
C76    C96     1.438   .     S
C76    O116    1.283   .     A
C76    O118    1.285   .     A
C77    N133    1.425   .     S
C77    C79     1.411   .     A
C77    C85     1.420   .     A
C78    N139    1.425   .     S
C78    C80     1.411   .     A
C78    C86     1.420   .     A
C79    N113    1.360   .     A
C79    H109    1.082   .     S
C80    H110    1.082   .     S
C80    N114    1.360   .     A
C81    C83     1.406   .     A
C81    H111    1.081   .     S
C81    N113    1.360   .     A
C82    H112    1.082   .     S
C82    N114    1.361   .     A
C82    C84     1.406   .     A
C83    O145    1.381   .     S
C83    C85     1.425   .     A
C84    C86     1.425   .     A
C84    O147    1.381   .     S
C85    C530    1.511   1_554 S
C86    C529    1.511   .     S
C87    C89     1.412   .     S
C87    O119    1.271   .     A
C87    O121    1.279   .     A
C88    O120    1.271   .     A
C88    C90     1.412   .     S
C88    O122    1.279   .     A
C90    C163    1.347   .     S
C90    O201    1.391   .     S
C91    H103    1.084   .     S
C91    C101    1.396   .     A
C91    C93     1.393   .     A
C92    H104    1.084   .     S
C92    C102    1.397   .     A
C92    C94     1.384   .     A
C93    C95     1.410   .     A
C93    O129    1.383   .     S
C94    C96     1.415   .     A
C94    O131    1.381   .     S
C95    C97     1.403   .     A
C96    C98     1.400   .     A
C97    C99     1.380   .     A
C97    H105    1.084   .     S
C98    H106    1.084   .     S
C98    C100    1.379   .     A
C99    C101    1.393   .     A
C99    H107    1.084   .     S
C100   C102    1.394   .     A
C100   H108    1.084   .     S
C101   C324    1.440   1_545 S
C102   C323    1.440   .     S
N113   Zn124   2.001   .     S
N114   Zn123   2.001   .     S
O115   Zn123   1.998   .     S
O116   Zn124   1.998   .     S
O117   Zn124   1.993   .     S
O118   Zn123   1.993   .     S
O119   Zn123   1.984   .     S
O120   Zn124   1.984   .     S
O121   Zn124   1.991   .     S
O122   Zn123   1.991   .     S
O125   C163    1.390   .     S
O125   H200    0.991   .     S
H128   O201    0.991   .     S
O129   H130    0.992   .     S
O131   H132    0.990   .     S
N133   H134    1.032   .     S
N133   C579    1.446   1_554 S
C135   H138    1.108   .     S
C135   H136    1.111   .     S
C135   N577    1.446   .     S
C135   H581    1.112   .     S
H137   C579    1.112   1_554 S
N139   H140    1.032   .     S
N139   C585    1.446   .     S
C141   H142    1.111   .     S
C141   H143    1.108   .     S
C141   N583    1.446   1_554 S
C141   H588    1.112   1_554 S
H144   C585    1.112   .     S
O145   H146    0.988   .     S
O147   H148    0.988   .     S
C149   C169    1.447   .     S
C149   O191    1.288   .     A
C149   O189    1.285   .     A
C150   C170    1.438   .     S
C150   O190    1.283   .     A
C150   O192    1.285   .     A
C151   N207    1.425   .     S
C151   C153    1.411   .     A
C151   C159    1.420   .     A
C152   N213    1.425   .     S
C152   C154    1.411   .     A
C152   C160    1.420   .     A
C153   N187    1.360   .     A
C153   H183    1.082   .     S
C154   H184    1.082   .     S
C154   N188    1.360   .     A
C155   C157    1.406   .     A
C155   H185    1.081   .     S
C155   N187    1.360   .     A
C156   H186    1.082   .     S
C156   N188    1.361   .     A
C156   C158    1.406   .     A
C157   O219    1.381   .     S
C157   C159    1.425   .     A
C158   C160    1.425   .     A
C158   O221    1.381   .     S
C159   C604    1.511   1_554 S
C160   C603    1.511   .     S
C161   C163    1.412   .     S
C161   O193    1.271   .     A
C161   O195    1.279   .     A
C162   O194    1.271   .     A
C162   C164    1.412   .     S
C162   O196    1.279   .     A
C164   C15     1.347   1_655 S
C164   O53     1.391   1_655 S
C165   H177    1.084   .     S
C165   C175    1.396   .     A
C165   C167    1.393   .     A
C166   H178    1.084   .     S
C166   C176    1.397   .     A
C166   C168    1.384   .     A
C167   C169    1.410   .     A
C167   O203    1.383   .     S
C168   C170    1.415   .     A
C168   O205    1.381   .     S
C169   C171    1.403   .     A
C170   C172    1.400   .     A
C171   C173    1.380   .     A
C171   H179    1.084   .     S
C172   H180    1.084   .     S
C172   C174    1.379   .     A
C173   C175    1.393   .     A
C173   H181    1.084   .     S
C174   C176    1.394   .     A
C174   H182    1.084   .     S
C175   C398    1.440   1_545 S
C176   C397    1.440   .     S
N187   Zn198   2.001   .     S
N188   Zn197   2.001   .     S
O189   Zn197   1.998   .     S
O190   Zn198   1.998   .     S
O191   Zn198   1.993   .     S
O192   Zn197   1.993   .     S
O193   Zn197   1.984   .     S
O194   Zn198   1.984   .     S
O195   Zn198   1.991   .     S
O196   Zn197   1.991   .     S
O199   C15     1.390   1_655 S
O199   H52     0.991   1_655 S
H202   O53     0.991   1_655 S
O203   H204    0.992   .     S
O205   H206    0.990   .     S
N207   H208    1.032   .     S
N207   C653    1.446   1_554 S
C209   H212    1.108   .     S
C209   H210    1.111   .     S
C209   N651    1.446   .     S
C209   H655    1.112   .     S
H211   C653    1.112   1_554 S
N213   H214    1.032   .     S
N213   C659    1.446   .     S
C215   H216    1.111   .     S
C215   H217    1.108   .     S
C215   N657    1.446   1_554 S
C215   H662    1.112   1_554 S
H218   C659    1.112   .     S
O219   H220    0.988   .     S
O221   H222    0.988   .     S
C223   C243    1.447   .     S
C223   O265    1.288   .     A
C223   O263    1.285   .     A
C224   C244    1.438   .     S
C224   O264    1.283   .     A
C224   O266    1.285   .     A
C225   N281    1.425   .     S
C225   C227    1.411   .     A
C225   C233    1.420   .     A
C226   N287    1.425   .     S
C226   C228    1.411   .     A
C226   C234    1.420   .     A
C227   N261    1.360   .     A
C227   H257    1.082   .     S
C228   H258    1.082   .     S
C228   N262    1.360   .     A
C229   C231    1.406   .     A
C229   H259    1.081   .     S
C229   N261    1.360   .     A
C230   H260    1.082   .     S
C230   N262    1.361   .     A
C230   C232    1.406   .     A
C231   O293    1.381   .     S
C231   C233    1.425   .     A
C232   C234    1.425   .     A
C232   O295    1.381   .     S
C233   C678    1.511   1_554 S
C234   C677    1.511   .     S
C235   C237    1.412   .     S
C235   O267    1.271   .     A
C235   O269    1.279   .     A
C236   O268    1.271   .     A
C236   C238    1.412   .     S
C236   O270    1.279   .     A
C237   C386    1.347   1_455 S
C237   O421    1.390   1_455 S
C238   C311    1.347   .     S
C238   O349    1.391   .     S
C239   H251    1.084   .     S
C239   C249    1.396   .     A
C239   C241    1.393   .     A
C240   H252    1.084   .     S
C240   C250    1.397   .     A
C240   C242    1.384   .     A
C241   C243    1.410   .     A
C241   O277    1.383   .     S
C242   C244    1.415   .     A
C242   O279    1.381   .     S
C243   C245    1.403   .     A
C244   C246    1.400   .     A
C245   C247    1.380   .     A
C245   H253    1.084   .     S
C246   H254    1.084   .     S
C246   C248    1.379   .     A
C247   C249    1.393   .     A
C247   H255    1.084   .     S
C248   C250    1.394   .     A
C248   H256    1.084   .     S
C250   C27     1.440   1_565 S
N261   Zn272   2.001   .     S
N262   Zn271   2.001   .     S
O263   Zn271   1.998   .     S
O264   Zn272   1.998   .     S
O265   Zn272   1.993   .     S
O266   Zn271   1.993   .     S
O267   Zn271   1.984   .     S
O268   Zn272   1.984   .     S
O269   Zn272   1.991   .     S
O270   Zn271   1.991   .     S
O273   C311    1.390   .     S
O273   H348    0.991   .     S
H274   O421    0.991   1_455 S
O275   C386    1.391   1_455 S
O275   H424    0.991   1_455 S
H276   O349    0.991   .     S
O277   H278    0.992   .     S
O279   H280    0.990   .     S
N281   H282    1.032   .     S
N281   C727    1.446   1_554 S
C283   H286    1.108   .     S
C283   H284    1.111   .     S
C283   N725    1.446   .     S
C283   H729    1.112   .     S
H285   C727    1.112   1_554 S
N287   H288    1.032   .     S
N287   C733    1.446   .     S
C289   H290    1.111   .     S
C289   H291    1.108   .     S
C289   N731    1.446   1_554 S
C289   H736    1.112   1_554 S
H292   C733    1.112   .     S
O293   H294    0.988   .     S
O295   H296    0.988   .     S
C297   C317    1.447   .     S
C297   O339    1.288   .     A
C297   O337    1.285   .     A
C298   C318    1.438   .     S
C298   O338    1.283   .     A
C298   O340    1.285   .     A
C299   N355    1.425   .     S
C299   C301    1.411   .     A
C299   C307    1.420   .     A
C300   N361    1.425   .     S
C300   C302    1.411   .     A
C300   C308    1.420   .     A
C301   N335    1.360   .     A
C301   H331    1.082   .     S
C302   H332    1.082   .     S
C302   N336    1.360   .     A
C303   C305    1.406   .     A
C303   H333    1.081   .     S
C303   N335    1.360   .     A
C304   H334    1.082   .     S
C304   N336    1.361   .     A
C304   C306    1.406   .     A
C305   O367    1.381   .     S
C305   C307    1.425   .     A
C306   C308    1.425   .     A
C306   O369    1.381   .     S
C307   C752    1.511   1_554 S
C308   C751    1.511   .     S
C309   C311    1.412   .     S
C309   O341    1.271   .     A
C309   O343    1.279   .     A
C310   O342    1.271   .     A
C310   C312    1.412   .     S
C310   O344    1.279   .     A
C312   C385    1.347   .     S
C312   O423    1.391   .     S
C313   H325    1.084   .     S
C313   C323    1.396   .     A
C313   C315    1.393   .     A
C314   H326    1.084   .     S
C314   C324    1.397   .     A
C314   C316    1.384   .     A
C315   C317    1.410   .     A
C315   O351    1.383   .     S
C316   C318    1.415   .     A
C316   O353    1.381   .     S
C317   C319    1.403   .     A
C318   C320    1.400   .     A
C319   C321    1.380   .     A
C319   H327    1.084   .     S
C320   H328    1.084   .     S
C320   C322    1.379   .     A
C321   C323    1.393   .     A
C321   H329    1.084   .     S
C322   C324    1.394   .     A
C322   H330    1.084   .     S
C324   C101    1.440   1_565 S
N335   Zn346   2.001   .     S
N336   Zn345   2.001   .     S
O337   Zn345   1.998   .     S
O338   Zn346   1.998   .     S
O339   Zn346   1.993   .     S
O340   Zn345   1.993   .     S
O341   Zn345   1.984   .     S
O342   Zn346   1.984   .     S
O343   Zn346   1.991   .     S
O344   Zn345   1.991   .     S
O347   C385    1.390   .     S
O347   H422    0.991   .     S
H350   O423    0.991   .     S
O351   H352    0.992   .     S
O353   H354    0.990   .     S
N355   H356    1.032   .     S
N355   C801    1.446   1_554 S
C357   H360    1.108   .     S
C357   H358    1.111   .     S
C357   N799    1.446   .     S
C357   H803    1.112   .     S
H359   C801    1.112   1_554 S
N361   H362    1.032   .     S
N361   C807    1.446   .     S
C363   H364    1.111   .     S
C363   H365    1.108   .     S
C363   N805    1.446   1_554 S
C363   H810    1.112   1_554 S
H366   C807    1.112   .     S
O367   H368    0.988   .     S
O369   H370    0.988   .     S
C371   C391    1.447   .     S
C371   O413    1.288   .     A
C371   O411    1.285   .     A
C372   C392    1.438   .     S
C372   O412    1.283   .     A
C372   O414    1.285   .     A
C373   N429    1.425   .     S
C373   C375    1.411   .     A
C373   C381    1.420   .     A
C374   N435    1.425   .     S
C374   C376    1.411   .     A
C374   C382    1.420   .     A
C375   N409    1.360   .     A
C375   H405    1.082   .     S
C376   H406    1.082   .     S
C376   N410    1.360   .     A
C377   C379    1.406   .     A
C377   H407    1.081   .     S
C377   N409    1.360   .     A
C378   H408    1.082   .     S
C378   N410    1.361   .     A
C378   C380    1.406   .     A
C379   O441    1.381   .     S
C379   C381    1.425   .     A
C380   C382    1.425   .     A
C380   O443    1.381   .     S
C381   C826    1.511   1_554 S
C382   C825    1.511   .     S
C383   C385    1.412   .     S
C383   O415    1.271   .     A
C383   O417    1.279   .     A
C384   O416    1.271   .     A
C384   C386    1.412   .     S
C384   O418    1.279   .     A
C386   C237    1.347   1_655 S
C386   O275    1.391   1_655 S
C387   H399    1.084   .     S
C387   C397    1.396   .     A
C387   C389    1.393   .     A
C388   H400    1.084   .     S
C388   C398    1.397   .     A
C388   C390    1.384   .     A
C389   C391    1.410   .     A
C389   O425    1.383   .     S
C390   C392    1.415   .     A
C390   O427    1.381   .     S
C391   C393    1.403   .     A
C392   C394    1.400   .     A
C393   C395    1.380   .     A
C393   H401    1.084   .     S
C394   H402    1.084   .     S
C394   C396    1.379   .     A
C395   C397    1.393   .     A
C395   H403    1.084   .     S
C396   C398    1.394   .     A
C396   H404    1.084   .     S
C398   C175    1.440   1_565 S
N409   Zn420   2.001   .     S
N410   Zn419   2.001   .     S
O411   Zn419   1.998   .     S
O412   Zn420   1.998   .     S
O413   Zn420   1.993   .     S
O414   Zn419   1.993   .     S
O415   Zn419   1.984   .     S
O416   Zn420   1.984   .     S
O417   Zn420   1.991   .     S
O418   Zn419   1.991   .     S
O421   C237    1.390   1_655 S
O421   H274    0.991   1_655 S
H424   O275    0.991   1_655 S
O425   H426    0.992   .     S
O427   H428    0.990   .     S
N429   H430    1.032   .     S
N429   C875    1.446   1_554 S
C431   H434    1.108   .     S
C431   H432    1.111   .     S
C431   N873    1.446   .     S
C431   H877    1.112   .     S
H433   C875    1.112   1_554 S
N435   H436    1.032   .     S
N435   C881    1.446   .     S
C437   H438    1.111   .     S
C437   H439    1.108   .     S
C437   N879    1.446   1_554 S
C437   H884    1.112   1_554 S
H440   C881    1.112   .     S
O441   H442    0.988   .     S
O443   H444    0.988   .     S
C445   C465    1.447   .     S
C445   O487    1.288   .     A
C445   O485    1.285   .     A
C446   C466    1.438   .     S
C446   O486    1.283   .     A
C446   O488    1.285   .     A
C447   N503    1.425   .     S
C447   C449    1.411   .     A
C447   C455    1.420   .     A
C448   N509    1.425   .     S
C448   C450    1.411   .     A
C448   C456    1.420   .     A
C449   N483    1.360   .     A
C449   H479    1.082   .     S
C450   H480    1.082   .     S
C450   N484    1.360   .     A
C451   C453    1.406   .     A
C451   H481    1.081   .     S
C451   N483    1.360   .     A
C452   H482    1.082   .     S
C452   N484    1.361   .     A
C452   C454    1.406   .     A
C453   O515    1.381   .     S
C453   C455    1.425   .     A
C454   C456    1.425   .     A
C454   O517    1.381   .     S
C456   C11     1.511   1_556 S
C457   C459    1.412   .     S
C457   O489    1.271   .     A
C457   O491    1.279   .     A
C458   O490    1.271   .     A
C458   C460    1.412   .     S
C458   O492    1.279   .     A
C459   C608    1.347   1_455 S
C459   O643    1.390   1_455 S
C460   C533    1.347   .     S
C460   O571    1.391   .     S
C461   H473    1.084   .     S
C461   C471    1.396   .     A
C461   C463    1.393   .     A
C462   H474    1.084   .     S
C462   C472    1.397   .     A
C462   C464    1.384   .     A
C463   C465    1.410   .     A
C463   O499    1.383   .     S
C464   C466    1.415   .     A
C464   O501    1.381   .     S
C465   C467    1.403   .     A
C466   C468    1.400   .     A
C467   C469    1.380   .     A
C467   H475    1.084   .     S
C468   H476    1.084   .     S
C468   C470    1.379   .     A
C469   C471    1.393   .     A
C469   H477    1.084   .     S
C470   C472    1.394   .     A
C470   H478    1.084   .     S
C471   C694    1.440   1_545 S
C472   C693    1.440   .     S
N483   Zn494   2.001   .     S
N484   Zn493   2.001   .     S
O485   Zn493   1.998   .     S
O486   Zn494   1.998   .     S
O487   Zn494   1.993   .     S
O488   Zn493   1.993   .     S
O489   Zn493   1.984   .     S
O490   Zn494   1.984   .     S
O491   Zn494   1.991   .     S
O492   Zn493   1.991   .     S
O495   C533    1.390   .     S
O495   H570    0.991   .     S
H496   O643    0.991   1_455 S
O497   C608    1.391   1_455 S
O497   H646    0.991   1_455 S
H498   O571    0.991   .     S
O499   H500    0.992   .     S
O501   H502    0.990   .     S
N503   H504    1.032   .     S
C505   H508    1.108   .     S
C505   H506    1.111   .     S
C505   N59     1.446   1_556 S
C505   H63     1.112   1_556 S
N509   H510    1.032   .     S
N509   C67     1.446   1_556 S
C511   H512    1.111   .     S
C511   H513    1.108   .     S
H514   C67     1.112   1_556 S
O515   H516    0.988   .     S
O517   H518    0.988   .     S
C519   C539    1.447   .     S
C519   O561    1.288   .     A
C519   O559    1.285   .     A
C520   C540    1.438   .     S
C520   O560    1.283   .     A
C520   O562    1.285   .     A
C521   N577    1.425   .     S
C521   C523    1.411   .     A
C521   C529    1.420   .     A
C522   N583    1.425   .     S
C522   C524    1.411   .     A
C522   C530    1.420   .     A
C523   N557    1.360   .     A
C523   H553    1.082   .     S
C524   H554    1.082   .     S
C524   N558    1.360   .     A
C525   C527    1.406   .     A
C525   H555    1.081   .     S
C525   N557    1.360   .     A
C526   H556    1.082   .     S
C526   N558    1.361   .     A
C526   C528    1.406   .     A
C527   O589    1.381   .     S
C527   C529    1.425   .     A
C528   C530    1.425   .     A
C528   O591    1.381   .     S
C530   C85     1.511   1_556 S
C531   C533    1.412   .     S
C531   O563    1.271   .     A
C531   O565    1.279   .     A
C532   O564    1.271   .     A
C532   C534    1.412   .     S
C532   O566    1.279   .     A
C534   C607    1.347   .     S
C534   O645    1.391   .     S
C535   H547    1.084   .     S
C535   C545    1.396   .     A
C535   C537    1.393   .     A
C536   H548    1.084   .     S
C536   C546    1.397   .     A
C536   C538    1.384   .     A
C537   C539    1.410   .     A
C537   O573    1.383   .     S
C538   C540    1.415   .     A
C538   O575    1.381   .     S
C539   C541    1.403   .     A
C540   C542    1.400   .     A
C541   C543    1.380   .     A
C541   H549    1.084   .     S
C542   H550    1.084   .     S
C542   C544    1.379   .     A
C543   C545    1.393   .     A
C543   H551    1.084   .     S
C544   C546    1.394   .     A
C544   H552    1.084   .     S
C545   C768    1.440   1_545 S
C546   C767    1.440   .     S
N557   Zn568   2.001   .     S
N558   Zn567   2.001   .     S
O559   Zn567   1.998   .     S
O560   Zn568   1.998   .     S
O561   Zn568   1.993   .     S
O562   Zn567   1.993   .     S
O563   Zn567   1.984   .     S
O564   Zn568   1.984   .     S
O565   Zn568   1.991   .     S
O566   Zn567   1.991   .     S
O569   C607    1.390   .     S
O569   H644    0.991   .     S
H572   O645    0.991   .     S
O573   H574    0.992   .     S
O575   H576    0.990   .     S
N577   H578    1.032   .     S
C579   H582    1.108   .     S
C579   H580    1.111   .     S
C579   N133    1.446   1_556 S
C579   H137    1.112   1_556 S
N583   H584    1.032   .     S
N583   C141    1.446   1_556 S
C585   H586    1.111   .     S
C585   H587    1.108   .     S
H588   C141    1.112   1_556 S
O589   H590    0.988   .     S
O591   H592    0.988   .     S
C593   C613    1.447   .     S
C593   O635    1.288   .     A
C593   O633    1.285   .     A
C594   C614    1.438   .     S
C594   O634    1.283   .     A
C594   O636    1.285   .     A
C595   N651    1.425   .     S
C595   C597    1.411   .     A
C595   C603    1.420   .     A
C596   N657    1.425   .     S
C596   C598    1.411   .     A
C596   C604    1.420   .     A
C597   N631    1.360   .     A
C597   H627    1.082   .     S
C598   H628    1.082   .     S
C598   N632    1.360   .     A
C599   C601    1.406   .     A
C599   H629    1.081   .     S
C599   N631    1.360   .     A
C600   H630    1.082   .     S
C600   N632    1.361   .     A
C600   C602    1.406   .     A
C601   O663    1.381   .     S
C601   C603    1.425   .     A
C602   C604    1.425   .     A
C602   O665    1.381   .     S
C604   C159    1.511   1_556 S
C605   C607    1.412   .     S
C605   O637    1.271   .     A
C605   O639    1.279   .     A
C606   O638    1.271   .     A
C606   C608    1.412   .     S
C606   O640    1.279   .     A
C608   C459    1.347   1_655 S
C608   O497    1.391   1_655 S
C609   H621    1.084   .     S
C609   C619    1.396   .     A
C609   C611    1.393   .     A
C610   H622    1.084   .     S
C610   C620    1.397   .     A
C610   C612    1.384   .     A
C611   C613    1.410   .     A
C611   O647    1.383   .     S
C612   C614    1.415   .     A
C612   O649    1.381   .     S
C613   C615    1.403   .     A
C614   C616    1.400   .     A
C615   C617    1.380   .     A
C615   H623    1.084   .     S
C616   H624    1.084   .     S
C616   C618    1.379   .     A
C617   C619    1.393   .     A
C617   H625    1.084   .     S
C618   C620    1.394   .     A
C618   H626    1.084   .     S
C619   C842    1.440   1_545 S
C620   C841    1.440   .     S
N631   Zn642   2.001   .     S
N632   Zn641   2.001   .     S
O633   Zn641   1.998   .     S
O634   Zn642   1.998   .     S
O635   Zn642   1.993   .     S
O636   Zn641   1.993   .     S
O637   Zn641   1.984   .     S
O638   Zn642   1.984   .     S
O639   Zn642   1.991   .     S
O640   Zn641   1.991   .     S
O643   C459    1.390   1_655 S
O643   H496    0.991   1_655 S
H646   O497    0.991   1_655 S
O647   H648    0.992   .     S
O649   H650    0.990   .     S
N651   H652    1.032   .     S
C653   H656    1.108   .     S
C653   H654    1.111   .     S
C653   N207    1.446   1_556 S
C653   H211    1.112   1_556 S
N657   H658    1.032   .     S
N657   C215    1.446   1_556 S
C659   H660    1.111   .     S
C659   H661    1.108   .     S
H662   C215    1.112   1_556 S
O663   H664    0.988   .     S
O665   H666    0.988   .     S
C667   C687    1.447   .     S
C667   O709    1.288   .     A
C667   O707    1.285   .     A
C668   C688    1.438   .     S
C668   O708    1.283   .     A
C668   O710    1.285   .     A
C669   N725    1.425   .     S
C669   C671    1.411   .     A
C669   C677    1.420   .     A
C670   N731    1.425   .     S
C670   C672    1.411   .     A
C670   C678    1.420   .     A
C671   N705    1.360   .     A
C671   H701    1.082   .     S
C672   H702    1.082   .     S
C672   N706    1.360   .     A
C673   C675    1.406   .     A
C673   H703    1.081   .     S
C673   N705    1.360   .     A
C674   H704    1.082   .     S
C674   N706    1.361   .     A
C674   C676    1.406   .     A
C675   O737    1.381   .     S
C675   C677    1.425   .     A
C676   C678    1.425   .     A
C676   O739    1.381   .     S
C678   C233    1.511   1_556 S
C679   C681    1.412   .     S
C679   O711    1.271   .     A
C679   O713    1.279   .     A
C680   O712    1.271   .     A
C680   C682    1.412   .     S
C680   O714    1.279   .     A
C681   C830    1.347   1_455 S
C681   O865    1.390   1_455 S
C682   C755    1.347   .     S
C682   O793    1.391   .     S
C683   H695    1.084   .     S
C683   C693    1.396   .     A
C683   C685    1.393   .     A
C684   H696    1.084   .     S
C684   C694    1.397   .     A
C684   C686    1.384   .     A
C685   C687    1.410   .     A
C685   O721    1.383   .     S
C686   C688    1.415   .     A
C686   O723    1.381   .     S
C687   C689    1.403   .     A
C688   C690    1.400   .     A
C689   C691    1.380   .     A
C689   H697    1.084   .     S
C690   H698    1.084   .     S
C690   C692    1.379   .     A
C691   C693    1.393   .     A
C691   H699    1.084   .     S
C692   C694    1.394   .     A
C692   H700    1.084   .     S
C694   C471    1.440   1_565 S
N705   Zn716   2.001   .     S
N706   Zn715   2.001   .     S
O707   Zn715   1.998   .     S
O708   Zn716   1.998   .     S
O709   Zn716   1.993   .     S
O710   Zn715   1.993   .     S
O711   Zn715   1.984   .     S
O712   Zn716   1.984   .     S
O713   Zn716   1.991   .     S
O714   Zn715   1.991   .     S
O717   C755    1.390   .     S
O717   H792    0.991   .     S
H718   O865    0.991   1_455 S
O719   C830    1.391   1_455 S
O719   H868    0.991   1_455 S
H720   O793    0.991   .     S
O721   H722    0.992   .     S
O723   H724    0.990   .     S
N725   H726    1.032   .     S
C727   H730    1.108   .     S
C727   H728    1.111   .     S
C727   N281    1.446   1_556 S
C727   H285    1.112   1_556 S
N731   H732    1.032   .     S
N731   C289    1.446   1_556 S
C733   H734    1.111   .     S
C733   H735    1.108   .     S
H736   C289    1.112   1_556 S
O737   H738    0.988   .     S
O739   H740    0.988   .     S
C741   C761    1.447   .     S
C741   O783    1.288   .     A
C741   O781    1.285   .     A
C742   C762    1.438   .     S
C742   O782    1.283   .     A
C742   O784    1.285   .     A
C743   N799    1.425   .     S
C743   C745    1.411   .     A
C743   C751    1.420   .     A
C744   N805    1.425   .     S
C744   C746    1.411   .     A
C744   C752    1.420   .     A
C745   N779    1.360   .     A
C745   H775    1.082   .     S
C746   H776    1.082   .     S
C746   N780    1.360   .     A
C747   C749    1.406   .     A
C747   H777    1.081   .     S
C747   N779    1.360   .     A
C748   H778    1.082   .     S
C748   N780    1.361   .     A
C748   C750    1.406   .     A
C749   O811    1.381   .     S
C749   C751    1.425   .     A
C750   C752    1.425   .     A
C750   O813    1.381   .     S
C752   C307    1.511   1_556 S
C753   C755    1.412   .     S
C753   O785    1.271   .     A
C753   O787    1.279   .     A
C754   O786    1.271   .     A
C754   C756    1.412   .     S
C754   O788    1.279   .     A
C756   C829    1.347   .     S
C756   O867    1.391   .     S
C757   H769    1.084   .     S
C757   C767    1.396   .     A
C757   C759    1.393   .     A
C758   H770    1.084   .     S
C758   C768    1.397   .     A
C758   C760    1.384   .     A
C759   C761    1.410   .     A
C759   O795    1.383   .     S
C760   C762    1.415   .     A
C760   O797    1.381   .     S
C761   C763    1.403   .     A
C762   C764    1.400   .     A
C763   C765    1.380   .     A
C763   H771    1.084   .     S
C764   H772    1.084   .     S
C764   C766    1.379   .     A
C765   C767    1.393   .     A
C765   H773    1.084   .     S
C766   C768    1.394   .     A
C766   H774    1.084   .     S
C768   C545    1.440   1_565 S
N779   Zn790   2.001   .     S
N780   Zn789   2.001   .     S
O781   Zn789   1.998   .     S
O782   Zn790   1.998   .     S
O783   Zn790   1.993   .     S
O784   Zn789   1.993   .     S
O785   Zn789   1.984   .     S
O786   Zn790   1.984   .     S
O787   Zn790   1.991   .     S
O788   Zn789   1.991   .     S
O791   C829    1.390   .     S
O791   H866    0.991   .     S
H794   O867    0.991   .     S
O795   H796    0.992   .     S
O797   H798    0.990   .     S
N799   H800    1.032   .     S
C801   H804    1.108   .     S
C801   H802    1.111   .     S
C801   N355    1.446   1_556 S
C801   H359    1.112   1_556 S
N805   H806    1.032   .     S
N805   C363    1.446   1_556 S
C807   H808    1.111   .     S
C807   H809    1.108   .     S
H810   C363    1.112   1_556 S
O811   H812    0.988   .     S
O813   H814    0.988   .     S
C815   C835    1.447   .     S
C815   O857    1.288   .     A
C815   O855    1.285   .     A
C816   C836    1.438   .     S
C816   O856    1.283   .     A
C816   O858    1.285   .     A
C817   N873    1.425   .     S
C817   C819    1.411   .     A
C817   C825    1.420   .     A
C818   N879    1.425   .     S
C818   C820    1.411   .     A
C818   C826    1.420   .     A
C819   N853    1.360   .     A
C819   H849    1.082   .     S
C820   H850    1.082   .     S
C820   N854    1.360   .     A
C821   C823    1.406   .     A
C821   H851    1.081   .     S
C821   N853    1.360   .     A
C822   H852    1.082   .     S
C822   N854    1.361   .     A
C822   C824    1.406   .     A
C823   O885    1.381   .     S
C823   C825    1.425   .     A
C824   C826    1.425   .     A
C824   O887    1.381   .     S
C826   C381    1.511   1_556 S
C827   C829    1.412   .     S
C827   O859    1.271   .     A
C827   O861    1.279   .     A
C828   O860    1.271   .     A
C828   C830    1.412   .     S
C828   O862    1.279   .     A
C830   C681    1.347   1_655 S
C830   O719    1.391   1_655 S
C831   H843    1.084   .     S
C831   C841    1.396   .     A
C831   C833    1.393   .     A
C832   H844    1.084   .     S
C832   C842    1.397   .     A
C832   C834    1.384   .     A
C833   C835    1.410   .     A
C833   O869    1.383   .     S
C834   C836    1.415   .     A
C834   O871    1.381   .     S
C835   C837    1.403   .     A
C836   C838    1.400   .     A
C837   C839    1.380   .     A
C837   H845    1.084   .     S
C838   H846    1.084   .     S
C838   C840    1.379   .     A
C839   C841    1.393   .     A
C839   H847    1.084   .     S
C840   C842    1.394   .     A
C840   H848    1.084   .     S
C842   C619    1.440   1_565 S
N853   Zn864   2.001   .     S
N854   Zn863   2.001   .     S
O855   Zn863   1.998   .     S
O856   Zn864   1.998   .     S
O857   Zn864   1.993   .     S
O858   Zn863   1.993   .     S
O859   Zn863   1.984   .     S
O860   Zn864   1.984   .     S
O861   Zn864   1.991   .     S
O862   Zn863   1.991   .     S
O865   C681    1.390   1_655 S
O865   H718    0.991   1_655 S
H868   O719    0.991   1_655 S
O869   H870    0.992   .     S
O871   H872    0.990   .     S
N873   H874    1.032   .     S
C875   H878    1.108   .     S
C875   H876    1.111   .     S
C875   N429    1.446   1_556 S
C875   H433    1.112   1_556 S
N879   H880    1.032   .     S
N879   C437    1.446   1_556 S
C881   H882    1.111   .     S
C881   H883    1.108   .     S
H884   C437    1.112   1_556 S
O885   H886    0.988   .     S
O887   H888    0.988   .     S
