data_str_m3_o1_o10_pcu_sym.2
_audit_creation_date              2020-01-03
_audit_creation_method            'Materials Studio'
_symmetry_space_group_name_H-M    'P1'
_symmetry_Int_Tables_number       1
_symmetry_cell_setting            triclinic
loop_
_symmetry_equiv_pos_as_xyz
  x,y,z
_cell_length_a                    25.8284
_cell_length_b                    31.8251
_cell_length_c                    29.8121
_cell_angle_alpha                 89.7253
_cell_angle_beta                  98.3495
_cell_angle_gamma                 91.1451
loop_
_atom_site_label
_atom_site_type_symbol
_atom_site_fract_x
_atom_site_fract_y
_atom_site_fract_z
_atom_site_U_iso_or_equiv
_atom_site_adp_type
_atom_site_occupancy
C1     C     0.16735   0.08691   0.16682   0.00000  Uiso   1.00
C2     C     0.12347   0.02174   0.17758   0.00000  Uiso   1.00
C3     C     0.16518   0.29061   0.16624   0.00000  Uiso   1.00
C4     C     0.16816   0.04272   0.16709   0.00000  Uiso   1.00
C5     C     0.19723   0.19482   0.02758   0.00000  Uiso   1.00
C6     C     0.13779   0.13725   0.30592   0.00000  Uiso   1.00
C7     C     0.19730   0.19472   0.31302   0.00000  Uiso   1.00
C8     C     0.13753   0.13751   0.02060   0.00000  Uiso   1.00
C9     C     0.25974   0.04505   0.14595   0.00000  Uiso   1.00
C10    C     0.07358   0.28828   0.18733   0.00000  Uiso   1.00
C11    C     0.22945   0.22625   0.05563   0.00000  Uiso   1.00
C12    C     0.16599   0.24643   0.16652   0.00000  Uiso   1.00
C13    C     0.10651   0.10531   0.27758   0.00000  Uiso   1.00
C14    C     0.23065   0.22517   0.29259   0.00000  Uiso   1.00
C15    C     0.10403   0.10740   0.04148   0.00000  Uiso   1.00
C16    C     0.06729   0.16605   0.15495   0.00000  Uiso   1.00
C17    C     0.26603   0.16686   0.17841   0.00000  Uiso   1.00
C18    C     0.01259   0.16235   0.14909   0.00000  Uiso   1.00
C19    C     0.32078   0.16971   0.18447   0.00000  Uiso   1.00
C20    C     0.21198   0.02176   0.15596   0.00000  Uiso   1.00
C21    C     0.12135   0.31157   0.17734   0.00000  Uiso   1.00
C22    C     0.20987   0.31160   0.15573   0.00000  Uiso   1.00
F23    F     0.32162   0.14874   0.10787   0.00000  Uiso   1.00
F24    F     0.01179   0.18257   0.22597   0.00000  Uiso   1.00
F25    F     0.25166   0.28924   0.14699   0.00000  Uiso   1.00
F26    F     0.08169   0.04410   0.18631   0.00000  Uiso   1.00
H27    H     0.26397   0.07862   0.15159   0.00000  Uiso   1.00
H28    H     0.06932   0.25472   0.18165   0.00000  Uiso   1.00
H29    H     0.21146   0.25390   0.06706   0.00000  Uiso   1.00
H30    H     0.07647   0.11453   0.25050   0.00000  Uiso   1.00
H31    H     0.21435   0.25418   0.27812   0.00000  Uiso   1.00
H32    H     0.07014   0.11825   0.05523   0.00000  Uiso   1.00
N33    N     0.16665   0.16666   0.28573   0.00000  Uiso   1.00
N34    N     0.16668   0.16668   0.04760   0.00000  Uiso   1.00
O35    O     0.16666   0.10558   0.20487   0.00000  Uiso   1.00
O36    O     0.03831   0.30619   0.20217   0.00000  Uiso   1.00
O37    O     0.27677   0.22247   0.06413   0.00000  Uiso   1.00
O38    O     0.11430   0.06796   0.28432   0.00000  Uiso   1.00
O39    O     0.27717   0.21864   0.29344   0.00000  Uiso   1.00
O40    O     0.11413   0.07007   0.04344   0.00000  Uiso   1.00
O41    O     0.16667   0.22775   0.12846   0.00000  Uiso   1.00
O42    O     0.16666   0.10559   0.12843   0.00000  Uiso   1.00
O43    O     0.16667   0.22774   0.20490   0.00000  Uiso   1.00
O44    O     0.09058   0.16666   0.19595   0.00000  Uiso   1.00
O45    O     0.24275   0.16667   0.13739   0.00000  Uiso   1.00
O46    O     0.09058   0.16667   0.11950   0.00000  Uiso   1.00
O47    O     0.24275   0.16666   0.21383   0.00000  Uiso   1.00
O48    O     0.29504   0.02714   0.13115   0.00000  Uiso   1.00
Zn49   Zn    0.16667   0.16666   0.21771   0.00000  Uiso   1.00
Zn50   Zn    0.16667   0.16667   0.11563   0.00000  Uiso   1.00
C51    C     0.50068   0.08691   0.16682   0.00000  Uiso   1.00
C52    C     0.45681   0.02174   0.17758   0.00000  Uiso   1.00
C53    C     0.49851   0.29061   0.16624   0.00000  Uiso   1.00
C54    C     0.50150   0.04272   0.16709   0.00000  Uiso   1.00
C55    C     0.53057   0.19482   0.02758   0.00000  Uiso   1.00
C56    C     0.47112   0.13725   0.30592   0.00000  Uiso   1.00
C57    C     0.53063   0.19472   0.31302   0.00000  Uiso   1.00
C58    C     0.47086   0.13751   0.02060   0.00000  Uiso   1.00
C59    C     0.59307   0.04505   0.14595   0.00000  Uiso   1.00
C60    C     0.40692   0.28828   0.18733   0.00000  Uiso   1.00
C61    C     0.56279   0.22625   0.05563   0.00000  Uiso   1.00
C62    C     0.49933   0.24643   0.16652   0.00000  Uiso   1.00
C63    C     0.43984   0.10531   0.27758   0.00000  Uiso   1.00
C64    C     0.56398   0.22517   0.29259   0.00000  Uiso   1.00
C65    C     0.43736   0.10740   0.04148   0.00000  Uiso   1.00
C66    C     0.40063   0.16605   0.15495   0.00000  Uiso   1.00
C67    C     0.59937   0.16686   0.17841   0.00000  Uiso   1.00
C68    C     0.34592   0.16235   0.14909   0.00000  Uiso   1.00
C69    C     0.65411   0.16971   0.18447   0.00000  Uiso   1.00
C70    C     0.54532   0.02176   0.15596   0.00000  Uiso   1.00
C71    C     0.45468   0.31157   0.17734   0.00000  Uiso   1.00
C72    C     0.54320   0.31160   0.15573   0.00000  Uiso   1.00
F73    F     0.65496   0.14874   0.10787   0.00000  Uiso   1.00
F74    F     0.34513   0.18257   0.22597   0.00000  Uiso   1.00
F75    F     0.58499   0.28924   0.14699   0.00000  Uiso   1.00
F76    F     0.41502   0.04410   0.18631   0.00000  Uiso   1.00
H77    H     0.59731   0.07862   0.15159   0.00000  Uiso   1.00
H78    H     0.40266   0.25472   0.18165   0.00000  Uiso   1.00
H79    H     0.54480   0.25390   0.06706   0.00000  Uiso   1.00
H80    H     0.40981   0.11453   0.25050   0.00000  Uiso   1.00
H81    H     0.54768   0.25418   0.27812   0.00000  Uiso   1.00
H82    H     0.40347   0.11825   0.05523   0.00000  Uiso   1.00
N83    N     0.49999   0.16666   0.28573   0.00000  Uiso   1.00
N84    N     0.50001   0.16668   0.04760   0.00000  Uiso   1.00
O85    O     0.50000   0.10558   0.20487   0.00000  Uiso   1.00
O86    O     0.37164   0.30619   0.20217   0.00000  Uiso   1.00
O87    O     0.61011   0.22247   0.06413   0.00000  Uiso   1.00
O88    O     0.44764   0.06796   0.28432   0.00000  Uiso   1.00
O89    O     0.61051   0.21864   0.29344   0.00000  Uiso   1.00
O90    O     0.44746   0.07007   0.04344   0.00000  Uiso   1.00
O91    O     0.50000   0.22775   0.12846   0.00000  Uiso   1.00
O92    O     0.50000   0.10559   0.12843   0.00000  Uiso   1.00
O93    O     0.50000   0.22774   0.20490   0.00000  Uiso   1.00
O94    O     0.42392   0.16666   0.19595   0.00000  Uiso   1.00
O95    O     0.57608   0.16667   0.13739   0.00000  Uiso   1.00
O96    O     0.42392   0.16667   0.11950   0.00000  Uiso   1.00
O97    O     0.57608   0.16666   0.21383   0.00000  Uiso   1.00
O98    O     0.62837   0.02714   0.13115   0.00000  Uiso   1.00
Zn99   Zn    0.50000   0.16666   0.21771   0.00000  Uiso   1.00
Zn100  Zn    0.50000   0.16667   0.11563   0.00000  Uiso   1.00
C101   C     0.83401   0.08691   0.16682   0.00000  Uiso   1.00
C102   C     0.79014   0.02174   0.17758   0.00000  Uiso   1.00
C103   C     0.83185   0.29061   0.16624   0.00000  Uiso   1.00
C104   C     0.83483   0.04272   0.16709   0.00000  Uiso   1.00
C105   C     0.86390   0.19482   0.02758   0.00000  Uiso   1.00
C106   C     0.80446   0.13725   0.30592   0.00000  Uiso   1.00
C107   C     0.86397   0.19472   0.31302   0.00000  Uiso   1.00
C108   C     0.80420   0.13751   0.02060   0.00000  Uiso   1.00
C109   C     0.92641   0.04505   0.14595   0.00000  Uiso   1.00
C110   C     0.74025   0.28828   0.18733   0.00000  Uiso   1.00
C111   C     0.89612   0.22625   0.05563   0.00000  Uiso   1.00
C112   C     0.83266   0.24643   0.16652   0.00000  Uiso   1.00
C113   C     0.77317   0.10531   0.27758   0.00000  Uiso   1.00
C114   C     0.89732   0.22517   0.29259   0.00000  Uiso   1.00
C115   C     0.77069   0.10740   0.04148   0.00000  Uiso   1.00
C116   C     0.73396   0.16605   0.15495   0.00000  Uiso   1.00
C117   C     0.93270   0.16686   0.17841   0.00000  Uiso   1.00
C118   C     0.67926   0.16235   0.14909   0.00000  Uiso   1.00
C119   C     0.98744   0.16971   0.18447   0.00000  Uiso   1.00
C120   C     0.87865   0.02176   0.15596   0.00000  Uiso   1.00
C121   C     0.78802   0.31157   0.17734   0.00000  Uiso   1.00
C122   C     0.87653   0.31160   0.15573   0.00000  Uiso   1.00
F123   F     0.98829   0.14874   0.10787   0.00000  Uiso   1.00
F124   F     0.67846   0.18257   0.22597   0.00000  Uiso   1.00
F125   F     0.91832   0.28924   0.14699   0.00000  Uiso   1.00
F126   F     0.74835   0.04410   0.18631   0.00000  Uiso   1.00
H127   H     0.93064   0.07862   0.15159   0.00000  Uiso   1.00
H128   H     0.73599   0.25472   0.18165   0.00000  Uiso   1.00
H129   H     0.87813   0.25390   0.06706   0.00000  Uiso   1.00
H130   H     0.74314   0.11453   0.25050   0.00000  Uiso   1.00
H131   H     0.88102   0.25418   0.27812   0.00000  Uiso   1.00
H132   H     0.73681   0.11825   0.05523   0.00000  Uiso   1.00
N133   N     0.83332   0.16666   0.28573   0.00000  Uiso   1.00
N134   N     0.83335   0.16668   0.04760   0.00000  Uiso   1.00
O135   O     0.83333   0.10558   0.20487   0.00000  Uiso   1.00
O136   O     0.70497   0.30619   0.20217   0.00000  Uiso   1.00
O137   O     0.94344   0.22247   0.06413   0.00000  Uiso   1.00
O138   O     0.78097   0.06796   0.28432   0.00000  Uiso   1.00
O139   O     0.94384   0.21864   0.29344   0.00000  Uiso   1.00
O140   O     0.78080   0.07007   0.04344   0.00000  Uiso   1.00
O141   O     0.83334   0.22775   0.12846   0.00000  Uiso   1.00
O142   O     0.83333   0.10559   0.12843   0.00000  Uiso   1.00
O143   O     0.83334   0.22774   0.20490   0.00000  Uiso   1.00
O144   O     0.75725   0.16666   0.19595   0.00000  Uiso   1.00
O145   O     0.90942   0.16667   0.13739   0.00000  Uiso   1.00
O146   O     0.75725   0.16667   0.11950   0.00000  Uiso   1.00
O147   O     0.90942   0.16666   0.21383   0.00000  Uiso   1.00
O148   O     0.96170   0.02714   0.13115   0.00000  Uiso   1.00
Zn149  Zn    0.83333   0.16666   0.21771   0.00000  Uiso   1.00
Zn150  Zn    0.83333   0.16667   0.11563   0.00000  Uiso   1.00
C151   C     0.16735   0.42024   0.16682   0.00000  Uiso   1.00
C152   C     0.12347   0.35507   0.17758   0.00000  Uiso   1.00
C153   C     0.16518   0.62394   0.16624   0.00000  Uiso   1.00
C154   C     0.16816   0.37606   0.16709   0.00000  Uiso   1.00
C155   C     0.19723   0.52815   0.02758   0.00000  Uiso   1.00
C156   C     0.13779   0.47059   0.30592   0.00000  Uiso   1.00
C157   C     0.19730   0.52806   0.31302   0.00000  Uiso   1.00
C158   C     0.13753   0.47084   0.02060   0.00000  Uiso   1.00
C159   C     0.25974   0.37839   0.14595   0.00000  Uiso   1.00
C160   C     0.07358   0.62162   0.18733   0.00000  Uiso   1.00
C161   C     0.22945   0.55958   0.05563   0.00000  Uiso   1.00
C162   C     0.16599   0.57976   0.16652   0.00000  Uiso   1.00
C163   C     0.10651   0.43865   0.27758   0.00000  Uiso   1.00
C164   C     0.23065   0.55850   0.29259   0.00000  Uiso   1.00
C165   C     0.10403   0.44073   0.04148   0.00000  Uiso   1.00
C166   C     0.06729   0.49939   0.15495   0.00000  Uiso   1.00
C167   C     0.26603   0.50020   0.17841   0.00000  Uiso   1.00
C168   C     0.01259   0.49568   0.14909   0.00000  Uiso   1.00
C169   C     0.32078   0.50304   0.18447   0.00000  Uiso   1.00
C170   C     0.21198   0.35510   0.15596   0.00000  Uiso   1.00
C171   C     0.12135   0.64490   0.17734   0.00000  Uiso   1.00
C172   C     0.20987   0.64493   0.15573   0.00000  Uiso   1.00
F173   F     0.32162   0.48208   0.10787   0.00000  Uiso   1.00
F174   F     0.01179   0.51590   0.22597   0.00000  Uiso   1.00
F175   F     0.25166   0.62257   0.14699   0.00000  Uiso   1.00
F176   F     0.08169   0.37744   0.18631   0.00000  Uiso   1.00
H177   H     0.26397   0.41195   0.15159   0.00000  Uiso   1.00
H178   H     0.06932   0.58805   0.18165   0.00000  Uiso   1.00
H179   H     0.21146   0.58723   0.06706   0.00000  Uiso   1.00
H180   H     0.07647   0.44786   0.25050   0.00000  Uiso   1.00
H181   H     0.21435   0.58751   0.27812   0.00000  Uiso   1.00
H182   H     0.07014   0.45158   0.05523   0.00000  Uiso   1.00
N183   N     0.16665   0.49999   0.28573   0.00000  Uiso   1.00
N184   N     0.16668   0.50001   0.04760   0.00000  Uiso   1.00
O185   O     0.16666   0.43892   0.20487   0.00000  Uiso   1.00
O186   O     0.03831   0.63952   0.20217   0.00000  Uiso   1.00
O187   O     0.27677   0.55580   0.06413   0.00000  Uiso   1.00
O188   O     0.11430   0.40129   0.28432   0.00000  Uiso   1.00
O189   O     0.27717   0.55198   0.29344   0.00000  Uiso   1.00
O190   O     0.11413   0.40341   0.04344   0.00000  Uiso   1.00
O191   O     0.16667   0.56108   0.12846   0.00000  Uiso   1.00
O192   O     0.16666   0.43893   0.12843   0.00000  Uiso   1.00
O193   O     0.16667   0.56107   0.20490   0.00000  Uiso   1.00
O194   O     0.09058   0.50000   0.19595   0.00000  Uiso   1.00
O195   O     0.24275   0.50000   0.13739   0.00000  Uiso   1.00
O196   O     0.09058   0.50000   0.11950   0.00000  Uiso   1.00
O197   O     0.24275   0.50000   0.21383   0.00000  Uiso   1.00
O198   O     0.29504   0.36048   0.13115   0.00000  Uiso   1.00
Zn199  Zn    0.16667   0.49999   0.21771   0.00000  Uiso   1.00
Zn200  Zn    0.16667   0.50001   0.11563   0.00000  Uiso   1.00
C201   C     0.50068   0.42024   0.16682   0.00000  Uiso   1.00
C202   C     0.45681   0.35507   0.17758   0.00000  Uiso   1.00
C203   C     0.49851   0.62394   0.16624   0.00000  Uiso   1.00
C204   C     0.50150   0.37606   0.16709   0.00000  Uiso   1.00
C205   C     0.53057   0.52815   0.02758   0.00000  Uiso   1.00
C206   C     0.47112   0.47059   0.30592   0.00000  Uiso   1.00
C207   C     0.53063   0.52806   0.31302   0.00000  Uiso   1.00
C208   C     0.47086   0.47084   0.02060   0.00000  Uiso   1.00
C209   C     0.59307   0.37839   0.14595   0.00000  Uiso   1.00
C210   C     0.40692   0.62162   0.18733   0.00000  Uiso   1.00
C211   C     0.56279   0.55958   0.05563   0.00000  Uiso   1.00
C212   C     0.49933   0.57976   0.16652   0.00000  Uiso   1.00
C213   C     0.43984   0.43865   0.27758   0.00000  Uiso   1.00
C214   C     0.56398   0.55850   0.29259   0.00000  Uiso   1.00
C215   C     0.43736   0.44073   0.04148   0.00000  Uiso   1.00
C216   C     0.40063   0.49939   0.15495   0.00000  Uiso   1.00
C217   C     0.59937   0.50020   0.17841   0.00000  Uiso   1.00
C218   C     0.34592   0.49568   0.14909   0.00000  Uiso   1.00
C219   C     0.65411   0.50304   0.18447   0.00000  Uiso   1.00
C220   C     0.54532   0.35510   0.15596   0.00000  Uiso   1.00
C221   C     0.45468   0.64490   0.17734   0.00000  Uiso   1.00
C222   C     0.54320   0.64493   0.15573   0.00000  Uiso   1.00
F223   F     0.65496   0.48208   0.10787   0.00000  Uiso   1.00
F224   F     0.34513   0.51590   0.22597   0.00000  Uiso   1.00
F225   F     0.58499   0.62257   0.14699   0.00000  Uiso   1.00
F226   F     0.41502   0.37744   0.18631   0.00000  Uiso   1.00
H227   H     0.59731   0.41195   0.15159   0.00000  Uiso   1.00
H228   H     0.40266   0.58805   0.18165   0.00000  Uiso   1.00
H229   H     0.54480   0.58723   0.06706   0.00000  Uiso   1.00
H230   H     0.40981   0.44786   0.25050   0.00000  Uiso   1.00
H231   H     0.54768   0.58751   0.27812   0.00000  Uiso   1.00
H232   H     0.40347   0.45158   0.05523   0.00000  Uiso   1.00
N233   N     0.49999   0.49999   0.28573   0.00000  Uiso   1.00
N234   N     0.50001   0.50001   0.04760   0.00000  Uiso   1.00
O235   O     0.50000   0.43892   0.20487   0.00000  Uiso   1.00
O236   O     0.37164   0.63952   0.20217   0.00000  Uiso   1.00
O237   O     0.61011   0.55580   0.06413   0.00000  Uiso   1.00
O238   O     0.44764   0.40129   0.28432   0.00000  Uiso   1.00
O239   O     0.61051   0.55198   0.29344   0.00000  Uiso   1.00
O240   O     0.44746   0.40341   0.04344   0.00000  Uiso   1.00
O241   O     0.50000   0.56108   0.12846   0.00000  Uiso   1.00
O242   O     0.50000   0.43893   0.12843   0.00000  Uiso   1.00
O243   O     0.50000   0.56107   0.20490   0.00000  Uiso   1.00
O244   O     0.42392   0.50000   0.19595   0.00000  Uiso   1.00
O245   O     0.57608   0.50000   0.13739   0.00000  Uiso   1.00
O246   O     0.42392   0.50000   0.11950   0.00000  Uiso   1.00
O247   O     0.57608   0.50000   0.21383   0.00000  Uiso   1.00
O248   O     0.62837   0.36048   0.13115   0.00000  Uiso   1.00
Zn249  Zn    0.50000   0.49999   0.21771   0.00000  Uiso   1.00
Zn250  Zn    0.50000   0.50001   0.11563   0.00000  Uiso   1.00
C251   C     0.83401   0.42024   0.16682   0.00000  Uiso   1.00
C252   C     0.79014   0.35507   0.17758   0.00000  Uiso   1.00
C253   C     0.83185   0.62394   0.16624   0.00000  Uiso   1.00
C254   C     0.83483   0.37606   0.16709   0.00000  Uiso   1.00
C255   C     0.86390   0.52815   0.02758   0.00000  Uiso   1.00
C256   C     0.80446   0.47059   0.30592   0.00000  Uiso   1.00
C257   C     0.86397   0.52806   0.31302   0.00000  Uiso   1.00
C258   C     0.80420   0.47084   0.02060   0.00000  Uiso   1.00
C259   C     0.92641   0.37839   0.14595   0.00000  Uiso   1.00
C260   C     0.74025   0.62162   0.18733   0.00000  Uiso   1.00
C261   C     0.89612   0.55958   0.05563   0.00000  Uiso   1.00
C262   C     0.83266   0.57976   0.16652   0.00000  Uiso   1.00
C263   C     0.77317   0.43865   0.27758   0.00000  Uiso   1.00
C264   C     0.89732   0.55850   0.29259   0.00000  Uiso   1.00
C265   C     0.77069   0.44073   0.04148   0.00000  Uiso   1.00
C266   C     0.73396   0.49939   0.15495   0.00000  Uiso   1.00
C267   C     0.93270   0.50020   0.17841   0.00000  Uiso   1.00
C268   C     0.67926   0.49568   0.14909   0.00000  Uiso   1.00
C269   C     0.98744   0.50304   0.18447   0.00000  Uiso   1.00
C270   C     0.87865   0.35510   0.15596   0.00000  Uiso   1.00
C271   C     0.78802   0.64490   0.17734   0.00000  Uiso   1.00
C272   C     0.87653   0.64493   0.15573   0.00000  Uiso   1.00
F273   F     0.98829   0.48208   0.10787   0.00000  Uiso   1.00
F274   F     0.67846   0.51590   0.22597   0.00000  Uiso   1.00
F275   F     0.91832   0.62257   0.14699   0.00000  Uiso   1.00
F276   F     0.74835   0.37744   0.18631   0.00000  Uiso   1.00
H277   H     0.93064   0.41195   0.15159   0.00000  Uiso   1.00
H278   H     0.73599   0.58805   0.18165   0.00000  Uiso   1.00
H279   H     0.87813   0.58723   0.06706   0.00000  Uiso   1.00
H280   H     0.74314   0.44786   0.25050   0.00000  Uiso   1.00
H281   H     0.88102   0.58751   0.27812   0.00000  Uiso   1.00
H282   H     0.73681   0.45158   0.05523   0.00000  Uiso   1.00
N283   N     0.83332   0.49999   0.28573   0.00000  Uiso   1.00
N284   N     0.83335   0.50001   0.04760   0.00000  Uiso   1.00
O285   O     0.83333   0.43892   0.20487   0.00000  Uiso   1.00
O286   O     0.70497   0.63952   0.20217   0.00000  Uiso   1.00
O287   O     0.94344   0.55580   0.06413   0.00000  Uiso   1.00
O288   O     0.78097   0.40129   0.28432   0.00000  Uiso   1.00
O289   O     0.94384   0.55198   0.29344   0.00000  Uiso   1.00
O290   O     0.78080   0.40341   0.04344   0.00000  Uiso   1.00
O291   O     0.83334   0.56108   0.12846   0.00000  Uiso   1.00
O292   O     0.83333   0.43893   0.12843   0.00000  Uiso   1.00
O293   O     0.83334   0.56107   0.20490   0.00000  Uiso   1.00
O294   O     0.75725   0.50000   0.19595   0.00000  Uiso   1.00
O295   O     0.90942   0.50000   0.13739   0.00000  Uiso   1.00
O296   O     0.75725   0.50000   0.11950   0.00000  Uiso   1.00
O297   O     0.90942   0.50000   0.21383   0.00000  Uiso   1.00
O298   O     0.96170   0.36048   0.13115   0.00000  Uiso   1.00
Zn299  Zn    0.83333   0.49999   0.21771   0.00000  Uiso   1.00
Zn300  Zn    0.83333   0.50001   0.11563   0.00000  Uiso   1.00
C301   C     0.16735   0.75357   0.16682   0.00000  Uiso   1.00
C302   C     0.12347   0.68840   0.17758   0.00000  Uiso   1.00
C303   C     0.16518   0.95728   0.16624   0.00000  Uiso   1.00
C304   C     0.16816   0.70939   0.16709   0.00000  Uiso   1.00
C305   C     0.19723   0.86149   0.02758   0.00000  Uiso   1.00
C306   C     0.13779   0.80392   0.30592   0.00000  Uiso   1.00
C307   C     0.19730   0.86139   0.31302   0.00000  Uiso   1.00
C308   C     0.13753   0.80418   0.02060   0.00000  Uiso   1.00
C309   C     0.25974   0.71172   0.14595   0.00000  Uiso   1.00
C310   C     0.07358   0.95495   0.18733   0.00000  Uiso   1.00
C311   C     0.22945   0.89292   0.05563   0.00000  Uiso   1.00
C312   C     0.16599   0.91309   0.16652   0.00000  Uiso   1.00
C313   C     0.10651   0.77198   0.27758   0.00000  Uiso   1.00
C314   C     0.23065   0.89184   0.29259   0.00000  Uiso   1.00
C315   C     0.10403   0.77406   0.04148   0.00000  Uiso   1.00
C316   C     0.06729   0.83272   0.15495   0.00000  Uiso   1.00
C317   C     0.26603   0.83353   0.17841   0.00000  Uiso   1.00
C318   C     0.01259   0.82902   0.14909   0.00000  Uiso   1.00
C319   C     0.32078   0.83637   0.18447   0.00000  Uiso   1.00
C320   C     0.21198   0.68843   0.15596   0.00000  Uiso   1.00
C321   C     0.12135   0.97824   0.17734   0.00000  Uiso   1.00
C322   C     0.20987   0.97827   0.15573   0.00000  Uiso   1.00
F323   F     0.32162   0.81541   0.10787   0.00000  Uiso   1.00
F324   F     0.01179   0.84924   0.22597   0.00000  Uiso   1.00
F325   F     0.25166   0.95591   0.14699   0.00000  Uiso   1.00
F326   F     0.08169   0.71077   0.18631   0.00000  Uiso   1.00
H327   H     0.26397   0.74529   0.15159   0.00000  Uiso   1.00
H328   H     0.06932   0.92138   0.18165   0.00000  Uiso   1.00
H329   H     0.21146   0.92057   0.06706   0.00000  Uiso   1.00
H330   H     0.07647   0.78119   0.25050   0.00000  Uiso   1.00
H331   H     0.21435   0.92084   0.27812   0.00000  Uiso   1.00
H332   H     0.07014   0.78492   0.05523   0.00000  Uiso   1.00
N333   N     0.16665   0.83332   0.28573   0.00000  Uiso   1.00
N334   N     0.16668   0.83334   0.04760   0.00000  Uiso   1.00
O335   O     0.16666   0.77225   0.20487   0.00000  Uiso   1.00
O336   O     0.03831   0.97285   0.20217   0.00000  Uiso   1.00
O337   O     0.27677   0.88913   0.06413   0.00000  Uiso   1.00
O338   O     0.11430   0.73463   0.28432   0.00000  Uiso   1.00
O339   O     0.27717   0.88531   0.29344   0.00000  Uiso   1.00
O340   O     0.11413   0.73674   0.04344   0.00000  Uiso   1.00
O341   O     0.16667   0.89442   0.12846   0.00000  Uiso   1.00
O342   O     0.16666   0.77226   0.12843   0.00000  Uiso   1.00
O343   O     0.16667   0.89441   0.20490   0.00000  Uiso   1.00
O344   O     0.09058   0.83333   0.19595   0.00000  Uiso   1.00
O345   O     0.24275   0.83334   0.13739   0.00000  Uiso   1.00
O346   O     0.09058   0.83334   0.11950   0.00000  Uiso   1.00
O347   O     0.24275   0.83333   0.21383   0.00000  Uiso   1.00
O348   O     0.29504   0.69381   0.13115   0.00000  Uiso   1.00
Zn349  Zn    0.16667   0.83333   0.21771   0.00000  Uiso   1.00
Zn350  Zn    0.16667   0.83334   0.11563   0.00000  Uiso   1.00
C351   C     0.50068   0.75357   0.16682   0.00000  Uiso   1.00
C352   C     0.45681   0.68840   0.17758   0.00000  Uiso   1.00
C353   C     0.49851   0.95728   0.16624   0.00000  Uiso   1.00
C354   C     0.50150   0.70939   0.16709   0.00000  Uiso   1.00
C355   C     0.53057   0.86149   0.02758   0.00000  Uiso   1.00
C356   C     0.47112   0.80392   0.30592   0.00000  Uiso   1.00
C357   C     0.53063   0.86139   0.31302   0.00000  Uiso   1.00
C358   C     0.47086   0.80418   0.02060   0.00000  Uiso   1.00
C359   C     0.59307   0.71172   0.14595   0.00000  Uiso   1.00
C360   C     0.40692   0.95495   0.18733   0.00000  Uiso   1.00
C361   C     0.56279   0.89292   0.05563   0.00000  Uiso   1.00
C362   C     0.49933   0.91309   0.16652   0.00000  Uiso   1.00
C363   C     0.43984   0.77198   0.27758   0.00000  Uiso   1.00
C364   C     0.56398   0.89184   0.29259   0.00000  Uiso   1.00
C365   C     0.43736   0.77406   0.04148   0.00000  Uiso   1.00
C366   C     0.40063   0.83272   0.15495   0.00000  Uiso   1.00
C367   C     0.59937   0.83353   0.17841   0.00000  Uiso   1.00
C368   C     0.34592   0.82902   0.14909   0.00000  Uiso   1.00
C369   C     0.65411   0.83637   0.18447   0.00000  Uiso   1.00
C370   C     0.54532   0.68843   0.15596   0.00000  Uiso   1.00
C371   C     0.45468   0.97824   0.17734   0.00000  Uiso   1.00
C372   C     0.54320   0.97827   0.15573   0.00000  Uiso   1.00
F373   F     0.65496   0.81541   0.10787   0.00000  Uiso   1.00
F374   F     0.34513   0.84924   0.22597   0.00000  Uiso   1.00
F375   F     0.58499   0.95591   0.14699   0.00000  Uiso   1.00
F376   F     0.41502   0.71077   0.18631   0.00000  Uiso   1.00
H377   H     0.59731   0.74529   0.15159   0.00000  Uiso   1.00
H378   H     0.40266   0.92138   0.18165   0.00000  Uiso   1.00
H379   H     0.54480   0.92057   0.06706   0.00000  Uiso   1.00
H380   H     0.40981   0.78119   0.25050   0.00000  Uiso   1.00
H381   H     0.54768   0.92084   0.27812   0.00000  Uiso   1.00
H382   H     0.40347   0.78492   0.05523   0.00000  Uiso   1.00
N383   N     0.49999   0.83332   0.28573   0.00000  Uiso   1.00
N384   N     0.50001   0.83334   0.04760   0.00000  Uiso   1.00
O385   O     0.50000   0.77225   0.20487   0.00000  Uiso   1.00
O386   O     0.37164   0.97285   0.20217   0.00000  Uiso   1.00
O387   O     0.61011   0.88913   0.06413   0.00000  Uiso   1.00
O388   O     0.44764   0.73463   0.28432   0.00000  Uiso   1.00
O389   O     0.61051   0.88531   0.29344   0.00000  Uiso   1.00
O390   O     0.44746   0.73674   0.04344   0.00000  Uiso   1.00
O391   O     0.50000   0.89442   0.12846   0.00000  Uiso   1.00
O392   O     0.50000   0.77226   0.12843   0.00000  Uiso   1.00
O393   O     0.50000   0.89441   0.20490   0.00000  Uiso   1.00
O394   O     0.42392   0.83333   0.19595   0.00000  Uiso   1.00
O395   O     0.57608   0.83334   0.13739   0.00000  Uiso   1.00
O396   O     0.42392   0.83334   0.11950   0.00000  Uiso   1.00
O397   O     0.57608   0.83333   0.21383   0.00000  Uiso   1.00
O398   O     0.62837   0.69381   0.13115   0.00000  Uiso   1.00
Zn399  Zn    0.50000   0.83333   0.21771   0.00000  Uiso   1.00
Zn400  Zn    0.50000   0.83334   0.11563   0.00000  Uiso   1.00
C401   C     0.83401   0.75357   0.16682   0.00000  Uiso   1.00
C402   C     0.79014   0.68840   0.17758   0.00000  Uiso   1.00
C403   C     0.83185   0.95728   0.16624   0.00000  Uiso   1.00
C404   C     0.83483   0.70939   0.16709   0.00000  Uiso   1.00
C405   C     0.86390   0.86149   0.02758   0.00000  Uiso   1.00
C406   C     0.80446   0.80392   0.30592   0.00000  Uiso   1.00
C407   C     0.86397   0.86139   0.31302   0.00000  Uiso   1.00
C408   C     0.80420   0.80418   0.02060   0.00000  Uiso   1.00
C409   C     0.92641   0.71172   0.14595   0.00000  Uiso   1.00
C410   C     0.74025   0.95495   0.18733   0.00000  Uiso   1.00
C411   C     0.89612   0.89292   0.05563   0.00000  Uiso   1.00
C412   C     0.83266   0.91309   0.16652   0.00000  Uiso   1.00
C413   C     0.77317   0.77198   0.27758   0.00000  Uiso   1.00
C414   C     0.89732   0.89184   0.29259   0.00000  Uiso   1.00
C415   C     0.77069   0.77406   0.04148   0.00000  Uiso   1.00
C416   C     0.73396   0.83272   0.15495   0.00000  Uiso   1.00
C417   C     0.93270   0.83353   0.17841   0.00000  Uiso   1.00
C418   C     0.67926   0.82902   0.14909   0.00000  Uiso   1.00
C419   C     0.98744   0.83637   0.18447   0.00000  Uiso   1.00
C420   C     0.87865   0.68843   0.15596   0.00000  Uiso   1.00
C421   C     0.78802   0.97824   0.17734   0.00000  Uiso   1.00
C422   C     0.87653   0.97827   0.15573   0.00000  Uiso   1.00
F423   F     0.98829   0.81541   0.10787   0.00000  Uiso   1.00
F424   F     0.67846   0.84924   0.22597   0.00000  Uiso   1.00
F425   F     0.91832   0.95591   0.14699   0.00000  Uiso   1.00
F426   F     0.74835   0.71077   0.18631   0.00000  Uiso   1.00
H427   H     0.93064   0.74529   0.15159   0.00000  Uiso   1.00
H428   H     0.73599   0.92138   0.18165   0.00000  Uiso   1.00
H429   H     0.87813   0.92057   0.06706   0.00000  Uiso   1.00
H430   H     0.74314   0.78119   0.25050   0.00000  Uiso   1.00
H431   H     0.88102   0.92084   0.27812   0.00000  Uiso   1.00
H432   H     0.73681   0.78492   0.05523   0.00000  Uiso   1.00
N433   N     0.83332   0.83332   0.28573   0.00000  Uiso   1.00
N434   N     0.83335   0.83334   0.04760   0.00000  Uiso   1.00
O435   O     0.83333   0.77225   0.20487   0.00000  Uiso   1.00
O436   O     0.70497   0.97285   0.20217   0.00000  Uiso   1.00
O437   O     0.94344   0.88913   0.06413   0.00000  Uiso   1.00
O438   O     0.78097   0.73463   0.28432   0.00000  Uiso   1.00
O439   O     0.94384   0.88531   0.29344   0.00000  Uiso   1.00
O440   O     0.78080   0.73674   0.04344   0.00000  Uiso   1.00
O441   O     0.83334   0.89442   0.12846   0.00000  Uiso   1.00
O442   O     0.83333   0.77226   0.12843   0.00000  Uiso   1.00
O443   O     0.83334   0.89441   0.20490   0.00000  Uiso   1.00
O444   O     0.75725   0.83333   0.19595   0.00000  Uiso   1.00
O445   O     0.90942   0.83334   0.13739   0.00000  Uiso   1.00
O446   O     0.75725   0.83334   0.11950   0.00000  Uiso   1.00
O447   O     0.90942   0.83333   0.21383   0.00000  Uiso   1.00
O448   O     0.96170   0.69381   0.13115   0.00000  Uiso   1.00
Zn449  Zn    0.83333   0.83333   0.21771   0.00000  Uiso   1.00
Zn450  Zn    0.83333   0.83334   0.11563   0.00000  Uiso   1.00
C451   C     0.16735   0.08691   0.50015   0.00000  Uiso   1.00
C452   C     0.12347   0.02174   0.51091   0.00000  Uiso   1.00
C453   C     0.16518   0.29061   0.49957   0.00000  Uiso   1.00
C454   C     0.16816   0.04272   0.50042   0.00000  Uiso   1.00
C455   C     0.19723   0.19482   0.36092   0.00000  Uiso   1.00
C456   C     0.13779   0.13725   0.63925   0.00000  Uiso   1.00
C457   C     0.19730   0.19472   0.64635   0.00000  Uiso   1.00
C458   C     0.13753   0.13751   0.35394   0.00000  Uiso   1.00
C459   C     0.25974   0.04505   0.47929   0.00000  Uiso   1.00
C460   C     0.07358   0.28828   0.52067   0.00000  Uiso   1.00
C461   C     0.22945   0.22625   0.38896   0.00000  Uiso   1.00
C462   C     0.16599   0.24643   0.49985   0.00000  Uiso   1.00
C463   C     0.10651   0.10531   0.61092   0.00000  Uiso   1.00
C464   C     0.23065   0.22517   0.62592   0.00000  Uiso   1.00
C465   C     0.10403   0.10740   0.37481   0.00000  Uiso   1.00
C466   C     0.06729   0.16605   0.48828   0.00000  Uiso   1.00
C467   C     0.26603   0.16686   0.51175   0.00000  Uiso   1.00
C468   C     0.01259   0.16235   0.48242   0.00000  Uiso   1.00
C469   C     0.32078   0.16971   0.51780   0.00000  Uiso   1.00
C470   C     0.21198   0.02176   0.48930   0.00000  Uiso   1.00
C471   C     0.12135   0.31157   0.51068   0.00000  Uiso   1.00
C472   C     0.20987   0.31160   0.48906   0.00000  Uiso   1.00
F473   F     0.32162   0.14874   0.44120   0.00000  Uiso   1.00
F474   F     0.01179   0.18257   0.55930   0.00000  Uiso   1.00
F475   F     0.25166   0.28924   0.48032   0.00000  Uiso   1.00
F476   F     0.08169   0.04410   0.51964   0.00000  Uiso   1.00
H477   H     0.26397   0.07862   0.48492   0.00000  Uiso   1.00
H478   H     0.06932   0.25472   0.51499   0.00000  Uiso   1.00
H479   H     0.21146   0.25390   0.40039   0.00000  Uiso   1.00
H480   H     0.07647   0.11453   0.58384   0.00000  Uiso   1.00
H481   H     0.21435   0.25418   0.61145   0.00000  Uiso   1.00
H482   H     0.07014   0.11825   0.38856   0.00000  Uiso   1.00
N483   N     0.16665   0.16666   0.61907   0.00000  Uiso   1.00
N484   N     0.16668   0.16668   0.38093   0.00000  Uiso   1.00
O485   O     0.16666   0.10558   0.53821   0.00000  Uiso   1.00
O486   O     0.03831   0.30619   0.53551   0.00000  Uiso   1.00
O487   O     0.27677   0.22247   0.39747   0.00000  Uiso   1.00
O488   O     0.11430   0.06796   0.61765   0.00000  Uiso   1.00
O489   O     0.27717   0.21864   0.62677   0.00000  Uiso   1.00
O490   O     0.11413   0.07007   0.37678   0.00000  Uiso   1.00
O491   O     0.16667   0.22775   0.46179   0.00000  Uiso   1.00
O492   O     0.16666   0.10559   0.46176   0.00000  Uiso   1.00
O493   O     0.16667   0.22774   0.53824   0.00000  Uiso   1.00
O494   O     0.09058   0.16666   0.52928   0.00000  Uiso   1.00
O495   O     0.24275   0.16667   0.47072   0.00000  Uiso   1.00
O496   O     0.09058   0.16667   0.45284   0.00000  Uiso   1.00
O497   O     0.24275   0.16666   0.54716   0.00000  Uiso   1.00
O498   O     0.29504   0.02714   0.46448   0.00000  Uiso   1.00
Zn499  Zn    0.16667   0.16666   0.55104   0.00000  Uiso   1.00
Zn500  Zn    0.16667   0.16667   0.44896   0.00000  Uiso   1.00
C501   C     0.50068   0.08691   0.50015   0.00000  Uiso   1.00
C502   C     0.45681   0.02174   0.51091   0.00000  Uiso   1.00
C503   C     0.49851   0.29061   0.49957   0.00000  Uiso   1.00
C504   C     0.50150   0.04272   0.50042   0.00000  Uiso   1.00
C505   C     0.53057   0.19482   0.36092   0.00000  Uiso   1.00
C506   C     0.47112   0.13725   0.63925   0.00000  Uiso   1.00
C507   C     0.53063   0.19472   0.64635   0.00000  Uiso   1.00
C508   C     0.47086   0.13751   0.35394   0.00000  Uiso   1.00
C509   C     0.59307   0.04505   0.47929   0.00000  Uiso   1.00
C510   C     0.40692   0.28828   0.52067   0.00000  Uiso   1.00
C511   C     0.56279   0.22625   0.38896   0.00000  Uiso   1.00
C512   C     0.49933   0.24643   0.49985   0.00000  Uiso   1.00
C513   C     0.43984   0.10531   0.61092   0.00000  Uiso   1.00
C514   C     0.56398   0.22517   0.62592   0.00000  Uiso   1.00
C515   C     0.43736   0.10740   0.37481   0.00000  Uiso   1.00
C516   C     0.40063   0.16605   0.48828   0.00000  Uiso   1.00
C517   C     0.59937   0.16686   0.51175   0.00000  Uiso   1.00
C518   C     0.34592   0.16235   0.48242   0.00000  Uiso   1.00
C519   C     0.65411   0.16971   0.51780   0.00000  Uiso   1.00
C520   C     0.54532   0.02176   0.48930   0.00000  Uiso   1.00
C521   C     0.45468   0.31157   0.51068   0.00000  Uiso   1.00
C522   C     0.54320   0.31160   0.48906   0.00000  Uiso   1.00
F523   F     0.65496   0.14874   0.44120   0.00000  Uiso   1.00
F524   F     0.34513   0.18257   0.55930   0.00000  Uiso   1.00
F525   F     0.58499   0.28924   0.48032   0.00000  Uiso   1.00
F526   F     0.41502   0.04410   0.51964   0.00000  Uiso   1.00
H527   H     0.59731   0.07862   0.48492   0.00000  Uiso   1.00
H528   H     0.40266   0.25472   0.51499   0.00000  Uiso   1.00
H529   H     0.54480   0.25390   0.40039   0.00000  Uiso   1.00
H530   H     0.40981   0.11453   0.58384   0.00000  Uiso   1.00
H531   H     0.54768   0.25418   0.61145   0.00000  Uiso   1.00
H532   H     0.40347   0.11825   0.38856   0.00000  Uiso   1.00
N533   N     0.49999   0.16666   0.61907   0.00000  Uiso   1.00
N534   N     0.50001   0.16668   0.38093   0.00000  Uiso   1.00
O535   O     0.50000   0.10558   0.53821   0.00000  Uiso   1.00
O536   O     0.37164   0.30619   0.53551   0.00000  Uiso   1.00
O537   O     0.61011   0.22247   0.39747   0.00000  Uiso   1.00
O538   O     0.44764   0.06796   0.61765   0.00000  Uiso   1.00
O539   O     0.61051   0.21864   0.62677   0.00000  Uiso   1.00
O540   O     0.44746   0.07007   0.37678   0.00000  Uiso   1.00
O541   O     0.50000   0.22775   0.46179   0.00000  Uiso   1.00
O542   O     0.50000   0.10559   0.46176   0.00000  Uiso   1.00
O543   O     0.50000   0.22774   0.53824   0.00000  Uiso   1.00
O544   O     0.42392   0.16666   0.52928   0.00000  Uiso   1.00
O545   O     0.57608   0.16667   0.47072   0.00000  Uiso   1.00
O546   O     0.42392   0.16667   0.45284   0.00000  Uiso   1.00
O547   O     0.57608   0.16666   0.54716   0.00000  Uiso   1.00
O548   O     0.62837   0.02714   0.46448   0.00000  Uiso   1.00
Zn549  Zn    0.50000   0.16666   0.55104   0.00000  Uiso   1.00
Zn550  Zn    0.50000   0.16667   0.44896   0.00000  Uiso   1.00
C551   C     0.83401   0.08691   0.50015   0.00000  Uiso   1.00
C552   C     0.79014   0.02174   0.51091   0.00000  Uiso   1.00
C553   C     0.83185   0.29061   0.49957   0.00000  Uiso   1.00
C554   C     0.83483   0.04272   0.50042   0.00000  Uiso   1.00
C555   C     0.86390   0.19482   0.36092   0.00000  Uiso   1.00
C556   C     0.80446   0.13725   0.63925   0.00000  Uiso   1.00
C557   C     0.86397   0.19472   0.64635   0.00000  Uiso   1.00
C558   C     0.80420   0.13751   0.35394   0.00000  Uiso   1.00
C559   C     0.92641   0.04505   0.47929   0.00000  Uiso   1.00
C560   C     0.74025   0.28828   0.52067   0.00000  Uiso   1.00
C561   C     0.89612   0.22625   0.38896   0.00000  Uiso   1.00
C562   C     0.83266   0.24643   0.49985   0.00000  Uiso   1.00
C563   C     0.77317   0.10531   0.61092   0.00000  Uiso   1.00
C564   C     0.89732   0.22517   0.62592   0.00000  Uiso   1.00
C565   C     0.77069   0.10740   0.37481   0.00000  Uiso   1.00
C566   C     0.73396   0.16605   0.48828   0.00000  Uiso   1.00
C567   C     0.93270   0.16686   0.51175   0.00000  Uiso   1.00
C568   C     0.67926   0.16235   0.48242   0.00000  Uiso   1.00
C569   C     0.98744   0.16971   0.51780   0.00000  Uiso   1.00
C570   C     0.87865   0.02176   0.48930   0.00000  Uiso   1.00
C571   C     0.78802   0.31157   0.51068   0.00000  Uiso   1.00
C572   C     0.87653   0.31160   0.48906   0.00000  Uiso   1.00
F573   F     0.98829   0.14874   0.44120   0.00000  Uiso   1.00
F574   F     0.67846   0.18257   0.55930   0.00000  Uiso   1.00
F575   F     0.91832   0.28924   0.48032   0.00000  Uiso   1.00
F576   F     0.74835   0.04410   0.51964   0.00000  Uiso   1.00
H577   H     0.93064   0.07862   0.48492   0.00000  Uiso   1.00
H578   H     0.73599   0.25472   0.51499   0.00000  Uiso   1.00
H579   H     0.87813   0.25390   0.40039   0.00000  Uiso   1.00
H580   H     0.74314   0.11453   0.58384   0.00000  Uiso   1.00
H581   H     0.88102   0.25418   0.61145   0.00000  Uiso   1.00
H582   H     0.73681   0.11825   0.38856   0.00000  Uiso   1.00
N583   N     0.83332   0.16666   0.61907   0.00000  Uiso   1.00
N584   N     0.83335   0.16668   0.38093   0.00000  Uiso   1.00
O585   O     0.83333   0.10558   0.53821   0.00000  Uiso   1.00
O586   O     0.70497   0.30619   0.53551   0.00000  Uiso   1.00
O587   O     0.94344   0.22247   0.39747   0.00000  Uiso   1.00
O588   O     0.78097   0.06796   0.61765   0.00000  Uiso   1.00
O589   O     0.94384   0.21864   0.62677   0.00000  Uiso   1.00
O590   O     0.78080   0.07007   0.37678   0.00000  Uiso   1.00
O591   O     0.83334   0.22775   0.46179   0.00000  Uiso   1.00
O592   O     0.83333   0.10559   0.46176   0.00000  Uiso   1.00
O593   O     0.83334   0.22774   0.53824   0.00000  Uiso   1.00
O594   O     0.75725   0.16666   0.52928   0.00000  Uiso   1.00
O595   O     0.90942   0.16667   0.47072   0.00000  Uiso   1.00
O596   O     0.75725   0.16667   0.45284   0.00000  Uiso   1.00
O597   O     0.90942   0.16666   0.54716   0.00000  Uiso   1.00
O598   O     0.96170   0.02714   0.46448   0.00000  Uiso   1.00
Zn599  Zn    0.83333   0.16666   0.55104   0.00000  Uiso   1.00
Zn600  Zn    0.83333   0.16667   0.44896   0.00000  Uiso   1.00
C601   C     0.16735   0.42024   0.50015   0.00000  Uiso   1.00
C602   C     0.12347   0.35507   0.51091   0.00000  Uiso   1.00
C603   C     0.16518   0.62394   0.49957   0.00000  Uiso   1.00
C604   C     0.16816   0.37606   0.50042   0.00000  Uiso   1.00
C605   C     0.19723   0.52815   0.36092   0.00000  Uiso   1.00
C606   C     0.13779   0.47059   0.63925   0.00000  Uiso   1.00
C607   C     0.19730   0.52806   0.64635   0.00000  Uiso   1.00
C608   C     0.13753   0.47084   0.35394   0.00000  Uiso   1.00
C609   C     0.25974   0.37839   0.47929   0.00000  Uiso   1.00
C610   C     0.07358   0.62162   0.52067   0.00000  Uiso   1.00
C611   C     0.22945   0.55958   0.38896   0.00000  Uiso   1.00
C612   C     0.16599   0.57976   0.49985   0.00000  Uiso   1.00
C613   C     0.10651   0.43865   0.61092   0.00000  Uiso   1.00
C614   C     0.23065   0.55850   0.62592   0.00000  Uiso   1.00
C615   C     0.10403   0.44073   0.37481   0.00000  Uiso   1.00
C616   C     0.06729   0.49939   0.48828   0.00000  Uiso   1.00
C617   C     0.26603   0.50020   0.51175   0.00000  Uiso   1.00
C618   C     0.01259   0.49568   0.48242   0.00000  Uiso   1.00
C619   C     0.32078   0.50304   0.51780   0.00000  Uiso   1.00
C620   C     0.21198   0.35510   0.48930   0.00000  Uiso   1.00
C621   C     0.12135   0.64490   0.51068   0.00000  Uiso   1.00
C622   C     0.20987   0.64493   0.48906   0.00000  Uiso   1.00
F623   F     0.32162   0.48208   0.44120   0.00000  Uiso   1.00
F624   F     0.01179   0.51590   0.55930   0.00000  Uiso   1.00
F625   F     0.25166   0.62257   0.48032   0.00000  Uiso   1.00
F626   F     0.08169   0.37744   0.51964   0.00000  Uiso   1.00
H627   H     0.26397   0.41195   0.48492   0.00000  Uiso   1.00
H628   H     0.06932   0.58805   0.51499   0.00000  Uiso   1.00
H629   H     0.21146   0.58723   0.40039   0.00000  Uiso   1.00
H630   H     0.07647   0.44786   0.58384   0.00000  Uiso   1.00
H631   H     0.21435   0.58751   0.61145   0.00000  Uiso   1.00
H632   H     0.07014   0.45158   0.38856   0.00000  Uiso   1.00
N633   N     0.16665   0.49999   0.61907   0.00000  Uiso   1.00
N634   N     0.16668   0.50001   0.38093   0.00000  Uiso   1.00
O635   O     0.16666   0.43892   0.53821   0.00000  Uiso   1.00
O636   O     0.03831   0.63952   0.53551   0.00000  Uiso   1.00
O637   O     0.27677   0.55580   0.39747   0.00000  Uiso   1.00
O638   O     0.11430   0.40129   0.61765   0.00000  Uiso   1.00
O639   O     0.27717   0.55198   0.62677   0.00000  Uiso   1.00
O640   O     0.11413   0.40341   0.37678   0.00000  Uiso   1.00
O641   O     0.16667   0.56108   0.46179   0.00000  Uiso   1.00
O642   O     0.16666   0.43893   0.46176   0.00000  Uiso   1.00
O643   O     0.16667   0.56107   0.53824   0.00000  Uiso   1.00
O644   O     0.09058   0.50000   0.52928   0.00000  Uiso   1.00
O645   O     0.24275   0.50000   0.47072   0.00000  Uiso   1.00
O646   O     0.09058   0.50000   0.45284   0.00000  Uiso   1.00
O647   O     0.24275   0.50000   0.54716   0.00000  Uiso   1.00
O648   O     0.29504   0.36048   0.46448   0.00000  Uiso   1.00
Zn649  Zn    0.16667   0.49999   0.55104   0.00000  Uiso   1.00
Zn650  Zn    0.16667   0.50001   0.44896   0.00000  Uiso   1.00
C651   C     0.50068   0.42024   0.50015   0.00000  Uiso   1.00
C652   C     0.45681   0.35507   0.51091   0.00000  Uiso   1.00
C653   C     0.49851   0.62394   0.49957   0.00000  Uiso   1.00
C654   C     0.50150   0.37606   0.50042   0.00000  Uiso   1.00
C655   C     0.53057   0.52815   0.36092   0.00000  Uiso   1.00
C656   C     0.47112   0.47059   0.63925   0.00000  Uiso   1.00
C657   C     0.53063   0.52806   0.64635   0.00000  Uiso   1.00
C658   C     0.47086   0.47084   0.35394   0.00000  Uiso   1.00
C659   C     0.59307   0.37839   0.47929   0.00000  Uiso   1.00
C660   C     0.40692   0.62162   0.52067   0.00000  Uiso   1.00
C661   C     0.56279   0.55958   0.38896   0.00000  Uiso   1.00
C662   C     0.49933   0.57976   0.49985   0.00000  Uiso   1.00
C663   C     0.43984   0.43865   0.61092   0.00000  Uiso   1.00
C664   C     0.56398   0.55850   0.62592   0.00000  Uiso   1.00
C665   C     0.43736   0.44073   0.37481   0.00000  Uiso   1.00
C666   C     0.40063   0.49939   0.48828   0.00000  Uiso   1.00
C667   C     0.59937   0.50020   0.51175   0.00000  Uiso   1.00
C668   C     0.34592   0.49568   0.48242   0.00000  Uiso   1.00
C669   C     0.65411   0.50304   0.51780   0.00000  Uiso   1.00
C670   C     0.54532   0.35510   0.48930   0.00000  Uiso   1.00
C671   C     0.45468   0.64490   0.51068   0.00000  Uiso   1.00
C672   C     0.54320   0.64493   0.48906   0.00000  Uiso   1.00
F673   F     0.65496   0.48208   0.44120   0.00000  Uiso   1.00
F674   F     0.34513   0.51590   0.55930   0.00000  Uiso   1.00
F675   F     0.58499   0.62257   0.48032   0.00000  Uiso   1.00
F676   F     0.41502   0.37744   0.51964   0.00000  Uiso   1.00
H677   H     0.59731   0.41195   0.48492   0.00000  Uiso   1.00
H678   H     0.40266   0.58805   0.51499   0.00000  Uiso   1.00
H679   H     0.54480   0.58723   0.40039   0.00000  Uiso   1.00
H680   H     0.40981   0.44786   0.58384   0.00000  Uiso   1.00
H681   H     0.54768   0.58751   0.61145   0.00000  Uiso   1.00
H682   H     0.40347   0.45158   0.38856   0.00000  Uiso   1.00
N683   N     0.49999   0.49999   0.61907   0.00000  Uiso   1.00
N684   N     0.50001   0.50001   0.38093   0.00000  Uiso   1.00
O685   O     0.50000   0.43892   0.53821   0.00000  Uiso   1.00
O686   O     0.37164   0.63952   0.53551   0.00000  Uiso   1.00
O687   O     0.61011   0.55580   0.39747   0.00000  Uiso   1.00
O688   O     0.44764   0.40129   0.61765   0.00000  Uiso   1.00
O689   O     0.61051   0.55198   0.62677   0.00000  Uiso   1.00
O690   O     0.44746   0.40341   0.37678   0.00000  Uiso   1.00
O691   O     0.50000   0.56108   0.46179   0.00000  Uiso   1.00
O692   O     0.50000   0.43893   0.46176   0.00000  Uiso   1.00
O693   O     0.50000   0.56107   0.53824   0.00000  Uiso   1.00
O694   O     0.42392   0.50000   0.52928   0.00000  Uiso   1.00
O695   O     0.57608   0.50000   0.47072   0.00000  Uiso   1.00
O696   O     0.42392   0.50000   0.45284   0.00000  Uiso   1.00
O697   O     0.57608   0.50000   0.54716   0.00000  Uiso   1.00
O698   O     0.62837   0.36048   0.46448   0.00000  Uiso   1.00
Zn699  Zn    0.50000   0.49999   0.55104   0.00000  Uiso   1.00
Zn700  Zn    0.50000   0.50001   0.44896   0.00000  Uiso   1.00
C701   C     0.83401   0.42024   0.50015   0.00000  Uiso   1.00
C702   C     0.79014   0.35507   0.51091   0.00000  Uiso   1.00
C703   C     0.83185   0.62394   0.49957   0.00000  Uiso   1.00
C704   C     0.83483   0.37606   0.50042   0.00000  Uiso   1.00
C705   C     0.86390   0.52815   0.36092   0.00000  Uiso   1.00
C706   C     0.80446   0.47059   0.63925   0.00000  Uiso   1.00
C707   C     0.86397   0.52806   0.64635   0.00000  Uiso   1.00
C708   C     0.80420   0.47084   0.35394   0.00000  Uiso   1.00
C709   C     0.92641   0.37839   0.47929   0.00000  Uiso   1.00
C710   C     0.74025   0.62162   0.52067   0.00000  Uiso   1.00
C711   C     0.89612   0.55958   0.38896   0.00000  Uiso   1.00
C712   C     0.83266   0.57976   0.49985   0.00000  Uiso   1.00
C713   C     0.77317   0.43865   0.61092   0.00000  Uiso   1.00
C714   C     0.89732   0.55850   0.62592   0.00000  Uiso   1.00
C715   C     0.77069   0.44073   0.37481   0.00000  Uiso   1.00
C716   C     0.73396   0.49939   0.48828   0.00000  Uiso   1.00
C717   C     0.93270   0.50020   0.51175   0.00000  Uiso   1.00
C718   C     0.67926   0.49568   0.48242   0.00000  Uiso   1.00
C719   C     0.98744   0.50304   0.51780   0.00000  Uiso   1.00
C720   C     0.87865   0.35510   0.48930   0.00000  Uiso   1.00
C721   C     0.78802   0.64490   0.51068   0.00000  Uiso   1.00
C722   C     0.87653   0.64493   0.48906   0.00000  Uiso   1.00
F723   F     0.98829   0.48208   0.44120   0.00000  Uiso   1.00
F724   F     0.67846   0.51590   0.55930   0.00000  Uiso   1.00
F725   F     0.91832   0.62257   0.48032   0.00000  Uiso   1.00
F726   F     0.74835   0.37744   0.51964   0.00000  Uiso   1.00
H727   H     0.93064   0.41195   0.48492   0.00000  Uiso   1.00
H728   H     0.73599   0.58805   0.51499   0.00000  Uiso   1.00
H729   H     0.87813   0.58723   0.40039   0.00000  Uiso   1.00
H730   H     0.74314   0.44786   0.58384   0.00000  Uiso   1.00
H731   H     0.88102   0.58751   0.61145   0.00000  Uiso   1.00
H732   H     0.73681   0.45158   0.38856   0.00000  Uiso   1.00
N733   N     0.83332   0.49999   0.61907   0.00000  Uiso   1.00
N734   N     0.83335   0.50001   0.38093   0.00000  Uiso   1.00
O735   O     0.83333   0.43892   0.53821   0.00000  Uiso   1.00
O736   O     0.70497   0.63952   0.53551   0.00000  Uiso   1.00
O737   O     0.94344   0.55580   0.39747   0.00000  Uiso   1.00
O738   O     0.78097   0.40129   0.61765   0.00000  Uiso   1.00
O739   O     0.94384   0.55198   0.62677   0.00000  Uiso   1.00
O740   O     0.78080   0.40341   0.37678   0.00000  Uiso   1.00
O741   O     0.83334   0.56108   0.46179   0.00000  Uiso   1.00
O742   O     0.83333   0.43893   0.46176   0.00000  Uiso   1.00
O743   O     0.83334   0.56107   0.53824   0.00000  Uiso   1.00
O744   O     0.75725   0.50000   0.52928   0.00000  Uiso   1.00
O745   O     0.90942   0.50000   0.47072   0.00000  Uiso   1.00
O746   O     0.75725   0.50000   0.45284   0.00000  Uiso   1.00
O747   O     0.90942   0.50000   0.54716   0.00000  Uiso   1.00
O748   O     0.96170   0.36048   0.46448   0.00000  Uiso   1.00
Zn749  Zn    0.83333   0.49999   0.55104   0.00000  Uiso   1.00
Zn750  Zn    0.83333   0.50001   0.44896   0.00000  Uiso   1.00
C751   C     0.16735   0.75357   0.50015   0.00000  Uiso   1.00
C752   C     0.12347   0.68840   0.51091   0.00000  Uiso   1.00
C753   C     0.16518   0.95728   0.49957   0.00000  Uiso   1.00
C754   C     0.16816   0.70939   0.50042   0.00000  Uiso   1.00
C755   C     0.19723   0.86149   0.36092   0.00000  Uiso   1.00
C756   C     0.13779   0.80392   0.63925   0.00000  Uiso   1.00
C757   C     0.19730   0.86139   0.64635   0.00000  Uiso   1.00
C758   C     0.13753   0.80418   0.35394   0.00000  Uiso   1.00
C759   C     0.25974   0.71172   0.47929   0.00000  Uiso   1.00
C760   C     0.07358   0.95495   0.52067   0.00000  Uiso   1.00
C761   C     0.22945   0.89292   0.38896   0.00000  Uiso   1.00
C762   C     0.16599   0.91309   0.49985   0.00000  Uiso   1.00
C763   C     0.10651   0.77198   0.61092   0.00000  Uiso   1.00
C764   C     0.23065   0.89184   0.62592   0.00000  Uiso   1.00
C765   C     0.10403   0.77406   0.37481   0.00000  Uiso   1.00
C766   C     0.06729   0.83272   0.48828   0.00000  Uiso   1.00
C767   C     0.26603   0.83353   0.51175   0.00000  Uiso   1.00
C768   C     0.01259   0.82902   0.48242   0.00000  Uiso   1.00
C769   C     0.32078   0.83637   0.51780   0.00000  Uiso   1.00
C770   C     0.21198   0.68843   0.48930   0.00000  Uiso   1.00
C771   C     0.12135   0.97824   0.51068   0.00000  Uiso   1.00
C772   C     0.20987   0.97827   0.48906   0.00000  Uiso   1.00
F773   F     0.32162   0.81541   0.44120   0.00000  Uiso   1.00
F774   F     0.01179   0.84924   0.55930   0.00000  Uiso   1.00
F775   F     0.25166   0.95591   0.48032   0.00000  Uiso   1.00
F776   F     0.08169   0.71077   0.51964   0.00000  Uiso   1.00
H777   H     0.26397   0.74529   0.48492   0.00000  Uiso   1.00
H778   H     0.06932   0.92138   0.51499   0.00000  Uiso   1.00
H779   H     0.21146   0.92057   0.40039   0.00000  Uiso   1.00
H780   H     0.07647   0.78119   0.58384   0.00000  Uiso   1.00
H781   H     0.21435   0.92084   0.61145   0.00000  Uiso   1.00
H782   H     0.07014   0.78492   0.38856   0.00000  Uiso   1.00
N783   N     0.16665   0.83332   0.61907   0.00000  Uiso   1.00
N784   N     0.16668   0.83334   0.38093   0.00000  Uiso   1.00
O785   O     0.16666   0.77225   0.53821   0.00000  Uiso   1.00
O786   O     0.03831   0.97285   0.53551   0.00000  Uiso   1.00
O787   O     0.27677   0.88913   0.39747   0.00000  Uiso   1.00
O788   O     0.11430   0.73463   0.61765   0.00000  Uiso   1.00
O789   O     0.27717   0.88531   0.62677   0.00000  Uiso   1.00
O790   O     0.11413   0.73674   0.37678   0.00000  Uiso   1.00
O791   O     0.16667   0.89442   0.46179   0.00000  Uiso   1.00
O792   O     0.16666   0.77226   0.46176   0.00000  Uiso   1.00
O793   O     0.16667   0.89441   0.53824   0.00000  Uiso   1.00
O794   O     0.09058   0.83333   0.52928   0.00000  Uiso   1.00
O795   O     0.24275   0.83334   0.47072   0.00000  Uiso   1.00
O796   O     0.09058   0.83334   0.45284   0.00000  Uiso   1.00
O797   O     0.24275   0.83333   0.54716   0.00000  Uiso   1.00
O798   O     0.29504   0.69381   0.46448   0.00000  Uiso   1.00
Zn799  Zn    0.16667   0.83333   0.55104   0.00000  Uiso   1.00
Zn800  Zn    0.16667   0.83334   0.44896   0.00000  Uiso   1.00
C801   C     0.50068   0.75357   0.50015   0.00000  Uiso   1.00
C802   C     0.45681   0.68840   0.51091   0.00000  Uiso   1.00
C803   C     0.49851   0.95728   0.49957   0.00000  Uiso   1.00
C804   C     0.50150   0.70939   0.50042   0.00000  Uiso   1.00
C805   C     0.53057   0.86149   0.36092   0.00000  Uiso   1.00
C806   C     0.47112   0.80392   0.63925   0.00000  Uiso   1.00
C807   C     0.53063   0.86139   0.64635   0.00000  Uiso   1.00
C808   C     0.47086   0.80418   0.35394   0.00000  Uiso   1.00
C809   C     0.59307   0.71172   0.47929   0.00000  Uiso   1.00
C810   C     0.40692   0.95495   0.52067   0.00000  Uiso   1.00
C811   C     0.56279   0.89292   0.38896   0.00000  Uiso   1.00
C812   C     0.49933   0.91309   0.49985   0.00000  Uiso   1.00
C813   C     0.43984   0.77198   0.61092   0.00000  Uiso   1.00
C814   C     0.56398   0.89184   0.62592   0.00000  Uiso   1.00
C815   C     0.43736   0.77406   0.37481   0.00000  Uiso   1.00
C816   C     0.40063   0.83272   0.48828   0.00000  Uiso   1.00
C817   C     0.59937   0.83353   0.51175   0.00000  Uiso   1.00
C818   C     0.34592   0.82902   0.48242   0.00000  Uiso   1.00
C819   C     0.65411   0.83637   0.51780   0.00000  Uiso   1.00
C820   C     0.54532   0.68843   0.48930   0.00000  Uiso   1.00
C821   C     0.45468   0.97824   0.51068   0.00000  Uiso   1.00
C822   C     0.54320   0.97827   0.48906   0.00000  Uiso   1.00
F823   F     0.65496   0.81541   0.44120   0.00000  Uiso   1.00
F824   F     0.34513   0.84924   0.55930   0.00000  Uiso   1.00
F825   F     0.58499   0.95591   0.48032   0.00000  Uiso   1.00
F826   F     0.41502   0.71077   0.51964   0.00000  Uiso   1.00
H827   H     0.59731   0.74529   0.48492   0.00000  Uiso   1.00
H828   H     0.40266   0.92138   0.51499   0.00000  Uiso   1.00
H829   H     0.54480   0.92057   0.40039   0.00000  Uiso   1.00
H830   H     0.40981   0.78119   0.58384   0.00000  Uiso   1.00
H831   H     0.54768   0.92084   0.61145   0.00000  Uiso   1.00
H832   H     0.40347   0.78492   0.38856   0.00000  Uiso   1.00
N833   N     0.49999   0.83332   0.61907   0.00000  Uiso   1.00
N834   N     0.50001   0.83334   0.38093   0.00000  Uiso   1.00
O835   O     0.50000   0.77225   0.53821   0.00000  Uiso   1.00
O836   O     0.37164   0.97285   0.53551   0.00000  Uiso   1.00
O837   O     0.61011   0.88913   0.39747   0.00000  Uiso   1.00
O838   O     0.44764   0.73463   0.61765   0.00000  Uiso   1.00
O839   O     0.61051   0.88531   0.62677   0.00000  Uiso   1.00
O840   O     0.44746   0.73674   0.37678   0.00000  Uiso   1.00
O841   O     0.50000   0.89442   0.46179   0.00000  Uiso   1.00
O842   O     0.50000   0.77226   0.46176   0.00000  Uiso   1.00
O843   O     0.50000   0.89441   0.53824   0.00000  Uiso   1.00
O844   O     0.42392   0.83333   0.52928   0.00000  Uiso   1.00
O845   O     0.57608   0.83334   0.47072   0.00000  Uiso   1.00
O846   O     0.42392   0.83334   0.45284   0.00000  Uiso   1.00
O847   O     0.57608   0.83333   0.54716   0.00000  Uiso   1.00
O848   O     0.62837   0.69381   0.46448   0.00000  Uiso   1.00
Zn849  Zn    0.50000   0.83333   0.55104   0.00000  Uiso   1.00
Zn850  Zn    0.50000   0.83334   0.44896   0.00000  Uiso   1.00
C851   C     0.83401   0.75357   0.50015   0.00000  Uiso   1.00
C852   C     0.79014   0.68840   0.51091   0.00000  Uiso   1.00
C853   C     0.83185   0.95728   0.49957   0.00000  Uiso   1.00
C854   C     0.83483   0.70939   0.50042   0.00000  Uiso   1.00
C855   C     0.86390   0.86149   0.36092   0.00000  Uiso   1.00
C856   C     0.80446   0.80392   0.63925   0.00000  Uiso   1.00
C857   C     0.86397   0.86139   0.64635   0.00000  Uiso   1.00
C858   C     0.80420   0.80418   0.35394   0.00000  Uiso   1.00
C859   C     0.92641   0.71172   0.47929   0.00000  Uiso   1.00
C860   C     0.74025   0.95495   0.52067   0.00000  Uiso   1.00
C861   C     0.89612   0.89292   0.38896   0.00000  Uiso   1.00
C862   C     0.83266   0.91309   0.49985   0.00000  Uiso   1.00
C863   C     0.77317   0.77198   0.61092   0.00000  Uiso   1.00
C864   C     0.89732   0.89184   0.62592   0.00000  Uiso   1.00
C865   C     0.77069   0.77406   0.37481   0.00000  Uiso   1.00
C866   C     0.73396   0.83272   0.48828   0.00000  Uiso   1.00
C867   C     0.93270   0.83353   0.51175   0.00000  Uiso   1.00
C868   C     0.67926   0.82902   0.48242   0.00000  Uiso   1.00
C869   C     0.98744   0.83637   0.51780   0.00000  Uiso   1.00
C870   C     0.87865   0.68843   0.48930   0.00000  Uiso   1.00
C871   C     0.78802   0.97824   0.51068   0.00000  Uiso   1.00
C872   C     0.87653   0.97827   0.48906   0.00000  Uiso   1.00
F873   F     0.98829   0.81541   0.44120   0.00000  Uiso   1.00
F874   F     0.67846   0.84924   0.55930   0.00000  Uiso   1.00
F875   F     0.91832   0.95591   0.48032   0.00000  Uiso   1.00
F876   F     0.74835   0.71077   0.51964   0.00000  Uiso   1.00
H877   H     0.93064   0.74529   0.48492   0.00000  Uiso   1.00
H878   H     0.73599   0.92138   0.51499   0.00000  Uiso   1.00
H879   H     0.87813   0.92057   0.40039   0.00000  Uiso   1.00
H880   H     0.74314   0.78119   0.58384   0.00000  Uiso   1.00
H881   H     0.88102   0.92084   0.61145   0.00000  Uiso   1.00
H882   H     0.73681   0.78492   0.38856   0.00000  Uiso   1.00
N883   N     0.83332   0.83332   0.61907   0.00000  Uiso   1.00
N884   N     0.83335   0.83334   0.38093   0.00000  Uiso   1.00
O885   O     0.83333   0.77225   0.53821   0.00000  Uiso   1.00
O886   O     0.70497   0.97285   0.53551   0.00000  Uiso   1.00
O887   O     0.94344   0.88913   0.39747   0.00000  Uiso   1.00
O888   O     0.78097   0.73463   0.61765   0.00000  Uiso   1.00
O889   O     0.94384   0.88531   0.62677   0.00000  Uiso   1.00
O890   O     0.78080   0.73674   0.37678   0.00000  Uiso   1.00
O891   O     0.83334   0.89442   0.46179   0.00000  Uiso   1.00
O892   O     0.83333   0.77226   0.46176   0.00000  Uiso   1.00
O893   O     0.83334   0.89441   0.53824   0.00000  Uiso   1.00
O894   O     0.75725   0.83333   0.52928   0.00000  Uiso   1.00
O895   O     0.90942   0.83334   0.47072   0.00000  Uiso   1.00
O896   O     0.75725   0.83334   0.45284   0.00000  Uiso   1.00
O897   O     0.90942   0.83333   0.54716   0.00000  Uiso   1.00
O898   O     0.96170   0.69381   0.46448   0.00000  Uiso   1.00
Zn899  Zn    0.83333   0.83333   0.55104   0.00000  Uiso   1.00
Zn900  Zn    0.83333   0.83334   0.44896   0.00000  Uiso   1.00
C901   C     0.16735   0.08691   0.83348   0.00000  Uiso   1.00
C902   C     0.12347   0.02174   0.84425   0.00000  Uiso   1.00
C903   C     0.16518   0.29061   0.83290   0.00000  Uiso   1.00
C904   C     0.16816   0.04272   0.83375   0.00000  Uiso   1.00
C905   C     0.19723   0.19482   0.69425   0.00000  Uiso   1.00
C906   C     0.13779   0.13725   0.97259   0.00000  Uiso   1.00
C907   C     0.19730   0.19472   0.97968   0.00000  Uiso   1.00
C908   C     0.13753   0.13751   0.68727   0.00000  Uiso   1.00
C909   C     0.25974   0.04505   0.81262   0.00000  Uiso   1.00
C910   C     0.07358   0.28828   0.85400   0.00000  Uiso   1.00
C911   C     0.22945   0.22625   0.72229   0.00000  Uiso   1.00
C912   C     0.16599   0.24643   0.83318   0.00000  Uiso   1.00
C913   C     0.10651   0.10531   0.94425   0.00000  Uiso   1.00
C914   C     0.23065   0.22517   0.95926   0.00000  Uiso   1.00
C915   C     0.10403   0.10740   0.70814   0.00000  Uiso   1.00
C916   C     0.06729   0.16605   0.82161   0.00000  Uiso   1.00
C917   C     0.26603   0.16686   0.84508   0.00000  Uiso   1.00
C918   C     0.01259   0.16235   0.81576   0.00000  Uiso   1.00
C919   C     0.32078   0.16971   0.85113   0.00000  Uiso   1.00
C920   C     0.21198   0.02176   0.82263   0.00000  Uiso   1.00
C921   C     0.12135   0.31157   0.84401   0.00000  Uiso   1.00
C922   C     0.20987   0.31160   0.82239   0.00000  Uiso   1.00
F923   F     0.32162   0.14874   0.77453   0.00000  Uiso   1.00
F924   F     0.01179   0.18257   0.89264   0.00000  Uiso   1.00
F925   F     0.25166   0.28924   0.81366   0.00000  Uiso   1.00
F926   F     0.08169   0.04410   0.85297   0.00000  Uiso   1.00
H927   H     0.26397   0.07862   0.81825   0.00000  Uiso   1.00
H928   H     0.06932   0.25472   0.84832   0.00000  Uiso   1.00
H929   H     0.21146   0.25390   0.73373   0.00000  Uiso   1.00
H930   H     0.07647   0.11453   0.91717   0.00000  Uiso   1.00
H931   H     0.21435   0.25418   0.94479   0.00000  Uiso   1.00
H932   H     0.07014   0.11825   0.72189   0.00000  Uiso   1.00
N933   N     0.16665   0.16666   0.95240   0.00000  Uiso   1.00
N934   N     0.16668   0.16668   0.71427   0.00000  Uiso   1.00
O935   O     0.16666   0.10558   0.87154   0.00000  Uiso   1.00
O936   O     0.03831   0.30619   0.86884   0.00000  Uiso   1.00
O937   O     0.27677   0.22247   0.73080   0.00000  Uiso   1.00
O938   O     0.11430   0.06796   0.95099   0.00000  Uiso   1.00
O939   O     0.27717   0.21864   0.96010   0.00000  Uiso   1.00
O940   O     0.11413   0.07007   0.71011   0.00000  Uiso   1.00
O941   O     0.16667   0.22775   0.79513   0.00000  Uiso   1.00
O942   O     0.16666   0.10559   0.79510   0.00000  Uiso   1.00
O943   O     0.16667   0.22774   0.87157   0.00000  Uiso   1.00
O944   O     0.09058   0.16666   0.86261   0.00000  Uiso   1.00
O945   O     0.24275   0.16667   0.80405   0.00000  Uiso   1.00
O946   O     0.09058   0.16667   0.78617   0.00000  Uiso   1.00
O947   O     0.24275   0.16666   0.88050   0.00000  Uiso   1.00
O948   O     0.29504   0.02714   0.79782   0.00000  Uiso   1.00
Zn949  Zn    0.16667   0.16666   0.88437   0.00000  Uiso   1.00
Zn950  Zn    0.16667   0.16667   0.78229   0.00000  Uiso   1.00
C951   C     0.50068   0.08691   0.83348   0.00000  Uiso   1.00
C952   C     0.45681   0.02174   0.84425   0.00000  Uiso   1.00
C953   C     0.49851   0.29061   0.83290   0.00000  Uiso   1.00
C954   C     0.50150   0.04272   0.83375   0.00000  Uiso   1.00
C955   C     0.53057   0.19482   0.69425   0.00000  Uiso   1.00
C956   C     0.47112   0.13725   0.97259   0.00000  Uiso   1.00
C957   C     0.53063   0.19472   0.97968   0.00000  Uiso   1.00
C958   C     0.47086   0.13751   0.68727   0.00000  Uiso   1.00
C959   C     0.59307   0.04505   0.81262   0.00000  Uiso   1.00
C960   C     0.40692   0.28828   0.85400   0.00000  Uiso   1.00
C961   C     0.56279   0.22625   0.72229   0.00000  Uiso   1.00
C962   C     0.49933   0.24643   0.83318   0.00000  Uiso   1.00
C963   C     0.43984   0.10531   0.94425   0.00000  Uiso   1.00
C964   C     0.56398   0.22517   0.95926   0.00000  Uiso   1.00
C965   C     0.43736   0.10740   0.70814   0.00000  Uiso   1.00
C966   C     0.40063   0.16605   0.82161   0.00000  Uiso   1.00
C967   C     0.59937   0.16686   0.84508   0.00000  Uiso   1.00
C968   C     0.34592   0.16235   0.81576   0.00000  Uiso   1.00
C969   C     0.65411   0.16971   0.85113   0.00000  Uiso   1.00
C970   C     0.54532   0.02176   0.82263   0.00000  Uiso   1.00
C971   C     0.45468   0.31157   0.84401   0.00000  Uiso   1.00
C972   C     0.54320   0.31160   0.82239   0.00000  Uiso   1.00
F973   F     0.65496   0.14874   0.77453   0.00000  Uiso   1.00
F974   F     0.34513   0.18257   0.89264   0.00000  Uiso   1.00
F975   F     0.58499   0.28924   0.81366   0.00000  Uiso   1.00
F976   F     0.41502   0.04410   0.85297   0.00000  Uiso   1.00
H977   H     0.59731   0.07862   0.81825   0.00000  Uiso   1.00
H978   H     0.40266   0.25472   0.84832   0.00000  Uiso   1.00
H979   H     0.54480   0.25390   0.73373   0.00000  Uiso   1.00
H980   H     0.40981   0.11453   0.91717   0.00000  Uiso   1.00
H981   H     0.54768   0.25418   0.94479   0.00000  Uiso   1.00
H982   H     0.40347   0.11825   0.72189   0.00000  Uiso   1.00
N983   N     0.49999   0.16666   0.95240   0.00000  Uiso   1.00
N984   N     0.50001   0.16668   0.71427   0.00000  Uiso   1.00
O985   O     0.50000   0.10558   0.87154   0.00000  Uiso   1.00
O986   O     0.37164   0.30619   0.86884   0.00000  Uiso   1.00
O987   O     0.61011   0.22247   0.73080   0.00000  Uiso   1.00
O988   O     0.44764   0.06796   0.95099   0.00000  Uiso   1.00
O989   O     0.61051   0.21864   0.96010   0.00000  Uiso   1.00
O990   O     0.44746   0.07007   0.71011   0.00000  Uiso   1.00
O991   O     0.50000   0.22775   0.79513   0.00000  Uiso   1.00
O992   O     0.50000   0.10559   0.79510   0.00000  Uiso   1.00
O993   O     0.50000   0.22774   0.87157   0.00000  Uiso   1.00
O994   O     0.42392   0.16666   0.86261   0.00000  Uiso   1.00
O995   O     0.57608   0.16667   0.80405   0.00000  Uiso   1.00
O996   O     0.42392   0.16667   0.78617   0.00000  Uiso   1.00
O997   O     0.57608   0.16666   0.88050   0.00000  Uiso   1.00
O998   O     0.62837   0.02714   0.79782   0.00000  Uiso   1.00
Zn999  Zn    0.50000   0.16666   0.88437   0.00000  Uiso   1.00
Zn1000 Zn    0.50000   0.16667   0.78229   0.00000  Uiso   1.00
C1001  C     0.83401   0.08691   0.83348   0.00000  Uiso   1.00
C1002  C     0.79014   0.02174   0.84425   0.00000  Uiso   1.00
C1003  C     0.83185   0.29061   0.83290   0.00000  Uiso   1.00
C1004  C     0.83483   0.04272   0.83375   0.00000  Uiso   1.00
C1005  C     0.86390   0.19482   0.69425   0.00000  Uiso   1.00
C1006  C     0.80446   0.13725   0.97259   0.00000  Uiso   1.00
C1007  C     0.86397   0.19472   0.97968   0.00000  Uiso   1.00
C1008  C     0.80420   0.13751   0.68727   0.00000  Uiso   1.00
C1009  C     0.92641   0.04505   0.81262   0.00000  Uiso   1.00
C1010  C     0.74025   0.28828   0.85400   0.00000  Uiso   1.00
C1011  C     0.89612   0.22625   0.72229   0.00000  Uiso   1.00
C1012  C     0.83266   0.24643   0.83318   0.00000  Uiso   1.00
C1013  C     0.77317   0.10531   0.94425   0.00000  Uiso   1.00
C1014  C     0.89732   0.22517   0.95926   0.00000  Uiso   1.00
C1015  C     0.77069   0.10740   0.70814   0.00000  Uiso   1.00
C1016  C     0.73396   0.16605   0.82161   0.00000  Uiso   1.00
C1017  C     0.93270   0.16686   0.84508   0.00000  Uiso   1.00
C1018  C     0.67926   0.16235   0.81576   0.00000  Uiso   1.00
C1019  C     0.98744   0.16971   0.85113   0.00000  Uiso   1.00
C1020  C     0.87865   0.02176   0.82263   0.00000  Uiso   1.00
C1021  C     0.78802   0.31157   0.84401   0.00000  Uiso   1.00
C1022  C     0.87653   0.31160   0.82239   0.00000  Uiso   1.00
F1023  F     0.98829   0.14874   0.77453   0.00000  Uiso   1.00
F1024  F     0.67846   0.18257   0.89264   0.00000  Uiso   1.00
F1025  F     0.91832   0.28924   0.81366   0.00000  Uiso   1.00
F1026  F     0.74835   0.04410   0.85297   0.00000  Uiso   1.00
H1027  H     0.93064   0.07862   0.81825   0.00000  Uiso   1.00
H1028  H     0.73599   0.25472   0.84832   0.00000  Uiso   1.00
H1029  H     0.87813   0.25390   0.73373   0.00000  Uiso   1.00
H1030  H     0.74314   0.11453   0.91717   0.00000  Uiso   1.00
H1031  H     0.88102   0.25418   0.94479   0.00000  Uiso   1.00
H1032  H     0.73681   0.11825   0.72189   0.00000  Uiso   1.00
N1033  N     0.83332   0.16666   0.95240   0.00000  Uiso   1.00
N1034  N     0.83335   0.16668   0.71427   0.00000  Uiso   1.00
O1035  O     0.83333   0.10558   0.87154   0.00000  Uiso   1.00
O1036  O     0.70497   0.30619   0.86884   0.00000  Uiso   1.00
O1037  O     0.94344   0.22247   0.73080   0.00000  Uiso   1.00
O1038  O     0.78097   0.06796   0.95099   0.00000  Uiso   1.00
O1039  O     0.94384   0.21864   0.96010   0.00000  Uiso   1.00
O1040  O     0.78080   0.07007   0.71011   0.00000  Uiso   1.00
O1041  O     0.83334   0.22775   0.79513   0.00000  Uiso   1.00
O1042  O     0.83333   0.10559   0.79510   0.00000  Uiso   1.00
O1043  O     0.83334   0.22774   0.87157   0.00000  Uiso   1.00
O1044  O     0.75725   0.16666   0.86261   0.00000  Uiso   1.00
O1045  O     0.90942   0.16667   0.80405   0.00000  Uiso   1.00
O1046  O     0.75725   0.16667   0.78617   0.00000  Uiso   1.00
O1047  O     0.90942   0.16666   0.88050   0.00000  Uiso   1.00
O1048  O     0.96170   0.02714   0.79782   0.00000  Uiso   1.00
Zn1049 Zn    0.83333   0.16666   0.88437   0.00000  Uiso   1.00
Zn1050 Zn    0.83333   0.16667   0.78229   0.00000  Uiso   1.00
C1051  C     0.16735   0.42024   0.83348   0.00000  Uiso   1.00
C1052  C     0.12347   0.35507   0.84425   0.00000  Uiso   1.00
C1053  C     0.16518   0.62394   0.83290   0.00000  Uiso   1.00
C1054  C     0.16816   0.37606   0.83375   0.00000  Uiso   1.00
C1055  C     0.19723   0.52815   0.69425   0.00000  Uiso   1.00
C1056  C     0.13779   0.47059   0.97259   0.00000  Uiso   1.00
C1057  C     0.19730   0.52806   0.97968   0.00000  Uiso   1.00
C1058  C     0.13753   0.47084   0.68727   0.00000  Uiso   1.00
C1059  C     0.25974   0.37839   0.81262   0.00000  Uiso   1.00
C1060  C     0.07358   0.62162   0.85400   0.00000  Uiso   1.00
C1061  C     0.22945   0.55958   0.72229   0.00000  Uiso   1.00
C1062  C     0.16599   0.57976   0.83318   0.00000  Uiso   1.00
C1063  C     0.10651   0.43865   0.94425   0.00000  Uiso   1.00
C1064  C     0.23065   0.55850   0.95926   0.00000  Uiso   1.00
C1065  C     0.10403   0.44073   0.70814   0.00000  Uiso   1.00
C1066  C     0.06729   0.49939   0.82161   0.00000  Uiso   1.00
C1067  C     0.26603   0.50020   0.84508   0.00000  Uiso   1.00
C1068  C     0.01259   0.49568   0.81576   0.00000  Uiso   1.00
C1069  C     0.32078   0.50304   0.85113   0.00000  Uiso   1.00
C1070  C     0.21198   0.35510   0.82263   0.00000  Uiso   1.00
C1071  C     0.12135   0.64490   0.84401   0.00000  Uiso   1.00
C1072  C     0.20987   0.64493   0.82239   0.00000  Uiso   1.00
F1073  F     0.32162   0.48208   0.77453   0.00000  Uiso   1.00
F1074  F     0.01179   0.51590   0.89264   0.00000  Uiso   1.00
F1075  F     0.25166   0.62257   0.81366   0.00000  Uiso   1.00
F1076  F     0.08169   0.37744   0.85297   0.00000  Uiso   1.00
H1077  H     0.26397   0.41195   0.81825   0.00000  Uiso   1.00
H1078  H     0.06932   0.58805   0.84832   0.00000  Uiso   1.00
H1079  H     0.21146   0.58723   0.73373   0.00000  Uiso   1.00
H1080  H     0.07647   0.44786   0.91717   0.00000  Uiso   1.00
H1081  H     0.21435   0.58751   0.94479   0.00000  Uiso   1.00
H1082  H     0.07014   0.45158   0.72189   0.00000  Uiso   1.00
N1083  N     0.16665   0.49999   0.95240   0.00000  Uiso   1.00
N1084  N     0.16668   0.50001   0.71427   0.00000  Uiso   1.00
O1085  O     0.16666   0.43892   0.87154   0.00000  Uiso   1.00
O1086  O     0.03831   0.63952   0.86884   0.00000  Uiso   1.00
O1087  O     0.27677   0.55580   0.73080   0.00000  Uiso   1.00
O1088  O     0.11430   0.40129   0.95099   0.00000  Uiso   1.00
O1089  O     0.27717   0.55198   0.96010   0.00000  Uiso   1.00
O1090  O     0.11413   0.40341   0.71011   0.00000  Uiso   1.00
O1091  O     0.16667   0.56108   0.79513   0.00000  Uiso   1.00
O1092  O     0.16666   0.43893   0.79510   0.00000  Uiso   1.00
O1093  O     0.16667   0.56107   0.87157   0.00000  Uiso   1.00
O1094  O     0.09058   0.50000   0.86261   0.00000  Uiso   1.00
O1095  O     0.24275   0.50000   0.80405   0.00000  Uiso   1.00
O1096  O     0.09058   0.50000   0.78617   0.00000  Uiso   1.00
O1097  O     0.24275   0.50000   0.88050   0.00000  Uiso   1.00
O1098  O     0.29504   0.36048   0.79782   0.00000  Uiso   1.00
Zn1099 Zn    0.16667   0.49999   0.88437   0.00000  Uiso   1.00
Zn1100 Zn    0.16667   0.50001   0.78229   0.00000  Uiso   1.00
C1101  C     0.50068   0.42024   0.83348   0.00000  Uiso   1.00
C1102  C     0.45681   0.35507   0.84425   0.00000  Uiso   1.00
C1103  C     0.49851   0.62394   0.83290   0.00000  Uiso   1.00
C1104  C     0.50150   0.37606   0.83375   0.00000  Uiso   1.00
C1105  C     0.53057   0.52815   0.69425   0.00000  Uiso   1.00
C1106  C     0.47112   0.47059   0.97259   0.00000  Uiso   1.00
C1107  C     0.53063   0.52806   0.97968   0.00000  Uiso   1.00
C1108  C     0.47086   0.47084   0.68727   0.00000  Uiso   1.00
C1109  C     0.59307   0.37839   0.81262   0.00000  Uiso   1.00
C1110  C     0.40692   0.62162   0.85400   0.00000  Uiso   1.00
C1111  C     0.56279   0.55958   0.72229   0.00000  Uiso   1.00
C1112  C     0.49933   0.57976   0.83318   0.00000  Uiso   1.00
C1113  C     0.43984   0.43865   0.94425   0.00000  Uiso   1.00
C1114  C     0.56398   0.55850   0.95926   0.00000  Uiso   1.00
C1115  C     0.43736   0.44073   0.70814   0.00000  Uiso   1.00
C1116  C     0.40063   0.49939   0.82161   0.00000  Uiso   1.00
C1117  C     0.59937   0.50020   0.84508   0.00000  Uiso   1.00
C1118  C     0.34592   0.49568   0.81576   0.00000  Uiso   1.00
C1119  C     0.65411   0.50304   0.85113   0.00000  Uiso   1.00
C1120  C     0.54532   0.35510   0.82263   0.00000  Uiso   1.00
C1121  C     0.45468   0.64490   0.84401   0.00000  Uiso   1.00
C1122  C     0.54320   0.64493   0.82239   0.00000  Uiso   1.00
F1123  F     0.65496   0.48208   0.77453   0.00000  Uiso   1.00
F1124  F     0.34513   0.51590   0.89264   0.00000  Uiso   1.00
F1125  F     0.58499   0.62257   0.81366   0.00000  Uiso   1.00
F1126  F     0.41502   0.37744   0.85297   0.00000  Uiso   1.00
H1127  H     0.59731   0.41195   0.81825   0.00000  Uiso   1.00
H1128  H     0.40266   0.58805   0.84832   0.00000  Uiso   1.00
H1129  H     0.54480   0.58723   0.73373   0.00000  Uiso   1.00
H1130  H     0.40981   0.44786   0.91717   0.00000  Uiso   1.00
H1131  H     0.54768   0.58751   0.94479   0.00000  Uiso   1.00
H1132  H     0.40347   0.45158   0.72189   0.00000  Uiso   1.00
N1133  N     0.49999   0.49999   0.95240   0.00000  Uiso   1.00
N1134  N     0.50001   0.50001   0.71427   0.00000  Uiso   1.00
O1135  O     0.50000   0.43892   0.87154   0.00000  Uiso   1.00
O1136  O     0.37164   0.63952   0.86884   0.00000  Uiso   1.00
O1137  O     0.61011   0.55580   0.73080   0.00000  Uiso   1.00
O1138  O     0.44764   0.40129   0.95099   0.00000  Uiso   1.00
O1139  O     0.61051   0.55198   0.96010   0.00000  Uiso   1.00
O1140  O     0.44746   0.40341   0.71011   0.00000  Uiso   1.00
O1141  O     0.50000   0.56108   0.79513   0.00000  Uiso   1.00
O1142  O     0.50000   0.43893   0.79510   0.00000  Uiso   1.00
O1143  O     0.50000   0.56107   0.87157   0.00000  Uiso   1.00
O1144  O     0.42392   0.50000   0.86261   0.00000  Uiso   1.00
O1145  O     0.57608   0.50000   0.80405   0.00000  Uiso   1.00
O1146  O     0.42392   0.50000   0.78617   0.00000  Uiso   1.00
O1147  O     0.57608   0.50000   0.88050   0.00000  Uiso   1.00
O1148  O     0.62837   0.36048   0.79782   0.00000  Uiso   1.00
Zn1149 Zn    0.50000   0.49999   0.88437   0.00000  Uiso   1.00
Zn1150 Zn    0.50000   0.50001   0.78229   0.00000  Uiso   1.00
C1151  C     0.83401   0.42024   0.83348   0.00000  Uiso   1.00
C1152  C     0.79014   0.35507   0.84425   0.00000  Uiso   1.00
C1153  C     0.83185   0.62394   0.83290   0.00000  Uiso   1.00
C1154  C     0.83483   0.37606   0.83375   0.00000  Uiso   1.00
C1155  C     0.86390   0.52815   0.69425   0.00000  Uiso   1.00
C1156  C     0.80446   0.47059   0.97259   0.00000  Uiso   1.00
C1157  C     0.86397   0.52806   0.97968   0.00000  Uiso   1.00
C1158  C     0.80420   0.47084   0.68727   0.00000  Uiso   1.00
C1159  C     0.92641   0.37839   0.81262   0.00000  Uiso   1.00
C1160  C     0.74025   0.62162   0.85400   0.00000  Uiso   1.00
C1161  C     0.89612   0.55958   0.72229   0.00000  Uiso   1.00
C1162  C     0.83266   0.57976   0.83318   0.00000  Uiso   1.00
C1163  C     0.77317   0.43865   0.94425   0.00000  Uiso   1.00
C1164  C     0.89732   0.55850   0.95926   0.00000  Uiso   1.00
C1165  C     0.77069   0.44073   0.70814   0.00000  Uiso   1.00
C1166  C     0.73396   0.49939   0.82161   0.00000  Uiso   1.00
C1167  C     0.93270   0.50020   0.84508   0.00000  Uiso   1.00
C1168  C     0.67926   0.49568   0.81576   0.00000  Uiso   1.00
C1169  C     0.98744   0.50304   0.85113   0.00000  Uiso   1.00
C1170  C     0.87865   0.35510   0.82263   0.00000  Uiso   1.00
C1171  C     0.78802   0.64490   0.84401   0.00000  Uiso   1.00
C1172  C     0.87653   0.64493   0.82239   0.00000  Uiso   1.00
F1173  F     0.98829   0.48208   0.77453   0.00000  Uiso   1.00
F1174  F     0.67846   0.51590   0.89264   0.00000  Uiso   1.00
F1175  F     0.91832   0.62257   0.81366   0.00000  Uiso   1.00
F1176  F     0.74835   0.37744   0.85297   0.00000  Uiso   1.00
H1177  H     0.93064   0.41195   0.81825   0.00000  Uiso   1.00
H1178  H     0.73599   0.58805   0.84832   0.00000  Uiso   1.00
H1179  H     0.87813   0.58723   0.73373   0.00000  Uiso   1.00
H1180  H     0.74314   0.44786   0.91717   0.00000  Uiso   1.00
H1181  H     0.88102   0.58751   0.94479   0.00000  Uiso   1.00
H1182  H     0.73681   0.45158   0.72189   0.00000  Uiso   1.00
N1183  N     0.83332   0.49999   0.95240   0.00000  Uiso   1.00
N1184  N     0.83335   0.50001   0.71427   0.00000  Uiso   1.00
O1185  O     0.83333   0.43892   0.87154   0.00000  Uiso   1.00
O1186  O     0.70497   0.63952   0.86884   0.00000  Uiso   1.00
O1187  O     0.94344   0.55580   0.73080   0.00000  Uiso   1.00
O1188  O     0.78097   0.40129   0.95099   0.00000  Uiso   1.00
O1189  O     0.94384   0.55198   0.96010   0.00000  Uiso   1.00
O1190  O     0.78080   0.40341   0.71011   0.00000  Uiso   1.00
O1191  O     0.83334   0.56108   0.79513   0.00000  Uiso   1.00
O1192  O     0.83333   0.43893   0.79510   0.00000  Uiso   1.00
O1193  O     0.83334   0.56107   0.87157   0.00000  Uiso   1.00
O1194  O     0.75725   0.50000   0.86261   0.00000  Uiso   1.00
O1195  O     0.90942   0.50000   0.80405   0.00000  Uiso   1.00
O1196  O     0.75725   0.50000   0.78617   0.00000  Uiso   1.00
O1197  O     0.90942   0.50000   0.88050   0.00000  Uiso   1.00
O1198  O     0.96170   0.36048   0.79782   0.00000  Uiso   1.00
Zn1199 Zn    0.83333   0.49999   0.88437   0.00000  Uiso   1.00
Zn1200 Zn    0.83333   0.50001   0.78229   0.00000  Uiso   1.00
C1201  C     0.16735   0.75357   0.83348   0.00000  Uiso   1.00
C1202  C     0.12347   0.68840   0.84425   0.00000  Uiso   1.00
C1203  C     0.16518   0.95728   0.83290   0.00000  Uiso   1.00
C1204  C     0.16816   0.70939   0.83375   0.00000  Uiso   1.00
C1205  C     0.19723   0.86149   0.69425   0.00000  Uiso   1.00
C1206  C     0.13779   0.80392   0.97259   0.00000  Uiso   1.00
C1207  C     0.19730   0.86139   0.97968   0.00000  Uiso   1.00
C1208  C     0.13753   0.80418   0.68727   0.00000  Uiso   1.00
C1209  C     0.25974   0.71172   0.81262   0.00000  Uiso   1.00
C1210  C     0.07358   0.95495   0.85400   0.00000  Uiso   1.00
C1211  C     0.22945   0.89292   0.72229   0.00000  Uiso   1.00
C1212  C     0.16599   0.91309   0.83318   0.00000  Uiso   1.00
C1213  C     0.10651   0.77198   0.94425   0.00000  Uiso   1.00
C1214  C     0.23065   0.89184   0.95926   0.00000  Uiso   1.00
C1215  C     0.10403   0.77406   0.70814   0.00000  Uiso   1.00
C1216  C     0.06729   0.83272   0.82161   0.00000  Uiso   1.00
C1217  C     0.26603   0.83353   0.84508   0.00000  Uiso   1.00
C1218  C     0.01259   0.82902   0.81576   0.00000  Uiso   1.00
C1219  C     0.32078   0.83637   0.85113   0.00000  Uiso   1.00
C1220  C     0.21198   0.68843   0.82263   0.00000  Uiso   1.00
C1221  C     0.12135   0.97824   0.84401   0.00000  Uiso   1.00
C1222  C     0.20987   0.97827   0.82239   0.00000  Uiso   1.00
F1223  F     0.32162   0.81541   0.77453   0.00000  Uiso   1.00
F1224  F     0.01179   0.84924   0.89264   0.00000  Uiso   1.00
F1225  F     0.25166   0.95591   0.81366   0.00000  Uiso   1.00
F1226  F     0.08169   0.71077   0.85297   0.00000  Uiso   1.00
H1227  H     0.26397   0.74529   0.81825   0.00000  Uiso   1.00
H1228  H     0.06932   0.92138   0.84832   0.00000  Uiso   1.00
H1229  H     0.21146   0.92057   0.73373   0.00000  Uiso   1.00
H1230  H     0.07647   0.78119   0.91717   0.00000  Uiso   1.00
H1231  H     0.21435   0.92084   0.94479   0.00000  Uiso   1.00
H1232  H     0.07014   0.78492   0.72189   0.00000  Uiso   1.00
N1233  N     0.16665   0.83332   0.95240   0.00000  Uiso   1.00
N1234  N     0.16668   0.83334   0.71427   0.00000  Uiso   1.00
O1235  O     0.16666   0.77225   0.87154   0.00000  Uiso   1.00
O1236  O     0.03831   0.97285   0.86884   0.00000  Uiso   1.00
O1237  O     0.27677   0.88913   0.73080   0.00000  Uiso   1.00
O1238  O     0.11430   0.73463   0.95099   0.00000  Uiso   1.00
O1239  O     0.27717   0.88531   0.96010   0.00000  Uiso   1.00
O1240  O     0.11413   0.73674   0.71011   0.00000  Uiso   1.00
O1241  O     0.16667   0.89442   0.79513   0.00000  Uiso   1.00
O1242  O     0.16666   0.77226   0.79510   0.00000  Uiso   1.00
O1243  O     0.16667   0.89441   0.87157   0.00000  Uiso   1.00
O1244  O     0.09058   0.83333   0.86261   0.00000  Uiso   1.00
O1245  O     0.24275   0.83334   0.80405   0.00000  Uiso   1.00
O1246  O     0.09058   0.83334   0.78617   0.00000  Uiso   1.00
O1247  O     0.24275   0.83333   0.88050   0.00000  Uiso   1.00
O1248  O     0.29504   0.69381   0.79782   0.00000  Uiso   1.00
Zn1249 Zn    0.16667   0.83333   0.88437   0.00000  Uiso   1.00
Zn1250 Zn    0.16667   0.83334   0.78229   0.00000  Uiso   1.00
C1251  C     0.50068   0.75357   0.83348   0.00000  Uiso   1.00
C1252  C     0.45681   0.68840   0.84425   0.00000  Uiso   1.00
C1253  C     0.49851   0.95728   0.83290   0.00000  Uiso   1.00
C1254  C     0.50150   0.70939   0.83375   0.00000  Uiso   1.00
C1255  C     0.53057   0.86149   0.69425   0.00000  Uiso   1.00
C1256  C     0.47112   0.80392   0.97259   0.00000  Uiso   1.00
C1257  C     0.53063   0.86139   0.97968   0.00000  Uiso   1.00
C1258  C     0.47086   0.80418   0.68727   0.00000  Uiso   1.00
C1259  C     0.59307   0.71172   0.81262   0.00000  Uiso   1.00
C1260  C     0.40692   0.95495   0.85400   0.00000  Uiso   1.00
C1261  C     0.56279   0.89292   0.72229   0.00000  Uiso   1.00
C1262  C     0.49933   0.91309   0.83318   0.00000  Uiso   1.00
C1263  C     0.43984   0.77198   0.94425   0.00000  Uiso   1.00
C1264  C     0.56398   0.89184   0.95926   0.00000  Uiso   1.00
C1265  C     0.43736   0.77406   0.70814   0.00000  Uiso   1.00
C1266  C     0.40063   0.83272   0.82161   0.00000  Uiso   1.00
C1267  C     0.59937   0.83353   0.84508   0.00000  Uiso   1.00
C1268  C     0.34592   0.82902   0.81576   0.00000  Uiso   1.00
C1269  C     0.65411   0.83637   0.85113   0.00000  Uiso   1.00
C1270  C     0.54532   0.68843   0.82263   0.00000  Uiso   1.00
C1271  C     0.45468   0.97824   0.84401   0.00000  Uiso   1.00
C1272  C     0.54320   0.97827   0.82239   0.00000  Uiso   1.00
F1273  F     0.65496   0.81541   0.77453   0.00000  Uiso   1.00
F1274  F     0.34513   0.84924   0.89264   0.00000  Uiso   1.00
F1275  F     0.58499   0.95591   0.81366   0.00000  Uiso   1.00
F1276  F     0.41502   0.71077   0.85297   0.00000  Uiso   1.00
H1277  H     0.59731   0.74529   0.81825   0.00000  Uiso   1.00
H1278  H     0.40266   0.92138   0.84832   0.00000  Uiso   1.00
H1279  H     0.54480   0.92057   0.73373   0.00000  Uiso   1.00
H1280  H     0.40981   0.78119   0.91717   0.00000  Uiso   1.00
H1281  H     0.54768   0.92084   0.94479   0.00000  Uiso   1.00
H1282  H     0.40347   0.78492   0.72189   0.00000  Uiso   1.00
N1283  N     0.49999   0.83332   0.95240   0.00000  Uiso   1.00
N1284  N     0.50001   0.83334   0.71427   0.00000  Uiso   1.00
O1285  O     0.50000   0.77225   0.87154   0.00000  Uiso   1.00
O1286  O     0.37164   0.97285   0.86884   0.00000  Uiso   1.00
O1287  O     0.61011   0.88913   0.73080   0.00000  Uiso   1.00
O1288  O     0.44764   0.73463   0.95099   0.00000  Uiso   1.00
O1289  O     0.61051   0.88531   0.96010   0.00000  Uiso   1.00
O1290  O     0.44746   0.73674   0.71011   0.00000  Uiso   1.00
O1291  O     0.50000   0.89442   0.79513   0.00000  Uiso   1.00
O1292  O     0.50000   0.77226   0.79510   0.00000  Uiso   1.00
O1293  O     0.50000   0.89441   0.87157   0.00000  Uiso   1.00
O1294  O     0.42392   0.83333   0.86261   0.00000  Uiso   1.00
O1295  O     0.57608   0.83334   0.80405   0.00000  Uiso   1.00
O1296  O     0.42392   0.83334   0.78617   0.00000  Uiso   1.00
O1297  O     0.57608   0.83333   0.88050   0.00000  Uiso   1.00
O1298  O     0.62837   0.69381   0.79782   0.00000  Uiso   1.00
Zn1299 Zn    0.50000   0.83333   0.88437   0.00000  Uiso   1.00
Zn1300 Zn    0.50000   0.83334   0.78229   0.00000  Uiso   1.00
C1301  C     0.83401   0.75357   0.83348   0.00000  Uiso   1.00
C1302  C     0.79014   0.68840   0.84425   0.00000  Uiso   1.00
C1303  C     0.83185   0.95728   0.83290   0.00000  Uiso   1.00
C1304  C     0.83483   0.70939   0.83375   0.00000  Uiso   1.00
C1305  C     0.86390   0.86149   0.69425   0.00000  Uiso   1.00
C1306  C     0.80446   0.80392   0.97259   0.00000  Uiso   1.00
C1307  C     0.86397   0.86139   0.97968   0.00000  Uiso   1.00
C1308  C     0.80420   0.80418   0.68727   0.00000  Uiso   1.00
C1309  C     0.92641   0.71172   0.81262   0.00000  Uiso   1.00
C1310  C     0.74025   0.95495   0.85400   0.00000  Uiso   1.00
C1311  C     0.89612   0.89292   0.72229   0.00000  Uiso   1.00
C1312  C     0.83266   0.91309   0.83318   0.00000  Uiso   1.00
C1313  C     0.77317   0.77198   0.94425   0.00000  Uiso   1.00
C1314  C     0.89732   0.89184   0.95926   0.00000  Uiso   1.00
C1315  C     0.77069   0.77406   0.70814   0.00000  Uiso   1.00
C1316  C     0.73396   0.83272   0.82161   0.00000  Uiso   1.00
C1317  C     0.93270   0.83353   0.84508   0.00000  Uiso   1.00
C1318  C     0.67926   0.82902   0.81576   0.00000  Uiso   1.00
C1319  C     0.98744   0.83637   0.85113   0.00000  Uiso   1.00
C1320  C     0.87865   0.68843   0.82263   0.00000  Uiso   1.00
C1321  C     0.78802   0.97824   0.84401   0.00000  Uiso   1.00
C1322  C     0.87653   0.97827   0.82239   0.00000  Uiso   1.00
F1323  F     0.98829   0.81541   0.77453   0.00000  Uiso   1.00
F1324  F     0.67846   0.84924   0.89264   0.00000  Uiso   1.00
F1325  F     0.91832   0.95591   0.81366   0.00000  Uiso   1.00
F1326  F     0.74835   0.71077   0.85297   0.00000  Uiso   1.00
H1327  H     0.93064   0.74529   0.81825   0.00000  Uiso   1.00
H1328  H     0.73599   0.92138   0.84832   0.00000  Uiso   1.00
H1329  H     0.87813   0.92057   0.73373   0.00000  Uiso   1.00
H1330  H     0.74314   0.78119   0.91717   0.00000  Uiso   1.00
H1331  H     0.88102   0.92084   0.94479   0.00000  Uiso   1.00
H1332  H     0.73681   0.78492   0.72189   0.00000  Uiso   1.00
N1333  N     0.83332   0.83332   0.95240   0.00000  Uiso   1.00
N1334  N     0.83335   0.83334   0.71427   0.00000  Uiso   1.00
O1335  O     0.83333   0.77225   0.87154   0.00000  Uiso   1.00
O1336  O     0.70497   0.97285   0.86884   0.00000  Uiso   1.00
O1337  O     0.94344   0.88913   0.73080   0.00000  Uiso   1.00
O1338  O     0.78097   0.73463   0.95099   0.00000  Uiso   1.00
O1339  O     0.94384   0.88531   0.96010   0.00000  Uiso   1.00
O1340  O     0.78080   0.73674   0.71011   0.00000  Uiso   1.00
O1341  O     0.83334   0.89442   0.79513   0.00000  Uiso   1.00
O1342  O     0.83333   0.77226   0.79510   0.00000  Uiso   1.00
O1343  O     0.83334   0.89441   0.87157   0.00000  Uiso   1.00
O1344  O     0.75725   0.83333   0.86261   0.00000  Uiso   1.00
O1345  O     0.90942   0.83334   0.80405   0.00000  Uiso   1.00
O1346  O     0.75725   0.83334   0.78617   0.00000  Uiso   1.00
O1347  O     0.90942   0.83333   0.88050   0.00000  Uiso   1.00
O1348  O     0.96170   0.69381   0.79782   0.00000  Uiso   1.00
Zn1349 Zn    0.83333   0.83333   0.88437   0.00000  Uiso   1.00
Zn1350 Zn    0.83333   0.83334   0.78229   0.00000  Uiso   1.00
loop_
_geom_bond_atom_site_label_1
_geom_bond_atom_site_label_2
_geom_bond_distance
_geom_bond_site_symmetry_2
_ccdc_geom_bond_type
C1     C4      1.407   .     S
C1     O42     1.285   .     A
C1     O35     1.286   .     A
C2     C4      1.396   .     A
C2     F26     1.361   .     S
C2     C321    1.384   1_545 S
C3     C21     1.406   .     A
C3     C22     1.396   .     A
C3     C12     1.407   .     S
C4     C20     1.406   .     A
C5     N34     1.373   .     A
C5     C11     1.471   .     S
C5     C907    1.428   1_554 S
C6     N33     1.375   .     A
C6     C13     1.475   .     S
C6     C458    1.433   .     S
C7     N33     1.370   .     A
C7     C14     1.471   .     S
C7     C455    1.428   .     S
C8     N34     1.371   .     A
C8     C15     1.474   .     S
C8     C906    1.433   1_554 S
C9     C20     1.493   .     S
C9     H27     1.083   .     S
C9     O48     1.221   .     D
C10    H28     1.083   .     S
C10    C21     1.493   .     S
C10    O36     1.221   .     D
C11    H29     1.082   .     S
C11    O37     1.220   .     D
C12    O41     1.286   .     A
C12    O43     1.285   .     A
C13    O38     1.220   .     D
C13    H30     1.079   .     S
C14    H31     1.084   .     S
C14    O39     1.220   .     D
C15    H32     1.082   .     S
C15    O40     1.221   .     D
C16    C18     1.401   .     S
C16    O46     1.289   .     A
C16    O44     1.282   .     A
C17    C19     1.400   .     S
C17    O47     1.289   .     A
C17    O45     1.282   .     A
C18    C119    1.340   1_455 S
C18    F123    1.365   1_455 S
C19    C68     1.340   .     S
C19    F74     1.365   .     S
C20    C322    1.384   1_545 S
C21    C152    1.384   .     S
C22    F25     1.361   .     S
C22    C170    1.384   .     S
F23    C68     1.365   .     S
F24    C119    1.365   1_455 S
N33    Zn49    2.028   .     S
N34    Zn50    2.028   .     S
O35    Zn49    1.983   .     S
O41    Zn50    1.983   .     S
O42    Zn50    1.979   .     S
O43    Zn49    1.979   .     S
O44    Zn49    1.978   .     S
O45    Zn50    1.978   .     S
O46    Zn50    1.985   .     S
O47    Zn49    1.985   .     S
C51    C54     1.407   .     S
C51    O92     1.285   .     A
C51    O85     1.286   .     A
C52    C54     1.396   .     A
C52    F76     1.361   .     S
C52    C371    1.384   1_545 S
C53    C71     1.406   .     A
C53    C72     1.396   .     A
C53    C62     1.407   .     S
C54    C70     1.406   .     A
C55    N84     1.373   .     A
C55    C61     1.471   .     S
C55    C957    1.428   1_554 S
C56    N83     1.375   .     A
C56    C63     1.475   .     S
C56    C508    1.433   .     S
C57    N83     1.370   .     A
C57    C64     1.471   .     S
C57    C505    1.428   .     S
C58    N84     1.371   .     A
C58    C65     1.474   .     S
C58    C956    1.433   1_554 S
C59    C70     1.493   .     S
C59    H77     1.083   .     S
C59    O98     1.221   .     D
C60    H78     1.083   .     S
C60    C71     1.493   .     S
C60    O86     1.221   .     D
C61    H79     1.082   .     S
C61    O87     1.220   .     D
C62    O91     1.286   .     A
C62    O93     1.285   .     A
C63    O88     1.220   .     D
C63    H80     1.079   .     S
C64    H81     1.084   .     S
C64    O89     1.220   .     D
C65    H82     1.082   .     S
C65    O90     1.221   .     D
C66    C68     1.401   .     S
C66    O96     1.289   .     A
C66    O94     1.282   .     A
C67    C69     1.400   .     S
C67    O97     1.289   .     A
C67    O95     1.282   .     A
C69    C118    1.340   .     S
C69    F124    1.365   .     S
C70    C372    1.384   1_545 S
C71    C202    1.384   .     S
C72    F75     1.361   .     S
C72    C220    1.384   .     S
F73    C118    1.365   .     S
N83    Zn99    2.028   .     S
N84    Zn100   2.028   .     S
O85    Zn99    1.983   .     S
O91    Zn100   1.983   .     S
O92    Zn100   1.979   .     S
O93    Zn99    1.979   .     S
O94    Zn99    1.978   .     S
O95    Zn100   1.978   .     S
O96    Zn100   1.985   .     S
O97    Zn99    1.985   .     S
C101   C104    1.407   .     S
C101   O142    1.285   .     A
C101   O135    1.286   .     A
C102   C104    1.396   .     A
C102   F126    1.361   .     S
C102   C421    1.384   1_545 S
C103   C121    1.406   .     A
C103   C122    1.396   .     A
C103   C112    1.407   .     S
C104   C120    1.406   .     A
C105   N134    1.373   .     A
C105   C111    1.471   .     S
C105   C1007   1.428   1_554 S
C106   N133    1.375   .     A
C106   C113    1.475   .     S
C106   C558    1.433   .     S
C107   N133    1.370   .     A
C107   C114    1.471   .     S
C107   C555    1.428   .     S
C108   N134    1.371   .     A
C108   C115    1.474   .     S
C108   C1006   1.433   1_554 S
C109   C120    1.493   .     S
C109   H127    1.083   .     S
C109   O148    1.221   .     D
C110   H128    1.083   .     S
C110   C121    1.493   .     S
C110   O136    1.221   .     D
C111   H129    1.082   .     S
C111   O137    1.220   .     D
C112   O141    1.286   .     A
C112   O143    1.285   .     A
C113   O138    1.220   .     D
C113   H130    1.079   .     S
C114   H131    1.084   .     S
C114   O139    1.220   .     D
C115   H132    1.082   .     S
C115   O140    1.221   .     D
C116   C118    1.401   .     S
C116   O146    1.289   .     A
C116   O144    1.282   .     A
C117   C119    1.400   .     S
C117   O147    1.289   .     A
C117   O145    1.282   .     A
C119   C18     1.340   1_655 S
C119   F24     1.365   1_655 S
C120   C422    1.384   1_545 S
C121   C252    1.384   .     S
C122   F125    1.361   .     S
C122   C270    1.384   .     S
F123   C18     1.365   1_655 S
N133   Zn149   2.028   .     S
N134   Zn150   2.028   .     S
O135   Zn149   1.983   .     S
O141   Zn150   1.983   .     S
O142   Zn150   1.979   .     S
O143   Zn149   1.979   .     S
O144   Zn149   1.978   .     S
O145   Zn150   1.978   .     S
O146   Zn150   1.985   .     S
O147   Zn149   1.985   .     S
C151   C154    1.407   .     S
C151   O192    1.285   .     A
C151   O185    1.286   .     A
C152   C154    1.396   .     A
C152   F176    1.361   .     S
C153   C171    1.406   .     A
C153   C172    1.396   .     A
C153   C162    1.407   .     S
C154   C170    1.406   .     A
C155   N184    1.373   .     A
C155   C161    1.471   .     S
C155   C1057   1.428   1_554 S
C156   N183    1.375   .     A
C156   C163    1.475   .     S
C156   C608    1.433   .     S
C157   N183    1.370   .     A
C157   C164    1.471   .     S
C157   C605    1.428   .     S
C158   N184    1.371   .     A
C158   C165    1.474   .     S
C158   C1056   1.433   1_554 S
C159   C170    1.493   .     S
C159   H177    1.083   .     S
C159   O198    1.221   .     D
C160   H178    1.083   .     S
C160   C171    1.493   .     S
C160   O186    1.221   .     D
C161   H179    1.082   .     S
C161   O187    1.220   .     D
C162   O191    1.286   .     A
C162   O193    1.285   .     A
C163   O188    1.220   .     D
C163   H180    1.079   .     S
C164   H181    1.084   .     S
C164   O189    1.220   .     D
C165   H182    1.082   .     S
C165   O190    1.221   .     D
C166   C168    1.401   .     S
C166   O196    1.289   .     A
C166   O194    1.282   .     A
C167   C169    1.400   .     S
C167   O197    1.289   .     A
C167   O195    1.282   .     A
C168   C269    1.340   1_455 S
C168   F273    1.365   1_455 S
C169   C218    1.340   .     S
C169   F224    1.365   .     S
C171   C302    1.384   .     S
C172   F175    1.361   .     S
C172   C320    1.384   .     S
F173   C218    1.365   .     S
F174   C269    1.365   1_455 S
N183   Zn199   2.028   .     S
N184   Zn200   2.028   .     S
O185   Zn199   1.983   .     S
O191   Zn200   1.983   .     S
O192   Zn200   1.979   .     S
O193   Zn199   1.979   .     S
O194   Zn199   1.978   .     S
O195   Zn200   1.978   .     S
O196   Zn200   1.985   .     S
O197   Zn199   1.985   .     S
C201   C204    1.407   .     S
C201   O242    1.285   .     A
C201   O235    1.286   .     A
C202   C204    1.396   .     A
C202   F226    1.361   .     S
C203   C221    1.406   .     A
C203   C222    1.396   .     A
C203   C212    1.407   .     S
C204   C220    1.406   .     A
C205   N234    1.373   .     A
C205   C211    1.471   .     S
C205   C1107   1.428   1_554 S
C206   N233    1.375   .     A
C206   C213    1.475   .     S
C206   C658    1.433   .     S
C207   N233    1.370   .     A
C207   C214    1.471   .     S
C207   C655    1.428   .     S
C208   N234    1.371   .     A
C208   C215    1.474   .     S
C208   C1106   1.433   1_554 S
C209   C220    1.493   .     S
C209   H227    1.083   .     S
C209   O248    1.221   .     D
C210   H228    1.083   .     S
C210   C221    1.493   .     S
C210   O236    1.221   .     D
C211   H229    1.082   .     S
C211   O237    1.220   .     D
C212   O241    1.286   .     A
C212   O243    1.285   .     A
C213   O238    1.220   .     D
C213   H230    1.079   .     S
C214   H231    1.084   .     S
C214   O239    1.220   .     D
C215   H232    1.082   .     S
C215   O240    1.221   .     D
C216   C218    1.401   .     S
C216   O246    1.289   .     A
C216   O244    1.282   .     A
C217   C219    1.400   .     S
C217   O247    1.289   .     A
C217   O245    1.282   .     A
C219   C268    1.340   .     S
C219   F274    1.365   .     S
C221   C352    1.384   .     S
C222   F225    1.361   .     S
C222   C370    1.384   .     S
F223   C268    1.365   .     S
N233   Zn249   2.028   .     S
N234   Zn250   2.028   .     S
O235   Zn249   1.983   .     S
O241   Zn250   1.983   .     S
O242   Zn250   1.979   .     S
O243   Zn249   1.979   .     S
O244   Zn249   1.978   .     S
O245   Zn250   1.978   .     S
O246   Zn250   1.985   .     S
O247   Zn249   1.985   .     S
C251   C254    1.407   .     S
C251   O292    1.285   .     A
C251   O285    1.286   .     A
C252   C254    1.396   .     A
C252   F276    1.361   .     S
C253   C271    1.406   .     A
C253   C272    1.396   .     A
C253   C262    1.407   .     S
C254   C270    1.406   .     A
C255   N284    1.373   .     A
C255   C261    1.471   .     S
C255   C1157   1.428   1_554 S
C256   N283    1.375   .     A
C256   C263    1.475   .     S
C256   C708    1.433   .     S
C257   N283    1.370   .     A
C257   C264    1.471   .     S
C257   C705    1.428   .     S
C258   N284    1.371   .     A
C258   C265    1.474   .     S
C258   C1156   1.433   1_554 S
C259   C270    1.493   .     S
C259   H277    1.083   .     S
C259   O298    1.221   .     D
C260   H278    1.083   .     S
C260   C271    1.493   .     S
C260   O286    1.221   .     D
C261   H279    1.082   .     S
C261   O287    1.220   .     D
C262   O291    1.286   .     A
C262   O293    1.285   .     A
C263   O288    1.220   .     D
C263   H280    1.079   .     S
C264   H281    1.084   .     S
C264   O289    1.220   .     D
C265   H282    1.082   .     S
C265   O290    1.221   .     D
C266   C268    1.401   .     S
C266   O296    1.289   .     A
C266   O294    1.282   .     A
C267   C269    1.400   .     S
C267   O297    1.289   .     A
C267   O295    1.282   .     A
C269   C168    1.340   1_655 S
C269   F174    1.365   1_655 S
C271   C402    1.384   .     S
C272   F275    1.361   .     S
C272   C420    1.384   .     S
F273   C168    1.365   1_655 S
N283   Zn299   2.028   .     S
N284   Zn300   2.028   .     S
O285   Zn299   1.983   .     S
O291   Zn300   1.983   .     S
O292   Zn300   1.979   .     S
O293   Zn299   1.979   .     S
O294   Zn299   1.978   .     S
O295   Zn300   1.978   .     S
O296   Zn300   1.985   .     S
O297   Zn299   1.985   .     S
C301   C304    1.407   .     S
C301   O342    1.285   .     A
C301   O335    1.286   .     A
C302   C304    1.396   .     A
C302   F326    1.361   .     S
C303   C321    1.406   .     A
C303   C322    1.396   .     A
C303   C312    1.407   .     S
C304   C320    1.406   .     A
C305   N334    1.373   .     A
C305   C311    1.471   .     S
C305   C1207   1.428   1_554 S
C306   N333    1.375   .     A
C306   C313    1.475   .     S
C306   C758    1.433   .     S
C307   N333    1.370   .     A
C307   C314    1.471   .     S
C307   C755    1.428   .     S
C308   N334    1.371   .     A
C308   C315    1.474   .     S
C308   C1206   1.433   1_554 S
C309   C320    1.493   .     S
C309   H327    1.083   .     S
C309   O348    1.221   .     D
C310   H328    1.083   .     S
C310   C321    1.493   .     S
C310   O336    1.221   .     D
C311   H329    1.082   .     S
C311   O337    1.220   .     D
C312   O341    1.286   .     A
C312   O343    1.285   .     A
C313   O338    1.220   .     D
C313   H330    1.079   .     S
C314   H331    1.084   .     S
C314   O339    1.220   .     D
C315   H332    1.082   .     S
C315   O340    1.221   .     D
C316   C318    1.401   .     S
C316   O346    1.289   .     A
C316   O344    1.282   .     A
C317   C319    1.400   .     S
C317   O347    1.289   .     A
C317   O345    1.282   .     A
C318   C419    1.340   1_455 S
C318   F423    1.365   1_455 S
C319   C368    1.340   .     S
C319   F374    1.365   .     S
C321   C2      1.384   1_565 S
C322   F325    1.361   .     S
C322   C20     1.384   1_565 S
F323   C368    1.365   .     S
F324   C419    1.365   1_455 S
N333   Zn349   2.028   .     S
N334   Zn350   2.028   .     S
O335   Zn349   1.983   .     S
O341   Zn350   1.983   .     S
O342   Zn350   1.979   .     S
O343   Zn349   1.979   .     S
O344   Zn349   1.978   .     S
O345   Zn350   1.978   .     S
O346   Zn350   1.985   .     S
O347   Zn349   1.985   .     S
C351   C354    1.407   .     S
C351   O392    1.285   .     A
C351   O385    1.286   .     A
C352   C354    1.396   .     A
C352   F376    1.361   .     S
C353   C371    1.406   .     A
C353   C372    1.396   .     A
C353   C362    1.407   .     S
C354   C370    1.406   .     A
C355   N384    1.373   .     A
C355   C361    1.471   .     S
C355   C1257   1.428   1_554 S
C356   N383    1.375   .     A
C356   C363    1.475   .     S
C356   C808    1.433   .     S
C357   N383    1.370   .     A
C357   C364    1.471   .     S
C357   C805    1.428   .     S
C358   N384    1.371   .     A
C358   C365    1.474   .     S
C358   C1256   1.433   1_554 S
C359   C370    1.493   .     S
C359   H377    1.083   .     S
C359   O398    1.221   .     D
C360   H378    1.083   .     S
C360   C371    1.493   .     S
C360   O386    1.221   .     D
C361   H379    1.082   .     S
C361   O387    1.220   .     D
C362   O391    1.286   .     A
C362   O393    1.285   .     A
C363   O388    1.220   .     D
C363   H380    1.079   .     S
C364   H381    1.084   .     S
C364   O389    1.220   .     D
C365   H382    1.082   .     S
C365   O390    1.221   .     D
C366   C368    1.401   .     S
C366   O396    1.289   .     A
C366   O394    1.282   .     A
C367   C369    1.400   .     S
C367   O397    1.289   .     A
C367   O395    1.282   .     A
C369   C418    1.340   .     S
C369   F424    1.365   .     S
C371   C52     1.384   1_565 S
C372   F375    1.361   .     S
C372   C70     1.384   1_565 S
F373   C418    1.365   .     S
N383   Zn399   2.028   .     S
N384   Zn400   2.028   .     S
O385   Zn399   1.983   .     S
O391   Zn400   1.983   .     S
O392   Zn400   1.979   .     S
O393   Zn399   1.979   .     S
O394   Zn399   1.978   .     S
O395   Zn400   1.978   .     S
O396   Zn400   1.985   .     S
O397   Zn399   1.985   .     S
C401   C404    1.407   .     S
C401   O442    1.285   .     A
C401   O435    1.286   .     A
C402   C404    1.396   .     A
C402   F426    1.361   .     S
C403   C421    1.406   .     A
C403   C422    1.396   .     A
C403   C412    1.407   .     S
C404   C420    1.406   .     A
C405   N434    1.373   .     A
C405   C411    1.471   .     S
C405   C1307   1.428   1_554 S
C406   N433    1.375   .     A
C406   C413    1.475   .     S
C406   C858    1.433   .     S
C407   N433    1.370   .     A
C407   C414    1.471   .     S
C407   C855    1.428   .     S
C408   N434    1.371   .     A
C408   C415    1.474   .     S
C408   C1306   1.433   1_554 S
C409   C420    1.493   .     S
C409   H427    1.083   .     S
C409   O448    1.221   .     D
C410   H428    1.083   .     S
C410   C421    1.493   .     S
C410   O436    1.221   .     D
C411   H429    1.082   .     S
C411   O437    1.220   .     D
C412   O441    1.286   .     A
C412   O443    1.285   .     A
C413   O438    1.220   .     D
C413   H430    1.079   .     S
C414   H431    1.084   .     S
C414   O439    1.220   .     D
C415   H432    1.082   .     S
C415   O440    1.221   .     D
C416   C418    1.401   .     S
C416   O446    1.289   .     A
C416   O444    1.282   .     A
C417   C419    1.400   .     S
C417   O447    1.289   .     A
C417   O445    1.282   .     A
C419   C318    1.340   1_655 S
C419   F324    1.365   1_655 S
C421   C102    1.384   1_565 S
C422   F425    1.361   .     S
C422   C120    1.384   1_565 S
F423   C318    1.365   1_655 S
N433   Zn449   2.028   .     S
N434   Zn450   2.028   .     S
O435   Zn449   1.983   .     S
O441   Zn450   1.983   .     S
O442   Zn450   1.979   .     S
O443   Zn449   1.979   .     S
O444   Zn449   1.978   .     S
O445   Zn450   1.978   .     S
O446   Zn450   1.985   .     S
O447   Zn449   1.985   .     S
C451   C454    1.407   .     S
C451   O492    1.285   .     A
C451   O485    1.286   .     A
C452   C454    1.396   .     A
C452   F476    1.361   .     S
C452   C771    1.384   1_545 S
C453   C471    1.406   .     A
C453   C472    1.396   .     A
C453   C462    1.407   .     S
C454   C470    1.406   .     A
C455   N484    1.373   .     A
C455   C461    1.471   .     S
C456   N483    1.375   .     A
C456   C463    1.475   .     S
C456   C908    1.433   .     S
C457   N483    1.370   .     A
C457   C464    1.471   .     S
C457   C905    1.428   .     S
C458   N484    1.371   .     A
C458   C465    1.474   .     S
C459   C470    1.493   .     S
C459   H477    1.083   .     S
C459   O498    1.221   .     D
C460   H478    1.083   .     S
C460   C471    1.493   .     S
C460   O486    1.221   .     D
C461   H479    1.082   .     S
C461   O487    1.220   .     D
C462   O491    1.286   .     A
C462   O493    1.285   .     A
C463   O488    1.220   .     D
C463   H480    1.079   .     S
C464   H481    1.084   .     S
C464   O489    1.220   .     D
C465   H482    1.082   .     S
C465   O490    1.221   .     D
C466   C468    1.401   .     S
C466   O496    1.289   .     A
C466   O494    1.282   .     A
C467   C469    1.400   .     S
C467   O497    1.289   .     A
C467   O495    1.282   .     A
C468   C569    1.340   1_455 S
C468   F573    1.365   1_455 S
C469   C518    1.340   .     S
C469   F524    1.365   .     S
C470   C772    1.384   1_545 S
C471   C602    1.384   .     S
C472   F475    1.361   .     S
C472   C620    1.384   .     S
F473   C518    1.365   .     S
F474   C569    1.365   1_455 S
N483   Zn499   2.028   .     S
N484   Zn500   2.028   .     S
O485   Zn499   1.983   .     S
O491   Zn500   1.983   .     S
O492   Zn500   1.979   .     S
O493   Zn499   1.979   .     S
O494   Zn499   1.978   .     S
O495   Zn500   1.978   .     S
O496   Zn500   1.985   .     S
O497   Zn499   1.985   .     S
C501   C504    1.407   .     S
C501   O542    1.285   .     A
C501   O535    1.286   .     A
C502   C504    1.396   .     A
C502   F526    1.361   .     S
C502   C821    1.384   1_545 S
C503   C521    1.406   .     A
C503   C522    1.396   .     A
C503   C512    1.407   .     S
C504   C520    1.406   .     A
C505   N534    1.373   .     A
C505   C511    1.471   .     S
C506   N533    1.375   .     A
C506   C513    1.475   .     S
C506   C958    1.433   .     S
C507   N533    1.370   .     A
C507   C514    1.471   .     S
C507   C955    1.428   .     S
C508   N534    1.371   .     A
C508   C515    1.474   .     S
C509   C520    1.493   .     S
C509   H527    1.083   .     S
C509   O548    1.221   .     D
C510   H528    1.083   .     S
C510   C521    1.493   .     S
C510   O536    1.221   .     D
C511   H529    1.082   .     S
C511   O537    1.220   .     D
C512   O541    1.286   .     A
C512   O543    1.285   .     A
C513   O538    1.220   .     D
C513   H530    1.079   .     S
C514   H531    1.084   .     S
C514   O539    1.220   .     D
C515   H532    1.082   .     S
C515   O540    1.221   .     D
C516   C518    1.401   .     S
C516   O546    1.289   .     A
C516   O544    1.282   .     A
C517   C519    1.400   .     S
C517   O547    1.289   .     A
C517   O545    1.282   .     A
C519   C568    1.340   .     S
C519   F574    1.365   .     S
C520   C822    1.384   1_545 S
C521   C652    1.384   .     S
C522   F525    1.361   .     S
C522   C670    1.384   .     S
F523   C568    1.365   .     S
N533   Zn549   2.028   .     S
N534   Zn550   2.028   .     S
O535   Zn549   1.983   .     S
O541   Zn550   1.983   .     S
O542   Zn550   1.979   .     S
O543   Zn549   1.979   .     S
O544   Zn549   1.978   .     S
O545   Zn550   1.978   .     S
O546   Zn550   1.985   .     S
O547   Zn549   1.985   .     S
C551   C554    1.407   .     S
C551   O592    1.285   .     A
C551   O585    1.286   .     A
C552   C554    1.396   .     A
C552   F576    1.361   .     S
C552   C871    1.384   1_545 S
C553   C571    1.406   .     A
C553   C572    1.396   .     A
C553   C562    1.407   .     S
C554   C570    1.406   .     A
C555   N584    1.373   .     A
C555   C561    1.471   .     S
C556   N583    1.375   .     A
C556   C563    1.475   .     S
C556   C1008   1.433   .     S
C557   N583    1.370   .     A
C557   C564    1.471   .     S
C557   C1005   1.428   .     S
C558   N584    1.371   .     A
C558   C565    1.474   .     S
C559   C570    1.493   .     S
C559   H577    1.083   .     S
C559   O598    1.221   .     D
C560   H578    1.083   .     S
C560   C571    1.493   .     S
C560   O586    1.221   .     D
C561   H579    1.082   .     S
C561   O587    1.220   .     D
C562   O591    1.286   .     A
C562   O593    1.285   .     A
C563   O588    1.220   .     D
C563   H580    1.079   .     S
C564   H581    1.084   .     S
C564   O589    1.220   .     D
C565   H582    1.082   .     S
C565   O590    1.221   .     D
C566   C568    1.401   .     S
C566   O596    1.289   .     A
C566   O594    1.282   .     A
C567   C569    1.400   .     S
C567   O597    1.289   .     A
C567   O595    1.282   .     A
C569   C468    1.340   1_655 S
C569   F474    1.365   1_655 S
C570   C872    1.384   1_545 S
C571   C702    1.384   .     S
C572   F575    1.361   .     S
C572   C720    1.384   .     S
F573   C468    1.365   1_655 S
N583   Zn599   2.028   .     S
N584   Zn600   2.028   .     S
O585   Zn599   1.983   .     S
O591   Zn600   1.983   .     S
O592   Zn600   1.979   .     S
O593   Zn599   1.979   .     S
O594   Zn599   1.978   .     S
O595   Zn600   1.978   .     S
O596   Zn600   1.985   .     S
O597   Zn599   1.985   .     S
C601   C604    1.407   .     S
C601   O642    1.285   .     A
C601   O635    1.286   .     A
C602   C604    1.396   .     A
C602   F626    1.361   .     S
C603   C621    1.406   .     A
C603   C622    1.396   .     A
C603   C612    1.407   .     S
C604   C620    1.406   .     A
C605   N634    1.373   .     A
C605   C611    1.471   .     S
C606   N633    1.375   .     A
C606   C613    1.475   .     S
C606   C1058   1.433   .     S
C607   N633    1.370   .     A
C607   C614    1.471   .     S
C607   C1055   1.428   .     S
C608   N634    1.371   .     A
C608   C615    1.474   .     S
C609   C620    1.493   .     S
C609   H627    1.083   .     S
C609   O648    1.221   .     D
C610   H628    1.083   .     S
C610   C621    1.493   .     S
C610   O636    1.221   .     D
C611   H629    1.082   .     S
C611   O637    1.220   .     D
C612   O641    1.286   .     A
C612   O643    1.285   .     A
C613   O638    1.220   .     D
C613   H630    1.079   .     S
C614   H631    1.084   .     S
C614   O639    1.220   .     D
C615   H632    1.082   .     S
C615   O640    1.221   .     D
C616   C618    1.401   .     S
C616   O646    1.289   .     A
C616   O644    1.282   .     A
C617   C619    1.400   .     S
C617   O647    1.289   .     A
C617   O645    1.282   .     A
C618   C719    1.340   1_455 S
C618   F723    1.365   1_455 S
C619   C668    1.340   .     S
C619   F674    1.365   .     S
C621   C752    1.384   .     S
C622   F625    1.361   .     S
C622   C770    1.384   .     S
F623   C668    1.365   .     S
F624   C719    1.365   1_455 S
N633   Zn649   2.028   .     S
N634   Zn650   2.028   .     S
O635   Zn649   1.983   .     S
O641   Zn650   1.983   .     S
O642   Zn650   1.979   .     S
O643   Zn649   1.979   .     S
O644   Zn649   1.978   .     S
O645   Zn650   1.978   .     S
O646   Zn650   1.985   .     S
O647   Zn649   1.985   .     S
C651   C654    1.407   .     S
C651   O692    1.285   .     A
C651   O685    1.286   .     A
C652   C654    1.396   .     A
C652   F676    1.361   .     S
C653   C671    1.406   .     A
C653   C672    1.396   .     A
C653   C662    1.407   .     S
C654   C670    1.406   .     A
C655   N684    1.373   .     A
C655   C661    1.471   .     S
C656   N683    1.375   .     A
C656   C663    1.475   .     S
C656   C1108   1.433   .     S
C657   N683    1.370   .     A
C657   C664    1.471   .     S
C657   C1105   1.428   .     S
C658   N684    1.371   .     A
C658   C665    1.474   .     S
C659   C670    1.493   .     S
C659   H677    1.083   .     S
C659   O698    1.221   .     D
C660   H678    1.083   .     S
C660   C671    1.493   .     S
C660   O686    1.221   .     D
C661   H679    1.082   .     S
C661   O687    1.220   .     D
C662   O691    1.286   .     A
C662   O693    1.285   .     A
C663   O688    1.220   .     D
C663   H680    1.079   .     S
C664   H681    1.084   .     S
C664   O689    1.220   .     D
C665   H682    1.082   .     S
C665   O690    1.221   .     D
C666   C668    1.401   .     S
C666   O696    1.289   .     A
C666   O694    1.282   .     A
C667   C669    1.400   .     S
C667   O697    1.289   .     A
C667   O695    1.282   .     A
C669   C718    1.340   .     S
C669   F724    1.365   .     S
C671   C802    1.384   .     S
C672   F675    1.361   .     S
C672   C820    1.384   .     S
F673   C718    1.365   .     S
N683   Zn699   2.028   .     S
N684   Zn700   2.028   .     S
O685   Zn699   1.983   .     S
O691   Zn700   1.983   .     S
O692   Zn700   1.979   .     S
O693   Zn699   1.979   .     S
O694   Zn699   1.978   .     S
O695   Zn700   1.978   .     S
O696   Zn700   1.985   .     S
O697   Zn699   1.985   .     S
C701   C704    1.407   .     S
C701   O742    1.285   .     A
C701   O735    1.286   .     A
C702   C704    1.396   .     A
C702   F726    1.361   .     S
C703   C721    1.406   .     A
C703   C722    1.396   .     A
C703   C712    1.407   .     S
C704   C720    1.406   .     A
C705   N734    1.373   .     A
C705   C711    1.471   .     S
C706   N733    1.375   .     A
C706   C713    1.475   .     S
C706   C1158   1.433   .     S
C707   N733    1.370   .     A
C707   C714    1.471   .     S
C707   C1155   1.428   .     S
C708   N734    1.371   .     A
C708   C715    1.474   .     S
C709   C720    1.493   .     S
C709   H727    1.083   .     S
C709   O748    1.221   .     D
C710   H728    1.083   .     S
C710   C721    1.493   .     S
C710   O736    1.221   .     D
C711   H729    1.082   .     S
C711   O737    1.220   .     D
C712   O741    1.286   .     A
C712   O743    1.285   .     A
C713   O738    1.220   .     D
C713   H730    1.079   .     S
C714   H731    1.084   .     S
C714   O739    1.220   .     D
C715   H732    1.082   .     S
C715   O740    1.221   .     D
C716   C718    1.401   .     S
C716   O746    1.289   .     A
C716   O744    1.282   .     A
C717   C719    1.400   .     S
C717   O747    1.289   .     A
C717   O745    1.282   .     A
C719   C618    1.340   1_655 S
C719   F624    1.365   1_655 S
C721   C852    1.384   .     S
C722   F725    1.361   .     S
C722   C870    1.384   .     S
F723   C618    1.365   1_655 S
N733   Zn749   2.028   .     S
N734   Zn750   2.028   .     S
O735   Zn749   1.983   .     S
O741   Zn750   1.983   .     S
O742   Zn750   1.979   .     S
O743   Zn749   1.979   .     S
O744   Zn749   1.978   .     S
O745   Zn750   1.978   .     S
O746   Zn750   1.985   .     S
O747   Zn749   1.985   .     S
C751   C754    1.407   .     S
C751   O792    1.285   .     A
C751   O785    1.286   .     A
C752   C754    1.396   .     A
C752   F776    1.361   .     S
C753   C771    1.406   .     A
C753   C772    1.396   .     A
C753   C762    1.407   .     S
C754   C770    1.406   .     A
C755   N784    1.373   .     A
C755   C761    1.471   .     S
C756   N783    1.375   .     A
C756   C763    1.475   .     S
C756   C1208   1.433   .     S
C757   N783    1.370   .     A
C757   C764    1.471   .     S
C757   C1205   1.428   .     S
C758   N784    1.371   .     A
C758   C765    1.474   .     S
C759   C770    1.493   .     S
C759   H777    1.083   .     S
C759   O798    1.221   .     D
C760   H778    1.083   .     S
C760   C771    1.493   .     S
C760   O786    1.221   .     D
C761   H779    1.082   .     S
C761   O787    1.220   .     D
C762   O791    1.286   .     A
C762   O793    1.285   .     A
C763   O788    1.220   .     D
C763   H780    1.079   .     S
C764   H781    1.084   .     S
C764   O789    1.220   .     D
C765   H782    1.082   .     S
C765   O790    1.221   .     D
C766   C768    1.401   .     S
C766   O796    1.289   .     A
C766   O794    1.282   .     A
C767   C769    1.400   .     S
C767   O797    1.289   .     A
C767   O795    1.282   .     A
C768   C869    1.340   1_455 S
C768   F873    1.365   1_455 S
C769   C818    1.340   .     S
C769   F824    1.365   .     S
C771   C452    1.384   1_565 S
C772   F775    1.361   .     S
C772   C470    1.384   1_565 S
F773   C818    1.365   .     S
F774   C869    1.365   1_455 S
N783   Zn799   2.028   .     S
N784   Zn800   2.028   .     S
O785   Zn799   1.983   .     S
O791   Zn800   1.983   .     S
O792   Zn800   1.979   .     S
O793   Zn799   1.979   .     S
O794   Zn799   1.978   .     S
O795   Zn800   1.978   .     S
O796   Zn800   1.985   .     S
O797   Zn799   1.985   .     S
C801   C804    1.407   .     S
C801   O842    1.285   .     A
C801   O835    1.286   .     A
C802   C804    1.396   .     A
C802   F826    1.361   .     S
C803   C821    1.406   .     A
C803   C822    1.396   .     A
C803   C812    1.407   .     S
C804   C820    1.406   .     A
C805   N834    1.373   .     A
C805   C811    1.471   .     S
C806   N833    1.375   .     A
C806   C813    1.475   .     S
C806   C1258   1.433   .     S
C807   N833    1.370   .     A
C807   C814    1.471   .     S
C807   C1255   1.428   .     S
C808   N834    1.371   .     A
C808   C815    1.474   .     S
C809   C820    1.493   .     S
C809   H827    1.083   .     S
C809   O848    1.221   .     D
C810   H828    1.083   .     S
C810   C821    1.493   .     S
C810   O836    1.221   .     D
C811   H829    1.082   .     S
C811   O837    1.220   .     D
C812   O841    1.286   .     A
C812   O843    1.285   .     A
C813   O838    1.220   .     D
C813   H830    1.079   .     S
C814   H831    1.084   .     S
C814   O839    1.220   .     D
C815   H832    1.082   .     S
C815   O840    1.221   .     D
C816   C818    1.401   .     S
C816   O846    1.289   .     A
C816   O844    1.282   .     A
C817   C819    1.400   .     S
C817   O847    1.289   .     A
C817   O845    1.282   .     A
C819   C868    1.340   .     S
C819   F874    1.365   .     S
C821   C502    1.384   1_565 S
C822   F825    1.361   .     S
C822   C520    1.384   1_565 S
F823   C868    1.365   .     S
N833   Zn849   2.028   .     S
N834   Zn850   2.028   .     S
O835   Zn849   1.983   .     S
O841   Zn850   1.983   .     S
O842   Zn850   1.979   .     S
O843   Zn849   1.979   .     S
O844   Zn849   1.978   .     S
O845   Zn850   1.978   .     S
O846   Zn850   1.985   .     S
O847   Zn849   1.985   .     S
C851   C854    1.407   .     S
C851   O892    1.285   .     A
C851   O885    1.286   .     A
C852   C854    1.396   .     A
C852   F876    1.361   .     S
C853   C871    1.406   .     A
C853   C872    1.396   .     A
C853   C862    1.407   .     S
C854   C870    1.406   .     A
C855   N884    1.373   .     A
C855   C861    1.471   .     S
C856   N883    1.375   .     A
C856   C863    1.475   .     S
C856   C1308   1.433   .     S
C857   N883    1.370   .     A
C857   C864    1.471   .     S
C857   C1305   1.428   .     S
C858   N884    1.371   .     A
C858   C865    1.474   .     S
C859   C870    1.493   .     S
C859   H877    1.083   .     S
C859   O898    1.221   .     D
C860   H878    1.083   .     S
C860   C871    1.493   .     S
C860   O886    1.221   .     D
C861   H879    1.082   .     S
C861   O887    1.220   .     D
C862   O891    1.286   .     A
C862   O893    1.285   .     A
C863   O888    1.220   .     D
C863   H880    1.079   .     S
C864   H881    1.084   .     S
C864   O889    1.220   .     D
C865   H882    1.082   .     S
C865   O890    1.221   .     D
C866   C868    1.401   .     S
C866   O896    1.289   .     A
C866   O894    1.282   .     A
C867   C869    1.400   .     S
C867   O897    1.289   .     A
C867   O895    1.282   .     A
C869   C768    1.340   1_655 S
C869   F774    1.365   1_655 S
C871   C552    1.384   1_565 S
C872   F875    1.361   .     S
C872   C570    1.384   1_565 S
F873   C768    1.365   1_655 S
N883   Zn899   2.028   .     S
N884   Zn900   2.028   .     S
O885   Zn899   1.983   .     S
O891   Zn900   1.983   .     S
O892   Zn900   1.979   .     S
O893   Zn899   1.979   .     S
O894   Zn899   1.978   .     S
O895   Zn900   1.978   .     S
O896   Zn900   1.985   .     S
O897   Zn899   1.985   .     S
C901   C904    1.407   .     S
C901   O942    1.285   .     A
C901   O935    1.286   .     A
C902   C904    1.396   .     A
C902   F926    1.361   .     S
C902   C1221   1.384   1_545 S
C903   C921    1.406   .     A
C903   C922    1.396   .     A
C903   C912    1.407   .     S
C904   C920    1.406   .     A
C905   N934    1.373   .     A
C905   C911    1.471   .     S
C906   N933    1.375   .     A
C906   C913    1.475   .     S
C906   C8      1.433   1_556 S
C907   N933    1.370   .     A
C907   C914    1.471   .     S
C907   C5      1.428   1_556 S
C908   N934    1.371   .     A
C908   C915    1.474   .     S
C909   C920    1.493   .     S
C909   H927    1.083   .     S
C909   O948    1.221   .     D
C910   H928    1.083   .     S
C910   C921    1.493   .     S
C910   O936    1.221   .     D
C911   H929    1.082   .     S
C911   O937    1.220   .     D
C912   O941    1.286   .     A
C912   O943    1.285   .     A
C913   O938    1.220   .     D
C913   H930    1.079   .     S
C914   H931    1.084   .     S
C914   O939    1.220   .     D
C915   H932    1.082   .     S
C915   O940    1.221   .     D
C916   C918    1.401   .     S
C916   O946    1.289   .     A
C916   O944    1.282   .     A
C917   C919    1.400   .     S
C917   O947    1.289   .     A
C917   O945    1.282   .     A
C918   C1019   1.340   1_455 S
C918   F1023   1.365   1_455 S
C919   C968    1.340   .     S
C919   F974    1.365   .     S
C920   C1222   1.384   1_545 S
C921   C1052   1.384   .     S
C922   F925    1.361   .     S
C922   C1070   1.384   .     S
F923   C968    1.365   .     S
F924   C1019   1.365   1_455 S
N933   Zn949   2.028   .     S
N934   Zn950   2.028   .     S
O935   Zn949   1.983   .     S
O941   Zn950   1.983   .     S
O942   Zn950   1.979   .     S
O943   Zn949   1.979   .     S
O944   Zn949   1.978   .     S
O945   Zn950   1.978   .     S
O946   Zn950   1.985   .     S
O947   Zn949   1.985   .     S
C951   C954    1.407   .     S
C951   O992    1.285   .     A
C951   O985    1.286   .     A
C952   C954    1.396   .     A
C952   F976    1.361   .     S
C952   C1271   1.384   1_545 S
C953   C971    1.406   .     A
C953   C972    1.396   .     A
C953   C962    1.407   .     S
C954   C970    1.406   .     A
C955   N984    1.373   .     A
C955   C961    1.471   .     S
C956   N983    1.375   .     A
C956   C963    1.475   .     S
C956   C58     1.433   1_556 S
C957   N983    1.370   .     A
C957   C964    1.471   .     S
C957   C55     1.428   1_556 S
C958   N984    1.371   .     A
C958   C965    1.474   .     S
C959   C970    1.493   .     S
C959   H977    1.083   .     S
C959   O998    1.221   .     D
C960   H978    1.083   .     S
C960   C971    1.493   .     S
C960   O986    1.221   .     D
C961   H979    1.082   .     S
C961   O987    1.220   .     D
C962   O991    1.286   .     A
C962   O993    1.285   .     A
C963   O988    1.220   .     D
C963   H980    1.079   .     S
C964   H981    1.084   .     S
C964   O989    1.220   .     D
C965   H982    1.082   .     S
C965   O990    1.221   .     D
C966   C968    1.401   .     S
C966   O996    1.289   .     A
C966   O994    1.282   .     A
C967   C969    1.400   .     S
C967   O997    1.289   .     A
C967   O995    1.282   .     A
C969   C1018   1.340   .     S
C969   F1024   1.365   .     S
C970   C1272   1.384   1_545 S
C971   C1102   1.384   .     S
C972   F975    1.361   .     S
C972   C1120   1.384   .     S
F973   C1018   1.365   .     S
N983   Zn999   2.028   .     S
N984   Zn1000  2.028   .     S
O985   Zn999   1.983   .     S
O991   Zn1000  1.983   .     S
O992   Zn1000  1.979   .     S
O993   Zn999   1.979   .     S
O994   Zn999   1.978   .     S
O995   Zn1000  1.978   .     S
O996   Zn1000  1.985   .     S
O997   Zn999   1.985   .     S
C1001  C1004   1.407   .     S
C1001  O1042   1.285   .     A
C1001  O1035   1.286   .     A
C1002  C1004   1.396   .     A
C1002  F1026   1.361   .     S
C1002  C1321   1.384   1_545 S
C1003  C1021   1.406   .     A
C1003  C1022   1.396   .     A
C1003  C1012   1.407   .     S
C1004  C1020   1.406   .     A
C1005  N1034   1.373   .     A
C1005  C1011   1.471   .     S
C1006  N1033   1.375   .     A
C1006  C1013   1.475   .     S
C1006  C108    1.433   1_556 S
C1007  N1033   1.370   .     A
C1007  C1014   1.471   .     S
C1007  C105    1.428   1_556 S
C1008  N1034   1.371   .     A
C1008  C1015   1.474   .     S
C1009  C1020   1.493   .     S
C1009  H1027   1.083   .     S
C1009  O1048   1.221   .     D
C1010  H1028   1.083   .     S
C1010  C1021   1.493   .     S
C1010  O1036   1.221   .     D
C1011  H1029   1.082   .     S
C1011  O1037   1.220   .     D
C1012  O1041   1.286   .     A
C1012  O1043   1.285   .     A
C1013  O1038   1.220   .     D
C1013  H1030   1.079   .     S
C1014  H1031   1.084   .     S
C1014  O1039   1.220   .     D
C1015  H1032   1.082   .     S
C1015  O1040   1.221   .     D
C1016  C1018   1.401   .     S
C1016  O1046   1.289   .     A
C1016  O1044   1.282   .     A
C1017  C1019   1.400   .     S
C1017  O1047   1.289   .     A
C1017  O1045   1.282   .     A
C1019  C918    1.340   1_655 S
C1019  F924    1.365   1_655 S
C1020  C1322   1.384   1_545 S
C1021  C1152   1.384   .     S
C1022  F1025   1.361   .     S
C1022  C1170   1.384   .     S
F1023  C918    1.365   1_655 S
N1033  Zn1049  2.028   .     S
N1034  Zn1050  2.028   .     S
O1035  Zn1049  1.983   .     S
O1041  Zn1050  1.983   .     S
O1042  Zn1050  1.979   .     S
O1043  Zn1049  1.979   .     S
O1044  Zn1049  1.978   .     S
O1045  Zn1050  1.978   .     S
O1046  Zn1050  1.985   .     S
O1047  Zn1049  1.985   .     S
C1051  C1054   1.407   .     S
C1051  O1092   1.285   .     A
C1051  O1085   1.286   .     A
C1052  C1054   1.396   .     A
C1052  F1076   1.361   .     S
C1053  C1071   1.406   .     A
C1053  C1072   1.396   .     A
C1053  C1062   1.407   .     S
C1054  C1070   1.406   .     A
C1055  N1084   1.373   .     A
C1055  C1061   1.471   .     S
C1056  N1083   1.375   .     A
C1056  C1063   1.475   .     S
C1056  C158    1.433   1_556 S
C1057  N1083   1.370   .     A
C1057  C1064   1.471   .     S
C1057  C155    1.428   1_556 S
C1058  N1084   1.371   .     A
C1058  C1065   1.474   .     S
C1059  C1070   1.493   .     S
C1059  H1077   1.083   .     S
C1059  O1098   1.221   .     D
C1060  H1078   1.083   .     S
C1060  C1071   1.493   .     S
C1060  O1086   1.221   .     D
C1061  H1079   1.082   .     S
C1061  O1087   1.220   .     D
C1062  O1091   1.286   .     A
C1062  O1093   1.285   .     A
C1063  O1088   1.220   .     D
C1063  H1080   1.079   .     S
C1064  H1081   1.084   .     S
C1064  O1089   1.220   .     D
C1065  H1082   1.082   .     S
C1065  O1090   1.221   .     D
C1066  C1068   1.401   .     S
C1066  O1096   1.289   .     A
C1066  O1094   1.282   .     A
C1067  C1069   1.400   .     S
C1067  O1097   1.289   .     A
C1067  O1095   1.282   .     A
C1068  C1169   1.340   1_455 S
C1068  F1173   1.365   1_455 S
C1069  C1118   1.340   .     S
C1069  F1124   1.365   .     S
C1071  C1202   1.384   .     S
C1072  F1075   1.361   .     S
C1072  C1220   1.384   .     S
F1073  C1118   1.365   .     S
F1074  C1169   1.365   1_455 S
N1083  Zn1099  2.028   .     S
N1084  Zn1100  2.028   .     S
O1085  Zn1099  1.983   .     S
O1091  Zn1100  1.983   .     S
O1092  Zn1100  1.979   .     S
O1093  Zn1099  1.979   .     S
O1094  Zn1099  1.978   .     S
O1095  Zn1100  1.978   .     S
O1096  Zn1100  1.985   .     S
O1097  Zn1099  1.985   .     S
C1101  C1104   1.407   .     S
C1101  O1142   1.285   .     A
C1101  O1135   1.286   .     A
C1102  C1104   1.396   .     A
C1102  F1126   1.361   .     S
C1103  C1121   1.406   .     A
C1103  C1122   1.396   .     A
C1103  C1112   1.407   .     S
C1104  C1120   1.406   .     A
C1105  N1134   1.373   .     A
C1105  C1111   1.471   .     S
C1106  N1133   1.375   .     A
C1106  C1113   1.475   .     S
C1106  C208    1.433   1_556 S
C1107  N1133   1.370   .     A
C1107  C1114   1.471   .     S
C1107  C205    1.428   1_556 S
C1108  N1134   1.371   .     A
C1108  C1115   1.474   .     S
C1109  C1120   1.493   .     S
C1109  H1127   1.083   .     S
C1109  O1148   1.221   .     D
C1110  H1128   1.083   .     S
C1110  C1121   1.493   .     S
C1110  O1136   1.221   .     D
C1111  H1129   1.082   .     S
C1111  O1137   1.220   .     D
C1112  O1141   1.286   .     A
C1112  O1143   1.285   .     A
C1113  O1138   1.220   .     D
C1113  H1130   1.079   .     S
C1114  H1131   1.084   .     S
C1114  O1139   1.220   .     D
C1115  H1132   1.082   .     S
C1115  O1140   1.221   .     D
C1116  C1118   1.401   .     S
C1116  O1146   1.289   .     A
C1116  O1144   1.282   .     A
C1117  C1119   1.400   .     S
C1117  O1147   1.289   .     A
C1117  O1145   1.282   .     A
C1119  C1168   1.340   .     S
C1119  F1174   1.365   .     S
C1121  C1252   1.384   .     S
C1122  F1125   1.361   .     S
C1122  C1270   1.384   .     S
F1123  C1168   1.365   .     S
N1133  Zn1149  2.028   .     S
N1134  Zn1150  2.028   .     S
O1135  Zn1149  1.983   .     S
O1141  Zn1150  1.983   .     S
O1142  Zn1150  1.979   .     S
O1143  Zn1149  1.979   .     S
O1144  Zn1149  1.978   .     S
O1145  Zn1150  1.978   .     S
O1146  Zn1150  1.985   .     S
O1147  Zn1149  1.985   .     S
C1151  C1154   1.407   .     S
C1151  O1192   1.285   .     A
C1151  O1185   1.286   .     A
C1152  C1154   1.396   .     A
C1152  F1176   1.361   .     S
C1153  C1171   1.406   .     A
C1153  C1172   1.396   .     A
C1153  C1162   1.407   .     S
C1154  C1170   1.406   .     A
C1155  N1184   1.373   .     A
C1155  C1161   1.471   .     S
C1156  N1183   1.375   .     A
C1156  C1163   1.475   .     S
C1156  C258    1.433   1_556 S
C1157  N1183   1.370   .     A
C1157  C1164   1.471   .     S
C1157  C255    1.428   1_556 S
C1158  N1184   1.371   .     A
C1158  C1165   1.474   .     S
C1159  C1170   1.493   .     S
C1159  H1177   1.083   .     S
C1159  O1198   1.221   .     D
C1160  H1178   1.083   .     S
C1160  C1171   1.493   .     S
C1160  O1186   1.221   .     D
C1161  H1179   1.082   .     S
C1161  O1187   1.220   .     D
C1162  O1191   1.286   .     A
C1162  O1193   1.285   .     A
C1163  O1188   1.220   .     D
C1163  H1180   1.079   .     S
C1164  H1181   1.084   .     S
C1164  O1189   1.220   .     D
C1165  H1182   1.082   .     S
C1165  O1190   1.221   .     D
C1166  C1168   1.401   .     S
C1166  O1196   1.289   .     A
C1166  O1194   1.282   .     A
C1167  C1169   1.400   .     S
C1167  O1197   1.289   .     A
C1167  O1195   1.282   .     A
C1169  C1068   1.340   1_655 S
C1169  F1074   1.365   1_655 S
C1171  C1302   1.384   .     S
C1172  F1175   1.361   .     S
C1172  C1320   1.384   .     S
F1173  C1068   1.365   1_655 S
N1183  Zn1199  2.028   .     S
N1184  Zn1200  2.028   .     S
O1185  Zn1199  1.983   .     S
O1191  Zn1200  1.983   .     S
O1192  Zn1200  1.979   .     S
O1193  Zn1199  1.979   .     S
O1194  Zn1199  1.978   .     S
O1195  Zn1200  1.978   .     S
O1196  Zn1200  1.985   .     S
O1197  Zn1199  1.985   .     S
C1201  C1204   1.407   .     S
C1201  O1242   1.285   .     A
C1201  O1235   1.286   .     A
C1202  C1204   1.396   .     A
C1202  F1226   1.361   .     S
C1203  C1221   1.406   .     A
C1203  C1222   1.396   .     A
C1203  C1212   1.407   .     S
C1204  C1220   1.406   .     A
C1205  N1234   1.373   .     A
C1205  C1211   1.471   .     S
C1206  N1233   1.375   .     A
C1206  C1213   1.475   .     S
C1206  C308    1.433   1_556 S
C1207  N1233   1.370   .     A
C1207  C1214   1.471   .     S
C1207  C305    1.428   1_556 S
C1208  N1234   1.371   .     A
C1208  C1215   1.474   .     S
C1209  C1220   1.493   .     S
C1209  H1227   1.083   .     S
C1209  O1248   1.221   .     D
C1210  H1228   1.083   .     S
C1210  C1221   1.493   .     S
C1210  O1236   1.221   .     D
C1211  H1229   1.082   .     S
C1211  O1237   1.220   .     D
C1212  O1241   1.286   .     A
C1212  O1243   1.285   .     A
C1213  O1238   1.220   .     D
C1213  H1230   1.079   .     S
C1214  H1231   1.084   .     S
C1214  O1239   1.220   .     D
C1215  H1232   1.082   .     S
C1215  O1240   1.221   .     D
C1216  C1218   1.401   .     S
C1216  O1246   1.289   .     A
C1216  O1244   1.282   .     A
C1217  C1219   1.400   .     S
C1217  O1247   1.289   .     A
C1217  O1245   1.282   .     A
C1218  C1319   1.340   1_455 S
C1218  F1323   1.365   1_455 S
C1219  C1268   1.340   .     S
C1219  F1274   1.365   .     S
C1221  C902    1.384   1_565 S
C1222  F1225   1.361   .     S
C1222  C920    1.384   1_565 S
F1223  C1268   1.365   .     S
F1224  C1319   1.365   1_455 S
N1233  Zn1249  2.028   .     S
N1234  Zn1250  2.028   .     S
O1235  Zn1249  1.983   .     S
O1241  Zn1250  1.983   .     S
O1242  Zn1250  1.979   .     S
O1243  Zn1249  1.979   .     S
O1244  Zn1249  1.978   .     S
O1245  Zn1250  1.978   .     S
O1246  Zn1250  1.985   .     S
O1247  Zn1249  1.985   .     S
C1251  C1254   1.407   .     S
C1251  O1292   1.285   .     A
C1251  O1285   1.286   .     A
C1252  C1254   1.396   .     A
C1252  F1276   1.361   .     S
C1253  C1271   1.406   .     A
C1253  C1272   1.396   .     A
C1253  C1262   1.407   .     S
C1254  C1270   1.406   .     A
C1255  N1284   1.373   .     A
C1255  C1261   1.471   .     S
C1256  N1283   1.375   .     A
C1256  C1263   1.475   .     S
C1256  C358    1.433   1_556 S
C1257  N1283   1.370   .     A
C1257  C1264   1.471   .     S
C1257  C355    1.428   1_556 S
C1258  N1284   1.371   .     A
C1258  C1265   1.474   .     S
C1259  C1270   1.493   .     S
C1259  H1277   1.083   .     S
C1259  O1298   1.221   .     D
C1260  H1278   1.083   .     S
C1260  C1271   1.493   .     S
C1260  O1286   1.221   .     D
C1261  H1279   1.082   .     S
C1261  O1287   1.220   .     D
C1262  O1291   1.286   .     A
C1262  O1293   1.285   .     A
C1263  O1288   1.220   .     D
C1263  H1280   1.079   .     S
C1264  H1281   1.084   .     S
C1264  O1289   1.220   .     D
C1265  H1282   1.082   .     S
C1265  O1290   1.221   .     D
C1266  C1268   1.401   .     S
C1266  O1296   1.289   .     A
C1266  O1294   1.282   .     A
C1267  C1269   1.400   .     S
C1267  O1297   1.289   .     A
C1267  O1295   1.282   .     A
C1269  C1318   1.340   .     S
C1269  F1324   1.365   .     S
C1271  C952    1.384   1_565 S
C1272  F1275   1.361   .     S
C1272  C970    1.384   1_565 S
F1273  C1318   1.365   .     S
N1283  Zn1299  2.028   .     S
N1284  Zn1300  2.028   .     S
O1285  Zn1299  1.983   .     S
O1291  Zn1300  1.983   .     S
O1292  Zn1300  1.979   .     S
O1293  Zn1299  1.979   .     S
O1294  Zn1299  1.978   .     S
O1295  Zn1300  1.978   .     S
O1296  Zn1300  1.985   .     S
O1297  Zn1299  1.985   .     S
C1301  C1304   1.407   .     S
C1301  O1342   1.285   .     A
C1301  O1335   1.286   .     A
C1302  C1304   1.396   .     A
C1302  F1326   1.361   .     S
C1303  C1321   1.406   .     A
C1303  C1322   1.396   .     A
C1303  C1312   1.407   .     S
C1304  C1320   1.406   .     A
C1305  N1334   1.373   .     A
C1305  C1311   1.471   .     S
C1306  N1333   1.375   .     A
C1306  C1313   1.475   .     S
C1306  C408    1.433   1_556 S
C1307  N1333   1.370   .     A
C1307  C1314   1.471   .     S
C1307  C405    1.428   1_556 S
C1308  N1334   1.371   .     A
C1308  C1315   1.474   .     S
C1309  C1320   1.493   .     S
C1309  H1327   1.083   .     S
C1309  O1348   1.221   .     D
C1310  H1328   1.083   .     S
C1310  C1321   1.493   .     S
C1310  O1336   1.221   .     D
C1311  H1329   1.082   .     S
C1311  O1337   1.220   .     D
C1312  O1341   1.286   .     A
C1312  O1343   1.285   .     A
C1313  O1338   1.220   .     D
C1313  H1330   1.079   .     S
C1314  H1331   1.084   .     S
C1314  O1339   1.220   .     D
C1315  H1332   1.082   .     S
C1315  O1340   1.221   .     D
C1316  C1318   1.401   .     S
C1316  O1346   1.289   .     A
C1316  O1344   1.282   .     A
C1317  C1319   1.400   .     S
C1317  O1347   1.289   .     A
C1317  O1345   1.282   .     A
C1319  C1218   1.340   1_655 S
C1319  F1224   1.365   1_655 S
C1321  C1002   1.384   1_565 S
C1322  F1325   1.361   .     S
C1322  C1020   1.384   1_565 S
F1323  C1218   1.365   1_655 S
N1333  Zn1349  2.028   .     S
N1334  Zn1350  2.028   .     S
O1335  Zn1349  1.983   .     S
O1341  Zn1350  1.983   .     S
O1342  Zn1350  1.979   .     S
O1343  Zn1349  1.979   .     S
O1344  Zn1349  1.978   .     S
O1345  Zn1350  1.978   .     S
O1346  Zn1350  1.985   .     S
O1347  Zn1349  1.985   .     S
