data_str_m2_o1_o17_pcu_sym.5
_audit_creation_date              2020-01-03
_audit_creation_method            'Materials Studio'
_symmetry_space_group_name_H-M    'P1'
_symmetry_Int_Tables_number       1
_symmetry_cell_setting            triclinic
loop_
_symmetry_equiv_pos_as_xyz
  x,y,z
_cell_length_a                    32.4585
_cell_length_b                    28.6036
_cell_length_c                    30.1222
_cell_angle_alpha                 89.8076
_cell_angle_beta                  89.9172
_cell_angle_gamma                 89.9150
loop_
_atom_site_label
_atom_site_type_symbol
_atom_site_fract_x
_atom_site_fract_y
_atom_site_fract_z
_atom_site_U_iso_or_equiv
_atom_site_adp_type
_atom_site_occupancy
C1     C     0.08738   0.16670   0.24959   0.00000  Uiso   1.00
C2     C     0.04275   0.16671   0.24955   0.00000  Uiso   1.00
C3     C     0.14092   0.02491   0.22263   0.00000  Uiso   1.00
C4     C     0.19241   0.30842   0.27737   0.00000  Uiso   1.00
C5     C     0.19240   0.02464   0.27737   0.00000  Uiso   1.00
C6     C     0.14093   0.30869   0.22263   0.00000  Uiso   1.00
C7     C     0.16763   0.16676   0.16456   0.00000  Uiso   1.00
C8     C     0.16571   0.16658   0.33544   0.00000  Uiso   1.00
C9     C     0.20029   0.18025   0.40563   0.00000  Uiso   1.00
C10    C     0.13304   0.15308   0.09437   0.00000  Uiso   1.00
C11    C     0.16482   0.16633   0.38360   0.00000  Uiso   1.00
C12    C     0.24596   0.16664   0.25041   0.00000  Uiso   1.00
C13    C     0.16852   0.16700   0.11640   0.00000  Uiso   1.00
C14    C     0.12937   0.15234   0.40670   0.00000  Uiso   1.00
C15    C     0.20396   0.18099   0.09330   0.00000  Uiso   1.00
C16    C     0.12954   0.15336   0.45375   0.00000  Uiso   1.00
C17    C     0.20379   0.17998   0.04625   0.00000  Uiso   1.00
C18    C     0.16625   0.16654   0.47646   0.00000  Uiso   1.00
C19    C     0.16708   0.16679   0.02354   0.00000  Uiso   1.00
C20    C     0.20212   0.17947   0.45213   0.00000  Uiso   1.00
C21    C     0.13121   0.15387   0.04787   0.00000  Uiso   1.00
C22    C     0.09418   0.14197   0.47879   0.00000  Uiso   1.00
C23    C     0.09466   0.14230   0.02497   0.00000  Uiso   1.00
C24    C     0.23915   0.19136   0.02121   0.00000  Uiso   1.00
C25    C     0.23868   0.19104   0.47503   0.00000  Uiso   1.00
C26    C     0.02136   0.12425   0.24791   0.00000  Uiso   1.00
C27    C     0.31198   0.20908   0.25209   0.00000  Uiso   1.00
C28    C     0.31210   0.12420   0.24840   0.00000  Uiso   1.00
C29    C     0.02124   0.20913   0.25160   0.00000  Uiso   1.00
C30    C     0.29058   0.16662   0.25045   0.00000  Uiso   1.00
Cu31   Cu    0.16667   0.21355   0.25000   0.00000  Uiso   1.00
Cu32   Cu    0.16667   0.11978   0.25000   0.00000  Uiso   1.00
F33    F     0.23270   0.19422   0.38042   0.00000  Uiso   1.00
F34    F     0.10063   0.13911   0.11958   0.00000  Uiso   1.00
F35    F     0.05798   0.13107   0.45920   0.00000  Uiso   1.00
F36    F     0.27535   0.20226   0.04080   0.00000  Uiso   1.00
F37    F     0.11503   0.04824   0.19509   0.00000  Uiso   1.00
F38    F     0.21830   0.28509   0.30491   0.00000  Uiso   1.00
F39    F     0.21828   0.04771   0.30492   0.00000  Uiso   1.00
F40    F     0.11505   0.28563   0.19508   0.00000  Uiso   1.00
H41    H     0.03744   0.09108   0.24630   0.00000  Uiso   1.00
H42    H     0.29590   0.24225   0.25370   0.00000  Uiso   1.00
H43    H     0.29612   0.09102   0.24704   0.00000  Uiso   1.00
H44    H     0.03722   0.24231   0.25296   0.00000  Uiso   1.00
I45    I     0.07717   0.13106   0.36737   0.00000  Uiso   1.00
I46    I     0.25617   0.20227   0.13263   0.00000  Uiso   1.00
I47    I     0.03654   0.12628   0.05564   0.00000  Uiso   1.00
I48    I     0.29679   0.20705   0.44436   0.00000  Uiso   1.00
N49    N     0.16667   0.28402   0.25000   0.00000  Uiso   1.00
N50    N     0.16667   0.04931   0.25000   0.00000  Uiso   1.00
O51    O     0.10655   0.20625   0.24999   0.00000  Uiso   1.00
O52    O     0.22679   0.12709   0.25001   0.00000  Uiso   1.00
O53    O     0.22679   0.20625   0.25001   0.00000  Uiso   1.00
O54    O     0.10655   0.12709   0.24999   0.00000  Uiso   1.00
O55    O     0.16666   0.20627   0.18513   0.00000  Uiso   1.00
O56    O     0.16668   0.12707   0.31487   0.00000  Uiso   1.00
O57    O     0.16668   0.20627   0.31487   0.00000  Uiso   1.00
O58    O     0.16666   0.12707   0.18513   0.00000  Uiso   1.00
C59    C     0.42071   0.16670   0.24959   0.00000  Uiso   1.00
C60    C     0.37608   0.16671   0.24955   0.00000  Uiso   1.00
C61    C     0.47426   0.02491   0.22263   0.00000  Uiso   1.00
C62    C     0.52574   0.30842   0.27737   0.00000  Uiso   1.00
C63    C     0.52574   0.02464   0.27737   0.00000  Uiso   1.00
C64    C     0.47426   0.30869   0.22263   0.00000  Uiso   1.00
C65    C     0.50096   0.16676   0.16456   0.00000  Uiso   1.00
C66    C     0.49904   0.16658   0.33544   0.00000  Uiso   1.00
C67    C     0.53362   0.18025   0.40563   0.00000  Uiso   1.00
C68    C     0.46638   0.15308   0.09437   0.00000  Uiso   1.00
C69    C     0.49815   0.16633   0.38360   0.00000  Uiso   1.00
C70    C     0.57929   0.16664   0.25041   0.00000  Uiso   1.00
C71    C     0.50185   0.16700   0.11640   0.00000  Uiso   1.00
C72    C     0.46271   0.15234   0.40670   0.00000  Uiso   1.00
C73    C     0.53729   0.18099   0.09330   0.00000  Uiso   1.00
C74    C     0.46288   0.15336   0.45375   0.00000  Uiso   1.00
C75    C     0.53712   0.17998   0.04625   0.00000  Uiso   1.00
C76    C     0.49958   0.16654   0.47646   0.00000  Uiso   1.00
C77    C     0.50042   0.16679   0.02354   0.00000  Uiso   1.00
C78    C     0.53545   0.17947   0.45213   0.00000  Uiso   1.00
C79    C     0.46455   0.15387   0.04787   0.00000  Uiso   1.00
C80    C     0.42752   0.14197   0.47879   0.00000  Uiso   1.00
C81    C     0.42799   0.14230   0.02497   0.00000  Uiso   1.00
C82    C     0.57248   0.19136   0.02121   0.00000  Uiso   1.00
C83    C     0.57201   0.19104   0.47503   0.00000  Uiso   1.00
C84    C     0.35469   0.12425   0.24791   0.00000  Uiso   1.00
C85    C     0.64531   0.20908   0.25209   0.00000  Uiso   1.00
C86    C     0.64543   0.12420   0.24840   0.00000  Uiso   1.00
C87    C     0.35457   0.20913   0.25160   0.00000  Uiso   1.00
C88    C     0.62392   0.16662   0.25045   0.00000  Uiso   1.00
Cu89   Cu    0.50000   0.21355   0.25000   0.00000  Uiso   1.00
Cu90   Cu    0.50000   0.11978   0.25000   0.00000  Uiso   1.00
F91    F     0.56603   0.19422   0.38042   0.00000  Uiso   1.00
F92    F     0.43396   0.13911   0.11958   0.00000  Uiso   1.00
F93    F     0.39131   0.13107   0.45920   0.00000  Uiso   1.00
F94    F     0.60869   0.20226   0.04080   0.00000  Uiso   1.00
F95    F     0.44837   0.04824   0.19509   0.00000  Uiso   1.00
F96    F     0.55163   0.28509   0.30491   0.00000  Uiso   1.00
F97    F     0.55161   0.04771   0.30492   0.00000  Uiso   1.00
F98    F     0.44839   0.28563   0.19508   0.00000  Uiso   1.00
H99    H     0.37077   0.09108   0.24630   0.00000  Uiso   1.00
H100   H     0.62923   0.24225   0.25370   0.00000  Uiso   1.00
H101   H     0.62945   0.09102   0.24704   0.00000  Uiso   1.00
H102   H     0.37055   0.24231   0.25296   0.00000  Uiso   1.00
I103   I     0.41050   0.13106   0.36737   0.00000  Uiso   1.00
I104   I     0.58950   0.20227   0.13263   0.00000  Uiso   1.00
I105   I     0.36987   0.12628   0.05564   0.00000  Uiso   1.00
I106   I     0.63013   0.20705   0.44436   0.00000  Uiso   1.00
N107   N     0.50000   0.28402   0.25000   0.00000  Uiso   1.00
N108   N     0.50000   0.04931   0.25000   0.00000  Uiso   1.00
O109   O     0.43988   0.20625   0.24999   0.00000  Uiso   1.00
O110   O     0.56012   0.12709   0.25001   0.00000  Uiso   1.00
O111   O     0.56012   0.20625   0.25001   0.00000  Uiso   1.00
O112   O     0.43988   0.12709   0.24999   0.00000  Uiso   1.00
O113   O     0.49999   0.20627   0.18513   0.00000  Uiso   1.00
O114   O     0.50001   0.12707   0.31487   0.00000  Uiso   1.00
O115   O     0.50001   0.20627   0.31487   0.00000  Uiso   1.00
O116   O     0.49999   0.12707   0.18513   0.00000  Uiso   1.00
C117   C     0.75404   0.16670   0.24959   0.00000  Uiso   1.00
C118   C     0.70942   0.16671   0.24955   0.00000  Uiso   1.00
C119   C     0.80759   0.02491   0.22263   0.00000  Uiso   1.00
C120   C     0.85908   0.30842   0.27737   0.00000  Uiso   1.00
C121   C     0.85907   0.02464   0.27737   0.00000  Uiso   1.00
C122   C     0.80760   0.30869   0.22263   0.00000  Uiso   1.00
C123   C     0.83429   0.16676   0.16456   0.00000  Uiso   1.00
C124   C     0.83237   0.16658   0.33544   0.00000  Uiso   1.00
C125   C     0.86696   0.18025   0.40563   0.00000  Uiso   1.00
C126   C     0.79971   0.15308   0.09437   0.00000  Uiso   1.00
C127   C     0.83148   0.16633   0.38360   0.00000  Uiso   1.00
C128   C     0.91262   0.16664   0.25041   0.00000  Uiso   1.00
C129   C     0.83518   0.16700   0.11640   0.00000  Uiso   1.00
C130   C     0.79604   0.15234   0.40670   0.00000  Uiso   1.00
C131   C     0.87063   0.18099   0.09330   0.00000  Uiso   1.00
C132   C     0.79621   0.15336   0.45375   0.00000  Uiso   1.00
C133   C     0.87046   0.17998   0.04625   0.00000  Uiso   1.00
C134   C     0.83292   0.16654   0.47646   0.00000  Uiso   1.00
C135   C     0.83375   0.16679   0.02354   0.00000  Uiso   1.00
C136   C     0.86879   0.17947   0.45213   0.00000  Uiso   1.00
C137   C     0.79788   0.15387   0.04787   0.00000  Uiso   1.00
C138   C     0.76085   0.14197   0.47879   0.00000  Uiso   1.00
C139   C     0.76132   0.14230   0.02497   0.00000  Uiso   1.00
C140   C     0.90582   0.19136   0.02121   0.00000  Uiso   1.00
C141   C     0.90534   0.19104   0.47503   0.00000  Uiso   1.00
C142   C     0.68802   0.12425   0.24791   0.00000  Uiso   1.00
C143   C     0.97864   0.20908   0.25209   0.00000  Uiso   1.00
C144   C     0.97876   0.12420   0.24840   0.00000  Uiso   1.00
C145   C     0.68790   0.20913   0.25160   0.00000  Uiso   1.00
C146   C     0.95725   0.16662   0.25045   0.00000  Uiso   1.00
Cu147  Cu    0.83333   0.21355   0.25000   0.00000  Uiso   1.00
Cu148  Cu    0.83333   0.11978   0.25000   0.00000  Uiso   1.00
F149   F     0.89937   0.19422   0.38042   0.00000  Uiso   1.00
F150   F     0.76730   0.13911   0.11958   0.00000  Uiso   1.00
F151   F     0.72465   0.13107   0.45920   0.00000  Uiso   1.00
F152   F     0.94202   0.20226   0.04080   0.00000  Uiso   1.00
F153   F     0.78170   0.04824   0.19509   0.00000  Uiso   1.00
F154   F     0.88496   0.28509   0.30491   0.00000  Uiso   1.00
F155   F     0.88495   0.04771   0.30492   0.00000  Uiso   1.00
F156   F     0.78172   0.28563   0.19508   0.00000  Uiso   1.00
H157   H     0.70410   0.09108   0.24630   0.00000  Uiso   1.00
H158   H     0.96256   0.24225   0.25370   0.00000  Uiso   1.00
H159   H     0.96278   0.09102   0.24704   0.00000  Uiso   1.00
H160   H     0.70388   0.24231   0.25296   0.00000  Uiso   1.00
I161   I     0.74383   0.13106   0.36737   0.00000  Uiso   1.00
I162   I     0.92283   0.20227   0.13263   0.00000  Uiso   1.00
I163   I     0.70321   0.12628   0.05564   0.00000  Uiso   1.00
I164   I     0.96346   0.20705   0.44436   0.00000  Uiso   1.00
N165   N     0.83333   0.28402   0.25000   0.00000  Uiso   1.00
N166   N     0.83333   0.04931   0.25000   0.00000  Uiso   1.00
O167   O     0.77321   0.20625   0.24999   0.00000  Uiso   1.00
O168   O     0.89345   0.12709   0.25001   0.00000  Uiso   1.00
O169   O     0.89345   0.20625   0.25001   0.00000  Uiso   1.00
O170   O     0.77321   0.12709   0.24999   0.00000  Uiso   1.00
O171   O     0.83332   0.20627   0.18513   0.00000  Uiso   1.00
O172   O     0.83334   0.12707   0.31487   0.00000  Uiso   1.00
O173   O     0.83334   0.20627   0.31487   0.00000  Uiso   1.00
O174   O     0.83332   0.12707   0.18513   0.00000  Uiso   1.00
C175   C     0.08738   0.50003   0.24959   0.00000  Uiso   1.00
C176   C     0.04275   0.50004   0.24955   0.00000  Uiso   1.00
C177   C     0.14092   0.35824   0.22263   0.00000  Uiso   1.00
C178   C     0.19241   0.64176   0.27737   0.00000  Uiso   1.00
C179   C     0.19240   0.35797   0.27737   0.00000  Uiso   1.00
C180   C     0.14093   0.64203   0.22263   0.00000  Uiso   1.00
C181   C     0.16763   0.50009   0.16456   0.00000  Uiso   1.00
C182   C     0.16571   0.49991   0.33544   0.00000  Uiso   1.00
C183   C     0.20029   0.51358   0.40563   0.00000  Uiso   1.00
C184   C     0.13304   0.48642   0.09437   0.00000  Uiso   1.00
C185   C     0.16482   0.49967   0.38360   0.00000  Uiso   1.00
C186   C     0.24596   0.49997   0.25041   0.00000  Uiso   1.00
C187   C     0.16852   0.50033   0.11640   0.00000  Uiso   1.00
C188   C     0.12937   0.48568   0.40670   0.00000  Uiso   1.00
C189   C     0.20396   0.51432   0.09330   0.00000  Uiso   1.00
C190   C     0.12954   0.48669   0.45375   0.00000  Uiso   1.00
C191   C     0.20379   0.51331   0.04625   0.00000  Uiso   1.00
C192   C     0.16625   0.49987   0.47646   0.00000  Uiso   1.00
C193   C     0.16708   0.50012   0.02354   0.00000  Uiso   1.00
C194   C     0.20212   0.51280   0.45213   0.00000  Uiso   1.00
C195   C     0.13121   0.48720   0.04787   0.00000  Uiso   1.00
C196   C     0.09418   0.47531   0.47879   0.00000  Uiso   1.00
C197   C     0.09466   0.47563   0.02497   0.00000  Uiso   1.00
C198   C     0.23915   0.52469   0.02121   0.00000  Uiso   1.00
C199   C     0.23868   0.52437   0.47503   0.00000  Uiso   1.00
C200   C     0.02136   0.45758   0.24791   0.00000  Uiso   1.00
C201   C     0.31198   0.54242   0.25209   0.00000  Uiso   1.00
C202   C     0.31210   0.45754   0.24840   0.00000  Uiso   1.00
C203   C     0.02124   0.54246   0.25160   0.00000  Uiso   1.00
C204   C     0.29058   0.49996   0.25045   0.00000  Uiso   1.00
Cu205  Cu    0.16667   0.54689   0.25000   0.00000  Uiso   1.00
Cu206  Cu    0.16667   0.45311   0.25000   0.00000  Uiso   1.00
F207   F     0.23270   0.52756   0.38042   0.00000  Uiso   1.00
F208   F     0.10063   0.47244   0.11958   0.00000  Uiso   1.00
F209   F     0.05798   0.46441   0.45920   0.00000  Uiso   1.00
F210   F     0.27535   0.53559   0.04080   0.00000  Uiso   1.00
F211   F     0.11503   0.38158   0.19509   0.00000  Uiso   1.00
F212   F     0.21830   0.61842   0.30491   0.00000  Uiso   1.00
F213   F     0.21828   0.38104   0.30492   0.00000  Uiso   1.00
F214   F     0.11505   0.61896   0.19508   0.00000  Uiso   1.00
H215   H     0.03744   0.42442   0.24630   0.00000  Uiso   1.00
H216   H     0.29590   0.57558   0.25370   0.00000  Uiso   1.00
H217   H     0.29612   0.42435   0.24704   0.00000  Uiso   1.00
H218   H     0.03722   0.57565   0.25296   0.00000  Uiso   1.00
I219   I     0.07717   0.46440   0.36737   0.00000  Uiso   1.00
I220   I     0.25617   0.53560   0.13263   0.00000  Uiso   1.00
I221   I     0.03654   0.45961   0.05564   0.00000  Uiso   1.00
I222   I     0.29679   0.54039   0.44436   0.00000  Uiso   1.00
N223   N     0.16667   0.61736   0.25000   0.00000  Uiso   1.00
N224   N     0.16667   0.38264   0.25000   0.00000  Uiso   1.00
O225   O     0.10655   0.53958   0.24999   0.00000  Uiso   1.00
O226   O     0.22679   0.46042   0.25001   0.00000  Uiso   1.00
O227   O     0.22679   0.53958   0.25001   0.00000  Uiso   1.00
O228   O     0.10655   0.46042   0.24999   0.00000  Uiso   1.00
O229   O     0.16666   0.53960   0.18513   0.00000  Uiso   1.00
O230   O     0.16668   0.46040   0.31487   0.00000  Uiso   1.00
O231   O     0.16668   0.53960   0.31487   0.00000  Uiso   1.00
O232   O     0.16666   0.46040   0.18513   0.00000  Uiso   1.00
C233   C     0.42071   0.50003   0.24959   0.00000  Uiso   1.00
C234   C     0.37608   0.50004   0.24955   0.00000  Uiso   1.00
C235   C     0.47426   0.35824   0.22263   0.00000  Uiso   1.00
C236   C     0.52574   0.64176   0.27737   0.00000  Uiso   1.00
C237   C     0.52574   0.35797   0.27737   0.00000  Uiso   1.00
C238   C     0.47426   0.64203   0.22263   0.00000  Uiso   1.00
C239   C     0.50096   0.50009   0.16456   0.00000  Uiso   1.00
C240   C     0.49904   0.49991   0.33544   0.00000  Uiso   1.00
C241   C     0.53362   0.51358   0.40563   0.00000  Uiso   1.00
C242   C     0.46638   0.48642   0.09437   0.00000  Uiso   1.00
C243   C     0.49815   0.49967   0.38360   0.00000  Uiso   1.00
C244   C     0.57929   0.49997   0.25041   0.00000  Uiso   1.00
C245   C     0.50185   0.50033   0.11640   0.00000  Uiso   1.00
C246   C     0.46271   0.48568   0.40670   0.00000  Uiso   1.00
C247   C     0.53729   0.51432   0.09330   0.00000  Uiso   1.00
C248   C     0.46288   0.48669   0.45375   0.00000  Uiso   1.00
C249   C     0.53712   0.51331   0.04625   0.00000  Uiso   1.00
C250   C     0.49958   0.49987   0.47646   0.00000  Uiso   1.00
C251   C     0.50042   0.50012   0.02354   0.00000  Uiso   1.00
C252   C     0.53545   0.51280   0.45213   0.00000  Uiso   1.00
C253   C     0.46455   0.48720   0.04787   0.00000  Uiso   1.00
C254   C     0.42752   0.47531   0.47879   0.00000  Uiso   1.00
C255   C     0.42799   0.47563   0.02497   0.00000  Uiso   1.00
C256   C     0.57248   0.52469   0.02121   0.00000  Uiso   1.00
C257   C     0.57201   0.52437   0.47503   0.00000  Uiso   1.00
C258   C     0.35469   0.45758   0.24791   0.00000  Uiso   1.00
C259   C     0.64531   0.54242   0.25209   0.00000  Uiso   1.00
C260   C     0.64543   0.45754   0.24840   0.00000  Uiso   1.00
C261   C     0.35457   0.54246   0.25160   0.00000  Uiso   1.00
C262   C     0.62392   0.49996   0.25045   0.00000  Uiso   1.00
Cu263  Cu    0.50000   0.54689   0.25000   0.00000  Uiso   1.00
Cu264  Cu    0.50000   0.45311   0.25000   0.00000  Uiso   1.00
F265   F     0.56603   0.52756   0.38042   0.00000  Uiso   1.00
F266   F     0.43396   0.47244   0.11958   0.00000  Uiso   1.00
F267   F     0.39131   0.46441   0.45920   0.00000  Uiso   1.00
F268   F     0.60869   0.53559   0.04080   0.00000  Uiso   1.00
F269   F     0.44837   0.38158   0.19509   0.00000  Uiso   1.00
F270   F     0.55163   0.61842   0.30491   0.00000  Uiso   1.00
F271   F     0.55161   0.38104   0.30492   0.00000  Uiso   1.00
F272   F     0.44839   0.61896   0.19508   0.00000  Uiso   1.00
H273   H     0.37077   0.42442   0.24630   0.00000  Uiso   1.00
H274   H     0.62923   0.57558   0.25370   0.00000  Uiso   1.00
H275   H     0.62945   0.42435   0.24704   0.00000  Uiso   1.00
H276   H     0.37055   0.57565   0.25296   0.00000  Uiso   1.00
I277   I     0.41050   0.46440   0.36737   0.00000  Uiso   1.00
I278   I     0.58950   0.53560   0.13263   0.00000  Uiso   1.00
I279   I     0.36987   0.45961   0.05564   0.00000  Uiso   1.00
I280   I     0.63013   0.54039   0.44436   0.00000  Uiso   1.00
N281   N     0.50000   0.61736   0.25000   0.00000  Uiso   1.00
N282   N     0.50000   0.38264   0.25000   0.00000  Uiso   1.00
O283   O     0.43988   0.53958   0.24999   0.00000  Uiso   1.00
O284   O     0.56012   0.46042   0.25001   0.00000  Uiso   1.00
O285   O     0.56012   0.53958   0.25001   0.00000  Uiso   1.00
O286   O     0.43988   0.46042   0.24999   0.00000  Uiso   1.00
O287   O     0.49999   0.53960   0.18513   0.00000  Uiso   1.00
O288   O     0.50001   0.46040   0.31487   0.00000  Uiso   1.00
O289   O     0.50001   0.53960   0.31487   0.00000  Uiso   1.00
O290   O     0.49999   0.46040   0.18513   0.00000  Uiso   1.00
C291   C     0.75404   0.50003   0.24959   0.00000  Uiso   1.00
C292   C     0.70942   0.50004   0.24955   0.00000  Uiso   1.00
C293   C     0.80759   0.35824   0.22263   0.00000  Uiso   1.00
C294   C     0.85908   0.64176   0.27737   0.00000  Uiso   1.00
C295   C     0.85907   0.35797   0.27737   0.00000  Uiso   1.00
C296   C     0.80760   0.64203   0.22263   0.00000  Uiso   1.00
C297   C     0.83429   0.50009   0.16456   0.00000  Uiso   1.00
C298   C     0.83237   0.49991   0.33544   0.00000  Uiso   1.00
C299   C     0.86696   0.51358   0.40563   0.00000  Uiso   1.00
C300   C     0.79971   0.48642   0.09437   0.00000  Uiso   1.00
C301   C     0.83148   0.49967   0.38360   0.00000  Uiso   1.00
C302   C     0.91262   0.49997   0.25041   0.00000  Uiso   1.00
C303   C     0.83518   0.50033   0.11640   0.00000  Uiso   1.00
C304   C     0.79604   0.48568   0.40670   0.00000  Uiso   1.00
C305   C     0.87063   0.51432   0.09330   0.00000  Uiso   1.00
C306   C     0.79621   0.48669   0.45375   0.00000  Uiso   1.00
C307   C     0.87046   0.51331   0.04625   0.00000  Uiso   1.00
C308   C     0.83292   0.49987   0.47646   0.00000  Uiso   1.00
C309   C     0.83375   0.50012   0.02354   0.00000  Uiso   1.00
C310   C     0.86879   0.51280   0.45213   0.00000  Uiso   1.00
C311   C     0.79788   0.48720   0.04787   0.00000  Uiso   1.00
C312   C     0.76085   0.47531   0.47879   0.00000  Uiso   1.00
C313   C     0.76132   0.47563   0.02497   0.00000  Uiso   1.00
C314   C     0.90582   0.52469   0.02121   0.00000  Uiso   1.00
C315   C     0.90534   0.52437   0.47503   0.00000  Uiso   1.00
C316   C     0.68802   0.45758   0.24791   0.00000  Uiso   1.00
C317   C     0.97864   0.54242   0.25209   0.00000  Uiso   1.00
C318   C     0.97876   0.45754   0.24840   0.00000  Uiso   1.00
C319   C     0.68790   0.54246   0.25160   0.00000  Uiso   1.00
C320   C     0.95725   0.49996   0.25045   0.00000  Uiso   1.00
Cu321  Cu    0.83333   0.54689   0.25000   0.00000  Uiso   1.00
Cu322  Cu    0.83333   0.45311   0.25000   0.00000  Uiso   1.00
F323   F     0.89937   0.52756   0.38042   0.00000  Uiso   1.00
F324   F     0.76730   0.47244   0.11958   0.00000  Uiso   1.00
F325   F     0.72465   0.46441   0.45920   0.00000  Uiso   1.00
F326   F     0.94202   0.53559   0.04080   0.00000  Uiso   1.00
F327   F     0.78170   0.38158   0.19509   0.00000  Uiso   1.00
F328   F     0.88496   0.61842   0.30491   0.00000  Uiso   1.00
F329   F     0.88495   0.38104   0.30492   0.00000  Uiso   1.00
F330   F     0.78172   0.61896   0.19508   0.00000  Uiso   1.00
H331   H     0.70410   0.42442   0.24630   0.00000  Uiso   1.00
H332   H     0.96256   0.57558   0.25370   0.00000  Uiso   1.00
H333   H     0.96278   0.42435   0.24704   0.00000  Uiso   1.00
H334   H     0.70388   0.57565   0.25296   0.00000  Uiso   1.00
I335   I     0.74383   0.46440   0.36737   0.00000  Uiso   1.00
I336   I     0.92283   0.53560   0.13263   0.00000  Uiso   1.00
I337   I     0.70321   0.45961   0.05564   0.00000  Uiso   1.00
I338   I     0.96346   0.54039   0.44436   0.00000  Uiso   1.00
N339   N     0.83333   0.61736   0.25000   0.00000  Uiso   1.00
N340   N     0.83333   0.38264   0.25000   0.00000  Uiso   1.00
O341   O     0.77321   0.53958   0.24999   0.00000  Uiso   1.00
O342   O     0.89345   0.46042   0.25001   0.00000  Uiso   1.00
O343   O     0.89345   0.53958   0.25001   0.00000  Uiso   1.00
O344   O     0.77321   0.46042   0.24999   0.00000  Uiso   1.00
O345   O     0.83332   0.53960   0.18513   0.00000  Uiso   1.00
O346   O     0.83334   0.46040   0.31487   0.00000  Uiso   1.00
O347   O     0.83334   0.53960   0.31487   0.00000  Uiso   1.00
O348   O     0.83332   0.46040   0.18513   0.00000  Uiso   1.00
C349   C     0.08738   0.83336   0.24959   0.00000  Uiso   1.00
C350   C     0.04275   0.83338   0.24955   0.00000  Uiso   1.00
C351   C     0.14092   0.69158   0.22263   0.00000  Uiso   1.00
C352   C     0.19241   0.97509   0.27737   0.00000  Uiso   1.00
C353   C     0.19240   0.69130   0.27737   0.00000  Uiso   1.00
C354   C     0.14093   0.97536   0.22263   0.00000  Uiso   1.00
C355   C     0.16763   0.83342   0.16456   0.00000  Uiso   1.00
C356   C     0.16571   0.83324   0.33544   0.00000  Uiso   1.00
C357   C     0.20029   0.84692   0.40563   0.00000  Uiso   1.00
C358   C     0.13304   0.81975   0.09437   0.00000  Uiso   1.00
C359   C     0.16482   0.83300   0.38360   0.00000  Uiso   1.00
C360   C     0.24596   0.83330   0.25041   0.00000  Uiso   1.00
C361   C     0.16852   0.83367   0.11640   0.00000  Uiso   1.00
C362   C     0.12937   0.81901   0.40670   0.00000  Uiso   1.00
C363   C     0.20396   0.84766   0.09330   0.00000  Uiso   1.00
C364   C     0.12954   0.82002   0.45375   0.00000  Uiso   1.00
C365   C     0.20379   0.84664   0.04625   0.00000  Uiso   1.00
C366   C     0.16625   0.83321   0.47646   0.00000  Uiso   1.00
C367   C     0.16708   0.83346   0.02354   0.00000  Uiso   1.00
C368   C     0.20212   0.84613   0.45213   0.00000  Uiso   1.00
C369   C     0.13121   0.82053   0.04787   0.00000  Uiso   1.00
C370   C     0.09418   0.80864   0.47879   0.00000  Uiso   1.00
C371   C     0.09466   0.80896   0.02497   0.00000  Uiso   1.00
C372   C     0.23915   0.85803   0.02121   0.00000  Uiso   1.00
C373   C     0.23868   0.85770   0.47503   0.00000  Uiso   1.00
C374   C     0.02136   0.79092   0.24791   0.00000  Uiso   1.00
C375   C     0.31198   0.87575   0.25209   0.00000  Uiso   1.00
C376   C     0.31210   0.79087   0.24840   0.00000  Uiso   1.00
C377   C     0.02124   0.87580   0.25160   0.00000  Uiso   1.00
C378   C     0.29058   0.83329   0.25045   0.00000  Uiso   1.00
Cu379  Cu    0.16667   0.88022   0.25000   0.00000  Uiso   1.00
Cu380  Cu    0.16667   0.78645   0.25000   0.00000  Uiso   1.00
F381   F     0.23270   0.86089   0.38042   0.00000  Uiso   1.00
F382   F     0.10063   0.80578   0.11958   0.00000  Uiso   1.00
F383   F     0.05798   0.79774   0.45920   0.00000  Uiso   1.00
F384   F     0.27535   0.86893   0.04080   0.00000  Uiso   1.00
F385   F     0.11503   0.71491   0.19509   0.00000  Uiso   1.00
F386   F     0.21830   0.95175   0.30491   0.00000  Uiso   1.00
F387   F     0.21828   0.71437   0.30492   0.00000  Uiso   1.00
F388   F     0.11505   0.95229   0.19508   0.00000  Uiso   1.00
H389   H     0.03744   0.75775   0.24630   0.00000  Uiso   1.00
H390   H     0.29590   0.90892   0.25370   0.00000  Uiso   1.00
H391   H     0.29612   0.75769   0.24704   0.00000  Uiso   1.00
H392   H     0.03722   0.90898   0.25296   0.00000  Uiso   1.00
I393   I     0.07717   0.79773   0.36737   0.00000  Uiso   1.00
I394   I     0.25617   0.86894   0.13263   0.00000  Uiso   1.00
I395   I     0.03654   0.79295   0.05564   0.00000  Uiso   1.00
I396   I     0.29679   0.87372   0.44436   0.00000  Uiso   1.00
N397   N     0.16667   0.95069   0.25000   0.00000  Uiso   1.00
N398   N     0.16667   0.71598   0.25000   0.00000  Uiso   1.00
O399   O     0.10655   0.87291   0.24999   0.00000  Uiso   1.00
O400   O     0.22679   0.79375   0.25001   0.00000  Uiso   1.00
O401   O     0.22679   0.87291   0.25001   0.00000  Uiso   1.00
O402   O     0.10655   0.79375   0.24999   0.00000  Uiso   1.00
O403   O     0.16666   0.87293   0.18513   0.00000  Uiso   1.00
O404   O     0.16668   0.79373   0.31487   0.00000  Uiso   1.00
O405   O     0.16668   0.87293   0.31487   0.00000  Uiso   1.00
O406   O     0.16666   0.79373   0.18513   0.00000  Uiso   1.00
C407   C     0.42071   0.83336   0.24959   0.00000  Uiso   1.00
C408   C     0.37608   0.83338   0.24955   0.00000  Uiso   1.00
C409   C     0.47426   0.69158   0.22263   0.00000  Uiso   1.00
C410   C     0.52574   0.97509   0.27737   0.00000  Uiso   1.00
C411   C     0.52574   0.69130   0.27737   0.00000  Uiso   1.00
C412   C     0.47426   0.97536   0.22263   0.00000  Uiso   1.00
C413   C     0.50096   0.83342   0.16456   0.00000  Uiso   1.00
C414   C     0.49904   0.83324   0.33544   0.00000  Uiso   1.00
C415   C     0.53362   0.84692   0.40563   0.00000  Uiso   1.00
C416   C     0.46638   0.81975   0.09437   0.00000  Uiso   1.00
C417   C     0.49815   0.83300   0.38360   0.00000  Uiso   1.00
C418   C     0.57929   0.83330   0.25041   0.00000  Uiso   1.00
C419   C     0.50185   0.83367   0.11640   0.00000  Uiso   1.00
C420   C     0.46271   0.81901   0.40670   0.00000  Uiso   1.00
C421   C     0.53729   0.84766   0.09330   0.00000  Uiso   1.00
C422   C     0.46288   0.82002   0.45375   0.00000  Uiso   1.00
C423   C     0.53712   0.84664   0.04625   0.00000  Uiso   1.00
C424   C     0.49958   0.83321   0.47646   0.00000  Uiso   1.00
C425   C     0.50042   0.83346   0.02354   0.00000  Uiso   1.00
C426   C     0.53545   0.84613   0.45213   0.00000  Uiso   1.00
C427   C     0.46455   0.82053   0.04787   0.00000  Uiso   1.00
C428   C     0.42752   0.80864   0.47879   0.00000  Uiso   1.00
C429   C     0.42799   0.80896   0.02497   0.00000  Uiso   1.00
C430   C     0.57248   0.85803   0.02121   0.00000  Uiso   1.00
C431   C     0.57201   0.85770   0.47503   0.00000  Uiso   1.00
C432   C     0.35469   0.79092   0.24791   0.00000  Uiso   1.00
C433   C     0.64531   0.87575   0.25209   0.00000  Uiso   1.00
C434   C     0.64543   0.79087   0.24840   0.00000  Uiso   1.00
C435   C     0.35457   0.87580   0.25160   0.00000  Uiso   1.00
C436   C     0.62392   0.83329   0.25045   0.00000  Uiso   1.00
Cu437  Cu    0.50000   0.88022   0.25000   0.00000  Uiso   1.00
Cu438  Cu    0.50000   0.78645   0.25000   0.00000  Uiso   1.00
F439   F     0.56603   0.86089   0.38042   0.00000  Uiso   1.00
F440   F     0.43396   0.80578   0.11958   0.00000  Uiso   1.00
F441   F     0.39131   0.79774   0.45920   0.00000  Uiso   1.00
F442   F     0.60869   0.86893   0.04080   0.00000  Uiso   1.00
F443   F     0.44837   0.71491   0.19509   0.00000  Uiso   1.00
F444   F     0.55163   0.95175   0.30491   0.00000  Uiso   1.00
F445   F     0.55161   0.71437   0.30492   0.00000  Uiso   1.00
F446   F     0.44839   0.95229   0.19508   0.00000  Uiso   1.00
H447   H     0.37077   0.75775   0.24630   0.00000  Uiso   1.00
H448   H     0.62923   0.90892   0.25370   0.00000  Uiso   1.00
H449   H     0.62945   0.75769   0.24704   0.00000  Uiso   1.00
H450   H     0.37055   0.90898   0.25296   0.00000  Uiso   1.00
I451   I     0.41050   0.79773   0.36737   0.00000  Uiso   1.00
I452   I     0.58950   0.86894   0.13263   0.00000  Uiso   1.00
I453   I     0.36987   0.79295   0.05564   0.00000  Uiso   1.00
I454   I     0.63013   0.87372   0.44436   0.00000  Uiso   1.00
N455   N     0.50000   0.95069   0.25000   0.00000  Uiso   1.00
N456   N     0.50000   0.71598   0.25000   0.00000  Uiso   1.00
O457   O     0.43988   0.87291   0.24999   0.00000  Uiso   1.00
O458   O     0.56012   0.79375   0.25001   0.00000  Uiso   1.00
O459   O     0.56012   0.87291   0.25001   0.00000  Uiso   1.00
O460   O     0.43988   0.79375   0.24999   0.00000  Uiso   1.00
O461   O     0.49999   0.87293   0.18513   0.00000  Uiso   1.00
O462   O     0.50001   0.79373   0.31487   0.00000  Uiso   1.00
O463   O     0.50001   0.87293   0.31487   0.00000  Uiso   1.00
O464   O     0.49999   0.79373   0.18513   0.00000  Uiso   1.00
C465   C     0.75404   0.83336   0.24959   0.00000  Uiso   1.00
C466   C     0.70942   0.83338   0.24955   0.00000  Uiso   1.00
C467   C     0.80759   0.69158   0.22263   0.00000  Uiso   1.00
C468   C     0.85908   0.97509   0.27737   0.00000  Uiso   1.00
C469   C     0.85907   0.69130   0.27737   0.00000  Uiso   1.00
C470   C     0.80760   0.97536   0.22263   0.00000  Uiso   1.00
C471   C     0.83429   0.83342   0.16456   0.00000  Uiso   1.00
C472   C     0.83237   0.83324   0.33544   0.00000  Uiso   1.00
C473   C     0.86696   0.84692   0.40563   0.00000  Uiso   1.00
C474   C     0.79971   0.81975   0.09437   0.00000  Uiso   1.00
C475   C     0.83148   0.83300   0.38360   0.00000  Uiso   1.00
C476   C     0.91262   0.83330   0.25041   0.00000  Uiso   1.00
C477   C     0.83518   0.83367   0.11640   0.00000  Uiso   1.00
C478   C     0.79604   0.81901   0.40670   0.00000  Uiso   1.00
C479   C     0.87063   0.84766   0.09330   0.00000  Uiso   1.00
C480   C     0.79621   0.82002   0.45375   0.00000  Uiso   1.00
C481   C     0.87046   0.84664   0.04625   0.00000  Uiso   1.00
C482   C     0.83292   0.83321   0.47646   0.00000  Uiso   1.00
C483   C     0.83375   0.83346   0.02354   0.00000  Uiso   1.00
C484   C     0.86879   0.84613   0.45213   0.00000  Uiso   1.00
C485   C     0.79788   0.82053   0.04787   0.00000  Uiso   1.00
C486   C     0.76085   0.80864   0.47879   0.00000  Uiso   1.00
C487   C     0.76132   0.80896   0.02497   0.00000  Uiso   1.00
C488   C     0.90582   0.85803   0.02121   0.00000  Uiso   1.00
C489   C     0.90534   0.85770   0.47503   0.00000  Uiso   1.00
C490   C     0.68802   0.79092   0.24791   0.00000  Uiso   1.00
C491   C     0.97864   0.87575   0.25209   0.00000  Uiso   1.00
C492   C     0.97876   0.79087   0.24840   0.00000  Uiso   1.00
C493   C     0.68790   0.87580   0.25160   0.00000  Uiso   1.00
C494   C     0.95725   0.83329   0.25045   0.00000  Uiso   1.00
Cu495  Cu    0.83333   0.88022   0.25000   0.00000  Uiso   1.00
Cu496  Cu    0.83333   0.78645   0.25000   0.00000  Uiso   1.00
F497   F     0.89937   0.86089   0.38042   0.00000  Uiso   1.00
F498   F     0.76730   0.80578   0.11958   0.00000  Uiso   1.00
F499   F     0.72465   0.79774   0.45920   0.00000  Uiso   1.00
F500   F     0.94202   0.86893   0.04080   0.00000  Uiso   1.00
F501   F     0.78170   0.71491   0.19509   0.00000  Uiso   1.00
F502   F     0.88496   0.95175   0.30491   0.00000  Uiso   1.00
F503   F     0.88495   0.71437   0.30492   0.00000  Uiso   1.00
F504   F     0.78172   0.95229   0.19508   0.00000  Uiso   1.00
H505   H     0.70410   0.75775   0.24630   0.00000  Uiso   1.00
H506   H     0.96256   0.90892   0.25370   0.00000  Uiso   1.00
H507   H     0.96278   0.75769   0.24704   0.00000  Uiso   1.00
H508   H     0.70388   0.90898   0.25296   0.00000  Uiso   1.00
I509   I     0.74383   0.79773   0.36737   0.00000  Uiso   1.00
I510   I     0.92283   0.86894   0.13263   0.00000  Uiso   1.00
I511   I     0.70321   0.79295   0.05564   0.00000  Uiso   1.00
I512   I     0.96346   0.87372   0.44436   0.00000  Uiso   1.00
N513   N     0.83333   0.95069   0.25000   0.00000  Uiso   1.00
N514   N     0.83333   0.71598   0.25000   0.00000  Uiso   1.00
O515   O     0.77321   0.87291   0.24999   0.00000  Uiso   1.00
O516   O     0.89345   0.79375   0.25001   0.00000  Uiso   1.00
O517   O     0.89345   0.87291   0.25001   0.00000  Uiso   1.00
O518   O     0.77321   0.79375   0.24999   0.00000  Uiso   1.00
O519   O     0.83332   0.87293   0.18513   0.00000  Uiso   1.00
O520   O     0.83334   0.79373   0.31487   0.00000  Uiso   1.00
O521   O     0.83334   0.87293   0.31487   0.00000  Uiso   1.00
O522   O     0.83332   0.79373   0.18513   0.00000  Uiso   1.00
C523   C     0.08738   0.16670   0.74959   0.00000  Uiso   1.00
C524   C     0.04275   0.16671   0.74955   0.00000  Uiso   1.00
C525   C     0.14092   0.02491   0.72263   0.00000  Uiso   1.00
C526   C     0.19241   0.30842   0.77737   0.00000  Uiso   1.00
C527   C     0.19240   0.02464   0.77737   0.00000  Uiso   1.00
C528   C     0.14093   0.30869   0.72263   0.00000  Uiso   1.00
C529   C     0.16763   0.16676   0.66456   0.00000  Uiso   1.00
C530   C     0.16571   0.16658   0.83544   0.00000  Uiso   1.00
C531   C     0.20029   0.18025   0.90563   0.00000  Uiso   1.00
C532   C     0.13304   0.15308   0.59437   0.00000  Uiso   1.00
C533   C     0.16482   0.16633   0.88360   0.00000  Uiso   1.00
C534   C     0.24596   0.16664   0.75041   0.00000  Uiso   1.00
C535   C     0.16852   0.16700   0.61640   0.00000  Uiso   1.00
C536   C     0.12937   0.15234   0.90670   0.00000  Uiso   1.00
C537   C     0.20396   0.18099   0.59330   0.00000  Uiso   1.00
C538   C     0.12954   0.15336   0.95375   0.00000  Uiso   1.00
C539   C     0.20379   0.17998   0.54625   0.00000  Uiso   1.00
C540   C     0.16625   0.16654   0.97646   0.00000  Uiso   1.00
C541   C     0.16708   0.16679   0.52354   0.00000  Uiso   1.00
C542   C     0.20212   0.17947   0.95213   0.00000  Uiso   1.00
C543   C     0.13121   0.15387   0.54787   0.00000  Uiso   1.00
C544   C     0.09418   0.14197   0.97879   0.00000  Uiso   1.00
C545   C     0.09466   0.14230   0.52497   0.00000  Uiso   1.00
C546   C     0.23915   0.19136   0.52121   0.00000  Uiso   1.00
C547   C     0.23868   0.19104   0.97503   0.00000  Uiso   1.00
C548   C     0.02136   0.12425   0.74791   0.00000  Uiso   1.00
C549   C     0.31198   0.20908   0.75209   0.00000  Uiso   1.00
C550   C     0.31210   0.12420   0.74840   0.00000  Uiso   1.00
C551   C     0.02124   0.20913   0.75160   0.00000  Uiso   1.00
C552   C     0.29058   0.16662   0.75045   0.00000  Uiso   1.00
Cu553  Cu    0.16667   0.21355   0.75000   0.00000  Uiso   1.00
Cu554  Cu    0.16667   0.11978   0.75000   0.00000  Uiso   1.00
F555   F     0.23270   0.19422   0.88042   0.00000  Uiso   1.00
F556   F     0.10063   0.13911   0.61958   0.00000  Uiso   1.00
F557   F     0.05798   0.13107   0.95920   0.00000  Uiso   1.00
F558   F     0.27535   0.20226   0.54080   0.00000  Uiso   1.00
F559   F     0.11503   0.04824   0.69509   0.00000  Uiso   1.00
F560   F     0.21830   0.28509   0.80491   0.00000  Uiso   1.00
F561   F     0.21828   0.04771   0.80492   0.00000  Uiso   1.00
F562   F     0.11505   0.28563   0.69508   0.00000  Uiso   1.00
H563   H     0.03744   0.09108   0.74630   0.00000  Uiso   1.00
H564   H     0.29590   0.24225   0.75370   0.00000  Uiso   1.00
H565   H     0.29612   0.09102   0.74704   0.00000  Uiso   1.00
H566   H     0.03722   0.24231   0.75296   0.00000  Uiso   1.00
I567   I     0.07717   0.13106   0.86737   0.00000  Uiso   1.00
I568   I     0.25617   0.20227   0.63263   0.00000  Uiso   1.00
I569   I     0.03654   0.12628   0.55564   0.00000  Uiso   1.00
I570   I     0.29679   0.20705   0.94436   0.00000  Uiso   1.00
N571   N     0.16667   0.28402   0.75000   0.00000  Uiso   1.00
N572   N     0.16667   0.04931   0.75000   0.00000  Uiso   1.00
O573   O     0.10655   0.20625   0.74999   0.00000  Uiso   1.00
O574   O     0.22679   0.12709   0.75001   0.00000  Uiso   1.00
O575   O     0.22679   0.20625   0.75001   0.00000  Uiso   1.00
O576   O     0.10655   0.12709   0.74999   0.00000  Uiso   1.00
O577   O     0.16666   0.20627   0.68513   0.00000  Uiso   1.00
O578   O     0.16668   0.12707   0.81487   0.00000  Uiso   1.00
O579   O     0.16668   0.20627   0.81487   0.00000  Uiso   1.00
O580   O     0.16666   0.12707   0.68513   0.00000  Uiso   1.00
C581   C     0.42071   0.16670   0.74959   0.00000  Uiso   1.00
C582   C     0.37608   0.16671   0.74955   0.00000  Uiso   1.00
C583   C     0.47426   0.02491   0.72263   0.00000  Uiso   1.00
C584   C     0.52574   0.30842   0.77737   0.00000  Uiso   1.00
C585   C     0.52574   0.02464   0.77737   0.00000  Uiso   1.00
C586   C     0.47426   0.30869   0.72263   0.00000  Uiso   1.00
C587   C     0.50096   0.16676   0.66456   0.00000  Uiso   1.00
C588   C     0.49904   0.16658   0.83544   0.00000  Uiso   1.00
C589   C     0.53362   0.18025   0.90563   0.00000  Uiso   1.00
C590   C     0.46638   0.15308   0.59437   0.00000  Uiso   1.00
C591   C     0.49815   0.16633   0.88360   0.00000  Uiso   1.00
C592   C     0.57929   0.16664   0.75041   0.00000  Uiso   1.00
C593   C     0.50185   0.16700   0.61640   0.00000  Uiso   1.00
C594   C     0.46271   0.15234   0.90670   0.00000  Uiso   1.00
C595   C     0.53729   0.18099   0.59330   0.00000  Uiso   1.00
C596   C     0.46288   0.15336   0.95375   0.00000  Uiso   1.00
C597   C     0.53712   0.17998   0.54625   0.00000  Uiso   1.00
C598   C     0.49958   0.16654   0.97646   0.00000  Uiso   1.00
C599   C     0.50042   0.16679   0.52354   0.00000  Uiso   1.00
C600   C     0.53545   0.17947   0.95213   0.00000  Uiso   1.00
C601   C     0.46455   0.15387   0.54787   0.00000  Uiso   1.00
C602   C     0.42752   0.14197   0.97879   0.00000  Uiso   1.00
C603   C     0.42799   0.14230   0.52497   0.00000  Uiso   1.00
C604   C     0.57248   0.19136   0.52121   0.00000  Uiso   1.00
C605   C     0.57201   0.19104   0.97503   0.00000  Uiso   1.00
C606   C     0.35469   0.12425   0.74791   0.00000  Uiso   1.00
C607   C     0.64531   0.20908   0.75209   0.00000  Uiso   1.00
C608   C     0.64543   0.12420   0.74840   0.00000  Uiso   1.00
C609   C     0.35457   0.20913   0.75160   0.00000  Uiso   1.00
C610   C     0.62392   0.16662   0.75045   0.00000  Uiso   1.00
Cu611  Cu    0.50000   0.21355   0.75000   0.00000  Uiso   1.00
Cu612  Cu    0.50000   0.11978   0.75000   0.00000  Uiso   1.00
F613   F     0.56603   0.19422   0.88042   0.00000  Uiso   1.00
F614   F     0.43396   0.13911   0.61958   0.00000  Uiso   1.00
F615   F     0.39131   0.13107   0.95920   0.00000  Uiso   1.00
F616   F     0.60869   0.20226   0.54080   0.00000  Uiso   1.00
F617   F     0.44837   0.04824   0.69509   0.00000  Uiso   1.00
F618   F     0.55163   0.28509   0.80491   0.00000  Uiso   1.00
F619   F     0.55161   0.04771   0.80492   0.00000  Uiso   1.00
F620   F     0.44839   0.28563   0.69508   0.00000  Uiso   1.00
H621   H     0.37077   0.09108   0.74630   0.00000  Uiso   1.00
H622   H     0.62923   0.24225   0.75370   0.00000  Uiso   1.00
H623   H     0.62945   0.09102   0.74704   0.00000  Uiso   1.00
H624   H     0.37055   0.24231   0.75296   0.00000  Uiso   1.00
I625   I     0.41050   0.13106   0.86737   0.00000  Uiso   1.00
I626   I     0.58950   0.20227   0.63263   0.00000  Uiso   1.00
I627   I     0.36987   0.12628   0.55564   0.00000  Uiso   1.00
I628   I     0.63013   0.20705   0.94436   0.00000  Uiso   1.00
N629   N     0.50000   0.28402   0.75000   0.00000  Uiso   1.00
N630   N     0.50000   0.04931   0.75000   0.00000  Uiso   1.00
O631   O     0.43988   0.20625   0.74999   0.00000  Uiso   1.00
O632   O     0.56012   0.12709   0.75001   0.00000  Uiso   1.00
O633   O     0.56012   0.20625   0.75001   0.00000  Uiso   1.00
O634   O     0.43988   0.12709   0.74999   0.00000  Uiso   1.00
O635   O     0.49999   0.20627   0.68513   0.00000  Uiso   1.00
O636   O     0.50001   0.12707   0.81487   0.00000  Uiso   1.00
O637   O     0.50001   0.20627   0.81487   0.00000  Uiso   1.00
O638   O     0.49999   0.12707   0.68513   0.00000  Uiso   1.00
C639   C     0.75404   0.16670   0.74959   0.00000  Uiso   1.00
C640   C     0.70942   0.16671   0.74955   0.00000  Uiso   1.00
C641   C     0.80759   0.02491   0.72263   0.00000  Uiso   1.00
C642   C     0.85908   0.30842   0.77737   0.00000  Uiso   1.00
C643   C     0.85907   0.02464   0.77737   0.00000  Uiso   1.00
C644   C     0.80760   0.30869   0.72263   0.00000  Uiso   1.00
C645   C     0.83429   0.16676   0.66456   0.00000  Uiso   1.00
C646   C     0.83237   0.16658   0.83544   0.00000  Uiso   1.00
C647   C     0.86696   0.18025   0.90563   0.00000  Uiso   1.00
C648   C     0.79971   0.15308   0.59437   0.00000  Uiso   1.00
C649   C     0.83148   0.16633   0.88360   0.00000  Uiso   1.00
C650   C     0.91262   0.16664   0.75041   0.00000  Uiso   1.00
C651   C     0.83518   0.16700   0.61640   0.00000  Uiso   1.00
C652   C     0.79604   0.15234   0.90670   0.00000  Uiso   1.00
C653   C     0.87063   0.18099   0.59330   0.00000  Uiso   1.00
C654   C     0.79621   0.15336   0.95375   0.00000  Uiso   1.00
C655   C     0.87046   0.17998   0.54625   0.00000  Uiso   1.00
C656   C     0.83292   0.16654   0.97646   0.00000  Uiso   1.00
C657   C     0.83375   0.16679   0.52354   0.00000  Uiso   1.00
C658   C     0.86879   0.17947   0.95213   0.00000  Uiso   1.00
C659   C     0.79788   0.15387   0.54787   0.00000  Uiso   1.00
C660   C     0.76085   0.14197   0.97879   0.00000  Uiso   1.00
C661   C     0.76132   0.14230   0.52497   0.00000  Uiso   1.00
C662   C     0.90582   0.19136   0.52121   0.00000  Uiso   1.00
C663   C     0.90534   0.19104   0.97503   0.00000  Uiso   1.00
C664   C     0.68802   0.12425   0.74791   0.00000  Uiso   1.00
C665   C     0.97864   0.20908   0.75209   0.00000  Uiso   1.00
C666   C     0.97876   0.12420   0.74840   0.00000  Uiso   1.00
C667   C     0.68790   0.20913   0.75160   0.00000  Uiso   1.00
C668   C     0.95725   0.16662   0.75045   0.00000  Uiso   1.00
Cu669  Cu    0.83333   0.21355   0.75000   0.00000  Uiso   1.00
Cu670  Cu    0.83333   0.11978   0.75000   0.00000  Uiso   1.00
F671   F     0.89937   0.19422   0.88042   0.00000  Uiso   1.00
F672   F     0.76730   0.13911   0.61958   0.00000  Uiso   1.00
F673   F     0.72465   0.13107   0.95920   0.00000  Uiso   1.00
F674   F     0.94202   0.20226   0.54080   0.00000  Uiso   1.00
F675   F     0.78170   0.04824   0.69509   0.00000  Uiso   1.00
F676   F     0.88496   0.28509   0.80491   0.00000  Uiso   1.00
F677   F     0.88495   0.04771   0.80492   0.00000  Uiso   1.00
F678   F     0.78172   0.28563   0.69508   0.00000  Uiso   1.00
H679   H     0.70410   0.09108   0.74630   0.00000  Uiso   1.00
H680   H     0.96256   0.24225   0.75370   0.00000  Uiso   1.00
H681   H     0.96278   0.09102   0.74704   0.00000  Uiso   1.00
H682   H     0.70388   0.24231   0.75296   0.00000  Uiso   1.00
I683   I     0.74383   0.13106   0.86737   0.00000  Uiso   1.00
I684   I     0.92283   0.20227   0.63263   0.00000  Uiso   1.00
I685   I     0.70321   0.12628   0.55564   0.00000  Uiso   1.00
I686   I     0.96346   0.20705   0.94436   0.00000  Uiso   1.00
N687   N     0.83333   0.28402   0.75000   0.00000  Uiso   1.00
N688   N     0.83333   0.04931   0.75000   0.00000  Uiso   1.00
O689   O     0.77321   0.20625   0.74999   0.00000  Uiso   1.00
O690   O     0.89345   0.12709   0.75001   0.00000  Uiso   1.00
O691   O     0.89345   0.20625   0.75001   0.00000  Uiso   1.00
O692   O     0.77321   0.12709   0.74999   0.00000  Uiso   1.00
O693   O     0.83332   0.20627   0.68513   0.00000  Uiso   1.00
O694   O     0.83334   0.12707   0.81487   0.00000  Uiso   1.00
O695   O     0.83334   0.20627   0.81487   0.00000  Uiso   1.00
O696   O     0.83332   0.12707   0.68513   0.00000  Uiso   1.00
C697   C     0.08738   0.50003   0.74959   0.00000  Uiso   1.00
C698   C     0.04275   0.50004   0.74955   0.00000  Uiso   1.00
C699   C     0.14092   0.35824   0.72263   0.00000  Uiso   1.00
C700   C     0.19241   0.64176   0.77737   0.00000  Uiso   1.00
C701   C     0.19240   0.35797   0.77737   0.00000  Uiso   1.00
C702   C     0.14093   0.64203   0.72263   0.00000  Uiso   1.00
C703   C     0.16763   0.50009   0.66456   0.00000  Uiso   1.00
C704   C     0.16571   0.49991   0.83544   0.00000  Uiso   1.00
C705   C     0.20029   0.51358   0.90563   0.00000  Uiso   1.00
C706   C     0.13304   0.48642   0.59437   0.00000  Uiso   1.00
C707   C     0.16482   0.49967   0.88360   0.00000  Uiso   1.00
C708   C     0.24596   0.49997   0.75041   0.00000  Uiso   1.00
C709   C     0.16852   0.50033   0.61640   0.00000  Uiso   1.00
C710   C     0.12937   0.48568   0.90670   0.00000  Uiso   1.00
C711   C     0.20396   0.51432   0.59330   0.00000  Uiso   1.00
C712   C     0.12954   0.48669   0.95375   0.00000  Uiso   1.00
C713   C     0.20379   0.51331   0.54625   0.00000  Uiso   1.00
C714   C     0.16625   0.49987   0.97646   0.00000  Uiso   1.00
C715   C     0.16708   0.50012   0.52354   0.00000  Uiso   1.00
C716   C     0.20212   0.51280   0.95213   0.00000  Uiso   1.00
C717   C     0.13121   0.48720   0.54787   0.00000  Uiso   1.00
C718   C     0.09418   0.47531   0.97879   0.00000  Uiso   1.00
C719   C     0.09466   0.47563   0.52497   0.00000  Uiso   1.00
C720   C     0.23915   0.52469   0.52121   0.00000  Uiso   1.00
C721   C     0.23868   0.52437   0.97503   0.00000  Uiso   1.00
C722   C     0.02136   0.45758   0.74791   0.00000  Uiso   1.00
C723   C     0.31198   0.54242   0.75209   0.00000  Uiso   1.00
C724   C     0.31210   0.45754   0.74840   0.00000  Uiso   1.00
C725   C     0.02124   0.54246   0.75160   0.00000  Uiso   1.00
C726   C     0.29058   0.49996   0.75045   0.00000  Uiso   1.00
Cu727  Cu    0.16667   0.54689   0.75000   0.00000  Uiso   1.00
Cu728  Cu    0.16667   0.45311   0.75000   0.00000  Uiso   1.00
F729   F     0.23270   0.52756   0.88042   0.00000  Uiso   1.00
F730   F     0.10063   0.47244   0.61958   0.00000  Uiso   1.00
F731   F     0.05798   0.46441   0.95920   0.00000  Uiso   1.00
F732   F     0.27535   0.53559   0.54080   0.00000  Uiso   1.00
F733   F     0.11503   0.38158   0.69509   0.00000  Uiso   1.00
F734   F     0.21830   0.61842   0.80491   0.00000  Uiso   1.00
F735   F     0.21828   0.38104   0.80492   0.00000  Uiso   1.00
F736   F     0.11505   0.61896   0.69508   0.00000  Uiso   1.00
H737   H     0.03744   0.42442   0.74630   0.00000  Uiso   1.00
H738   H     0.29590   0.57558   0.75370   0.00000  Uiso   1.00
H739   H     0.29612   0.42435   0.74704   0.00000  Uiso   1.00
H740   H     0.03722   0.57565   0.75296   0.00000  Uiso   1.00
I741   I     0.07717   0.46440   0.86737   0.00000  Uiso   1.00
I742   I     0.25617   0.53560   0.63263   0.00000  Uiso   1.00
I743   I     0.03654   0.45961   0.55564   0.00000  Uiso   1.00
I744   I     0.29679   0.54039   0.94436   0.00000  Uiso   1.00
N745   N     0.16667   0.61736   0.75000   0.00000  Uiso   1.00
N746   N     0.16667   0.38264   0.75000   0.00000  Uiso   1.00
O747   O     0.10655   0.53958   0.74999   0.00000  Uiso   1.00
O748   O     0.22679   0.46042   0.75001   0.00000  Uiso   1.00
O749   O     0.22679   0.53958   0.75001   0.00000  Uiso   1.00
O750   O     0.10655   0.46042   0.74999   0.00000  Uiso   1.00
O751   O     0.16666   0.53960   0.68513   0.00000  Uiso   1.00
O752   O     0.16668   0.46040   0.81487   0.00000  Uiso   1.00
O753   O     0.16668   0.53960   0.81487   0.00000  Uiso   1.00
O754   O     0.16666   0.46040   0.68513   0.00000  Uiso   1.00
C755   C     0.42071   0.50003   0.74959   0.00000  Uiso   1.00
C756   C     0.37608   0.50004   0.74955   0.00000  Uiso   1.00
C757   C     0.47426   0.35824   0.72263   0.00000  Uiso   1.00
C758   C     0.52574   0.64176   0.77737   0.00000  Uiso   1.00
C759   C     0.52574   0.35797   0.77737   0.00000  Uiso   1.00
C760   C     0.47426   0.64203   0.72263   0.00000  Uiso   1.00
C761   C     0.50096   0.50009   0.66456   0.00000  Uiso   1.00
C762   C     0.49904   0.49991   0.83544   0.00000  Uiso   1.00
C763   C     0.53362   0.51358   0.90563   0.00000  Uiso   1.00
C764   C     0.46638   0.48642   0.59437   0.00000  Uiso   1.00
C765   C     0.49815   0.49967   0.88360   0.00000  Uiso   1.00
C766   C     0.57929   0.49997   0.75041   0.00000  Uiso   1.00
C767   C     0.50185   0.50033   0.61640   0.00000  Uiso   1.00
C768   C     0.46271   0.48568   0.90670   0.00000  Uiso   1.00
C769   C     0.53729   0.51432   0.59330   0.00000  Uiso   1.00
C770   C     0.46288   0.48669   0.95375   0.00000  Uiso   1.00
C771   C     0.53712   0.51331   0.54625   0.00000  Uiso   1.00
C772   C     0.49958   0.49987   0.97646   0.00000  Uiso   1.00
C773   C     0.50042   0.50012   0.52354   0.00000  Uiso   1.00
C774   C     0.53545   0.51280   0.95213   0.00000  Uiso   1.00
C775   C     0.46455   0.48720   0.54787   0.00000  Uiso   1.00
C776   C     0.42752   0.47531   0.97879   0.00000  Uiso   1.00
C777   C     0.42799   0.47563   0.52497   0.00000  Uiso   1.00
C778   C     0.57248   0.52469   0.52121   0.00000  Uiso   1.00
C779   C     0.57201   0.52437   0.97503   0.00000  Uiso   1.00
C780   C     0.35469   0.45758   0.74791   0.00000  Uiso   1.00
C781   C     0.64531   0.54242   0.75209   0.00000  Uiso   1.00
C782   C     0.64543   0.45754   0.74840   0.00000  Uiso   1.00
C783   C     0.35457   0.54246   0.75160   0.00000  Uiso   1.00
C784   C     0.62392   0.49996   0.75045   0.00000  Uiso   1.00
Cu785  Cu    0.50000   0.54689   0.75000   0.00000  Uiso   1.00
Cu786  Cu    0.50000   0.45311   0.75000   0.00000  Uiso   1.00
F787   F     0.56603   0.52756   0.88042   0.00000  Uiso   1.00
F788   F     0.43396   0.47244   0.61958   0.00000  Uiso   1.00
F789   F     0.39131   0.46441   0.95920   0.00000  Uiso   1.00
F790   F     0.60869   0.53559   0.54080   0.00000  Uiso   1.00
F791   F     0.44837   0.38158   0.69509   0.00000  Uiso   1.00
F792   F     0.55163   0.61842   0.80491   0.00000  Uiso   1.00
F793   F     0.55161   0.38104   0.80492   0.00000  Uiso   1.00
F794   F     0.44839   0.61896   0.69508   0.00000  Uiso   1.00
H795   H     0.37077   0.42442   0.74630   0.00000  Uiso   1.00
H796   H     0.62923   0.57558   0.75370   0.00000  Uiso   1.00
H797   H     0.62945   0.42435   0.74704   0.00000  Uiso   1.00
H798   H     0.37055   0.57565   0.75296   0.00000  Uiso   1.00
I799   I     0.41050   0.46440   0.86737   0.00000  Uiso   1.00
I800   I     0.58950   0.53560   0.63263   0.00000  Uiso   1.00
I801   I     0.36987   0.45961   0.55564   0.00000  Uiso   1.00
I802   I     0.63013   0.54039   0.94436   0.00000  Uiso   1.00
N803   N     0.50000   0.61736   0.75000   0.00000  Uiso   1.00
N804   N     0.50000   0.38264   0.75000   0.00000  Uiso   1.00
O805   O     0.43988   0.53958   0.74999   0.00000  Uiso   1.00
O806   O     0.56012   0.46042   0.75001   0.00000  Uiso   1.00
O807   O     0.56012   0.53958   0.75001   0.00000  Uiso   1.00
O808   O     0.43988   0.46042   0.74999   0.00000  Uiso   1.00
O809   O     0.49999   0.53960   0.68513   0.00000  Uiso   1.00
O810   O     0.50001   0.46040   0.81487   0.00000  Uiso   1.00
O811   O     0.50001   0.53960   0.81487   0.00000  Uiso   1.00
O812   O     0.49999   0.46040   0.68513   0.00000  Uiso   1.00
C813   C     0.75404   0.50003   0.74959   0.00000  Uiso   1.00
C814   C     0.70942   0.50004   0.74955   0.00000  Uiso   1.00
C815   C     0.80759   0.35824   0.72263   0.00000  Uiso   1.00
C816   C     0.85908   0.64176   0.77737   0.00000  Uiso   1.00
C817   C     0.85907   0.35797   0.77737   0.00000  Uiso   1.00
C818   C     0.80760   0.64203   0.72263   0.00000  Uiso   1.00
C819   C     0.83429   0.50009   0.66456   0.00000  Uiso   1.00
C820   C     0.83237   0.49991   0.83544   0.00000  Uiso   1.00
C821   C     0.86696   0.51358   0.90563   0.00000  Uiso   1.00
C822   C     0.79971   0.48642   0.59437   0.00000  Uiso   1.00
C823   C     0.83148   0.49967   0.88360   0.00000  Uiso   1.00
C824   C     0.91262   0.49997   0.75041   0.00000  Uiso   1.00
C825   C     0.83518   0.50033   0.61640   0.00000  Uiso   1.00
C826   C     0.79604   0.48568   0.90670   0.00000  Uiso   1.00
C827   C     0.87063   0.51432   0.59330   0.00000  Uiso   1.00
C828   C     0.79621   0.48669   0.95375   0.00000  Uiso   1.00
C829   C     0.87046   0.51331   0.54625   0.00000  Uiso   1.00
C830   C     0.83292   0.49987   0.97646   0.00000  Uiso   1.00
C831   C     0.83375   0.50012   0.52354   0.00000  Uiso   1.00
C832   C     0.86879   0.51280   0.95213   0.00000  Uiso   1.00
C833   C     0.79788   0.48720   0.54787   0.00000  Uiso   1.00
C834   C     0.76085   0.47531   0.97879   0.00000  Uiso   1.00
C835   C     0.76132   0.47563   0.52497   0.00000  Uiso   1.00
C836   C     0.90582   0.52469   0.52121   0.00000  Uiso   1.00
C837   C     0.90534   0.52437   0.97503   0.00000  Uiso   1.00
C838   C     0.68802   0.45758   0.74791   0.00000  Uiso   1.00
C839   C     0.97864   0.54242   0.75209   0.00000  Uiso   1.00
C840   C     0.97876   0.45754   0.74840   0.00000  Uiso   1.00
C841   C     0.68790   0.54246   0.75160   0.00000  Uiso   1.00
C842   C     0.95725   0.49996   0.75045   0.00000  Uiso   1.00
Cu843  Cu    0.83333   0.54689   0.75000   0.00000  Uiso   1.00
Cu844  Cu    0.83333   0.45311   0.75000   0.00000  Uiso   1.00
F845   F     0.89937   0.52756   0.88042   0.00000  Uiso   1.00
F846   F     0.76730   0.47244   0.61958   0.00000  Uiso   1.00
F847   F     0.72465   0.46441   0.95920   0.00000  Uiso   1.00
F848   F     0.94202   0.53559   0.54080   0.00000  Uiso   1.00
F849   F     0.78170   0.38158   0.69509   0.00000  Uiso   1.00
F850   F     0.88496   0.61842   0.80491   0.00000  Uiso   1.00
F851   F     0.88495   0.38104   0.80492   0.00000  Uiso   1.00
F852   F     0.78172   0.61896   0.69508   0.00000  Uiso   1.00
H853   H     0.70410   0.42442   0.74630   0.00000  Uiso   1.00
H854   H     0.96256   0.57558   0.75370   0.00000  Uiso   1.00
H855   H     0.96278   0.42435   0.74704   0.00000  Uiso   1.00
H856   H     0.70388   0.57565   0.75296   0.00000  Uiso   1.00
I857   I     0.74383   0.46440   0.86737   0.00000  Uiso   1.00
I858   I     0.92283   0.53560   0.63263   0.00000  Uiso   1.00
I859   I     0.70321   0.45961   0.55564   0.00000  Uiso   1.00
I860   I     0.96346   0.54039   0.94436   0.00000  Uiso   1.00
N861   N     0.83333   0.61736   0.75000   0.00000  Uiso   1.00
N862   N     0.83333   0.38264   0.75000   0.00000  Uiso   1.00
O863   O     0.77321   0.53958   0.74999   0.00000  Uiso   1.00
O864   O     0.89345   0.46042   0.75001   0.00000  Uiso   1.00
O865   O     0.89345   0.53958   0.75001   0.00000  Uiso   1.00
O866   O     0.77321   0.46042   0.74999   0.00000  Uiso   1.00
O867   O     0.83332   0.53960   0.68513   0.00000  Uiso   1.00
O868   O     0.83334   0.46040   0.81487   0.00000  Uiso   1.00
O869   O     0.83334   0.53960   0.81487   0.00000  Uiso   1.00
O870   O     0.83332   0.46040   0.68513   0.00000  Uiso   1.00
C871   C     0.08738   0.83336   0.74959   0.00000  Uiso   1.00
C872   C     0.04275   0.83338   0.74955   0.00000  Uiso   1.00
C873   C     0.14092   0.69158   0.72263   0.00000  Uiso   1.00
C874   C     0.19241   0.97509   0.77737   0.00000  Uiso   1.00
C875   C     0.19240   0.69130   0.77737   0.00000  Uiso   1.00
C876   C     0.14093   0.97536   0.72263   0.00000  Uiso   1.00
C877   C     0.16763   0.83342   0.66456   0.00000  Uiso   1.00
C878   C     0.16571   0.83324   0.83544   0.00000  Uiso   1.00
C879   C     0.20029   0.84692   0.90563   0.00000  Uiso   1.00
C880   C     0.13304   0.81975   0.59437   0.00000  Uiso   1.00
C881   C     0.16482   0.83300   0.88360   0.00000  Uiso   1.00
C882   C     0.24596   0.83330   0.75041   0.00000  Uiso   1.00
C883   C     0.16852   0.83367   0.61640   0.00000  Uiso   1.00
C884   C     0.12937   0.81901   0.90670   0.00000  Uiso   1.00
C885   C     0.20396   0.84766   0.59330   0.00000  Uiso   1.00
C886   C     0.12954   0.82002   0.95375   0.00000  Uiso   1.00
C887   C     0.20379   0.84664   0.54625   0.00000  Uiso   1.00
C888   C     0.16625   0.83321   0.97646   0.00000  Uiso   1.00
C889   C     0.16708   0.83346   0.52354   0.00000  Uiso   1.00
C890   C     0.20212   0.84613   0.95213   0.00000  Uiso   1.00
C891   C     0.13121   0.82053   0.54787   0.00000  Uiso   1.00
C892   C     0.09418   0.80864   0.97879   0.00000  Uiso   1.00
C893   C     0.09466   0.80896   0.52497   0.00000  Uiso   1.00
C894   C     0.23915   0.85803   0.52121   0.00000  Uiso   1.00
C895   C     0.23868   0.85770   0.97503   0.00000  Uiso   1.00
C896   C     0.02136   0.79092   0.74791   0.00000  Uiso   1.00
C897   C     0.31198   0.87575   0.75209   0.00000  Uiso   1.00
C898   C     0.31210   0.79087   0.74840   0.00000  Uiso   1.00
C899   C     0.02124   0.87580   0.75160   0.00000  Uiso   1.00
C900   C     0.29058   0.83329   0.75045   0.00000  Uiso   1.00
Cu901  Cu    0.16667   0.88022   0.75000   0.00000  Uiso   1.00
Cu902  Cu    0.16667   0.78645   0.75000   0.00000  Uiso   1.00
F903   F     0.23270   0.86089   0.88042   0.00000  Uiso   1.00
F904   F     0.10063   0.80578   0.61958   0.00000  Uiso   1.00
F905   F     0.05798   0.79774   0.95920   0.00000  Uiso   1.00
F906   F     0.27535   0.86893   0.54080   0.00000  Uiso   1.00
F907   F     0.11503   0.71491   0.69509   0.00000  Uiso   1.00
F908   F     0.21830   0.95175   0.80491   0.00000  Uiso   1.00
F909   F     0.21828   0.71437   0.80492   0.00000  Uiso   1.00
F910   F     0.11505   0.95229   0.69508   0.00000  Uiso   1.00
H911   H     0.03744   0.75775   0.74630   0.00000  Uiso   1.00
H912   H     0.29590   0.90892   0.75370   0.00000  Uiso   1.00
H913   H     0.29612   0.75769   0.74704   0.00000  Uiso   1.00
H914   H     0.03722   0.90898   0.75296   0.00000  Uiso   1.00
I915   I     0.07717   0.79773   0.86737   0.00000  Uiso   1.00
I916   I     0.25617   0.86894   0.63263   0.00000  Uiso   1.00
I917   I     0.03654   0.79295   0.55564   0.00000  Uiso   1.00
I918   I     0.29679   0.87372   0.94436   0.00000  Uiso   1.00
N919   N     0.16667   0.95069   0.75000   0.00000  Uiso   1.00
N920   N     0.16667   0.71598   0.75000   0.00000  Uiso   1.00
O921   O     0.10655   0.87291   0.74999   0.00000  Uiso   1.00
O922   O     0.22679   0.79375   0.75001   0.00000  Uiso   1.00
O923   O     0.22679   0.87291   0.75001   0.00000  Uiso   1.00
O924   O     0.10655   0.79375   0.74999   0.00000  Uiso   1.00
O925   O     0.16666   0.87293   0.68513   0.00000  Uiso   1.00
O926   O     0.16668   0.79373   0.81487   0.00000  Uiso   1.00
O927   O     0.16668   0.87293   0.81487   0.00000  Uiso   1.00
O928   O     0.16666   0.79373   0.68513   0.00000  Uiso   1.00
C929   C     0.42071   0.83336   0.74959   0.00000  Uiso   1.00
C930   C     0.37608   0.83338   0.74955   0.00000  Uiso   1.00
C931   C     0.47426   0.69158   0.72263   0.00000  Uiso   1.00
C932   C     0.52574   0.97509   0.77737   0.00000  Uiso   1.00
C933   C     0.52574   0.69130   0.77737   0.00000  Uiso   1.00
C934   C     0.47426   0.97536   0.72263   0.00000  Uiso   1.00
C935   C     0.50096   0.83342   0.66456   0.00000  Uiso   1.00
C936   C     0.49904   0.83324   0.83544   0.00000  Uiso   1.00
C937   C     0.53362   0.84692   0.90563   0.00000  Uiso   1.00
C938   C     0.46638   0.81975   0.59437   0.00000  Uiso   1.00
C939   C     0.49815   0.83300   0.88360   0.00000  Uiso   1.00
C940   C     0.57929   0.83330   0.75041   0.00000  Uiso   1.00
C941   C     0.50185   0.83367   0.61640   0.00000  Uiso   1.00
C942   C     0.46271   0.81901   0.90670   0.00000  Uiso   1.00
C943   C     0.53729   0.84766   0.59330   0.00000  Uiso   1.00
C944   C     0.46288   0.82002   0.95375   0.00000  Uiso   1.00
C945   C     0.53712   0.84664   0.54625   0.00000  Uiso   1.00
C946   C     0.49958   0.83321   0.97646   0.00000  Uiso   1.00
C947   C     0.50042   0.83346   0.52354   0.00000  Uiso   1.00
C948   C     0.53545   0.84613   0.95213   0.00000  Uiso   1.00
C949   C     0.46455   0.82053   0.54787   0.00000  Uiso   1.00
C950   C     0.42752   0.80864   0.97879   0.00000  Uiso   1.00
C951   C     0.42799   0.80896   0.52497   0.00000  Uiso   1.00
C952   C     0.57248   0.85803   0.52121   0.00000  Uiso   1.00
C953   C     0.57201   0.85770   0.97503   0.00000  Uiso   1.00
C954   C     0.35469   0.79092   0.74791   0.00000  Uiso   1.00
C955   C     0.64531   0.87575   0.75209   0.00000  Uiso   1.00
C956   C     0.64543   0.79087   0.74840   0.00000  Uiso   1.00
C957   C     0.35457   0.87580   0.75160   0.00000  Uiso   1.00
C958   C     0.62392   0.83329   0.75045   0.00000  Uiso   1.00
Cu959  Cu    0.50000   0.88022   0.75000   0.00000  Uiso   1.00
Cu960  Cu    0.50000   0.78645   0.75000   0.00000  Uiso   1.00
F961   F     0.56603   0.86089   0.88042   0.00000  Uiso   1.00
F962   F     0.43396   0.80578   0.61958   0.00000  Uiso   1.00
F963   F     0.39131   0.79774   0.95920   0.00000  Uiso   1.00
F964   F     0.60869   0.86893   0.54080   0.00000  Uiso   1.00
F965   F     0.44837   0.71491   0.69509   0.00000  Uiso   1.00
F966   F     0.55163   0.95175   0.80491   0.00000  Uiso   1.00
F967   F     0.55161   0.71437   0.80492   0.00000  Uiso   1.00
F968   F     0.44839   0.95229   0.69508   0.00000  Uiso   1.00
H969   H     0.37077   0.75775   0.74630   0.00000  Uiso   1.00
H970   H     0.62923   0.90892   0.75370   0.00000  Uiso   1.00
H971   H     0.62945   0.75769   0.74704   0.00000  Uiso   1.00
H972   H     0.37055   0.90898   0.75296   0.00000  Uiso   1.00
I973   I     0.41050   0.79773   0.86737   0.00000  Uiso   1.00
I974   I     0.58950   0.86894   0.63263   0.00000  Uiso   1.00
I975   I     0.36987   0.79295   0.55564   0.00000  Uiso   1.00
I976   I     0.63013   0.87372   0.94436   0.00000  Uiso   1.00
N977   N     0.50000   0.95069   0.75000   0.00000  Uiso   1.00
N978   N     0.50000   0.71598   0.75000   0.00000  Uiso   1.00
O979   O     0.43988   0.87291   0.74999   0.00000  Uiso   1.00
O980   O     0.56012   0.79375   0.75001   0.00000  Uiso   1.00
O981   O     0.56012   0.87291   0.75001   0.00000  Uiso   1.00
O982   O     0.43988   0.79375   0.74999   0.00000  Uiso   1.00
O983   O     0.49999   0.87293   0.68513   0.00000  Uiso   1.00
O984   O     0.50001   0.79373   0.81487   0.00000  Uiso   1.00
O985   O     0.50001   0.87293   0.81487   0.00000  Uiso   1.00
O986   O     0.49999   0.79373   0.68513   0.00000  Uiso   1.00
C987   C     0.75404   0.83336   0.74959   0.00000  Uiso   1.00
C988   C     0.70942   0.83338   0.74955   0.00000  Uiso   1.00
C989   C     0.80759   0.69158   0.72263   0.00000  Uiso   1.00
C990   C     0.85908   0.97509   0.77737   0.00000  Uiso   1.00
C991   C     0.85907   0.69130   0.77737   0.00000  Uiso   1.00
C992   C     0.80760   0.97536   0.72263   0.00000  Uiso   1.00
C993   C     0.83429   0.83342   0.66456   0.00000  Uiso   1.00
C994   C     0.83237   0.83324   0.83544   0.00000  Uiso   1.00
C995   C     0.86696   0.84692   0.90563   0.00000  Uiso   1.00
C996   C     0.79971   0.81975   0.59437   0.00000  Uiso   1.00
C997   C     0.83148   0.83300   0.88360   0.00000  Uiso   1.00
C998   C     0.91262   0.83330   0.75041   0.00000  Uiso   1.00
C999   C     0.83518   0.83367   0.61640   0.00000  Uiso   1.00
C1000  C     0.79604   0.81901   0.90670   0.00000  Uiso   1.00
C1001  C     0.87063   0.84766   0.59330   0.00000  Uiso   1.00
C1002  C     0.79621   0.82002   0.95375   0.00000  Uiso   1.00
C1003  C     0.87046   0.84664   0.54625   0.00000  Uiso   1.00
C1004  C     0.83292   0.83321   0.97646   0.00000  Uiso   1.00
C1005  C     0.83375   0.83346   0.52354   0.00000  Uiso   1.00
C1006  C     0.86879   0.84613   0.95213   0.00000  Uiso   1.00
C1007  C     0.79788   0.82053   0.54787   0.00000  Uiso   1.00
C1008  C     0.76085   0.80864   0.97879   0.00000  Uiso   1.00
C1009  C     0.76132   0.80896   0.52497   0.00000  Uiso   1.00
C1010  C     0.90582   0.85803   0.52121   0.00000  Uiso   1.00
C1011  C     0.90534   0.85770   0.97503   0.00000  Uiso   1.00
C1012  C     0.68802   0.79092   0.74791   0.00000  Uiso   1.00
C1013  C     0.97864   0.87575   0.75209   0.00000  Uiso   1.00
C1014  C     0.97876   0.79087   0.74840   0.00000  Uiso   1.00
C1015  C     0.68790   0.87580   0.75160   0.00000  Uiso   1.00
C1016  C     0.95725   0.83329   0.75045   0.00000  Uiso   1.00
Cu1017 Cu    0.83333   0.88022   0.75000   0.00000  Uiso   1.00
Cu1018 Cu    0.83333   0.78645   0.75000   0.00000  Uiso   1.00
F1019  F     0.89937   0.86089   0.88042   0.00000  Uiso   1.00
F1020  F     0.76730   0.80578   0.61958   0.00000  Uiso   1.00
F1021  F     0.72465   0.79774   0.95920   0.00000  Uiso   1.00
F1022  F     0.94202   0.86893   0.54080   0.00000  Uiso   1.00
F1023  F     0.78170   0.71491   0.69509   0.00000  Uiso   1.00
F1024  F     0.88496   0.95175   0.80491   0.00000  Uiso   1.00
F1025  F     0.88495   0.71437   0.80492   0.00000  Uiso   1.00
F1026  F     0.78172   0.95229   0.69508   0.00000  Uiso   1.00
H1027  H     0.70410   0.75775   0.74630   0.00000  Uiso   1.00
H1028  H     0.96256   0.90892   0.75370   0.00000  Uiso   1.00
H1029  H     0.96278   0.75769   0.74704   0.00000  Uiso   1.00
H1030  H     0.70388   0.90898   0.75296   0.00000  Uiso   1.00
I1031  I     0.74383   0.79773   0.86737   0.00000  Uiso   1.00
I1032  I     0.92283   0.86894   0.63263   0.00000  Uiso   1.00
I1033  I     0.70321   0.79295   0.55564   0.00000  Uiso   1.00
I1034  I     0.96346   0.87372   0.94436   0.00000  Uiso   1.00
N1035  N     0.83333   0.95069   0.75000   0.00000  Uiso   1.00
N1036  N     0.83333   0.71598   0.75000   0.00000  Uiso   1.00
O1037  O     0.77321   0.87291   0.74999   0.00000  Uiso   1.00
O1038  O     0.89345   0.79375   0.75001   0.00000  Uiso   1.00
O1039  O     0.89345   0.87291   0.75001   0.00000  Uiso   1.00
O1040  O     0.77321   0.79375   0.74999   0.00000  Uiso   1.00
O1041  O     0.83332   0.87293   0.68513   0.00000  Uiso   1.00
O1042  O     0.83334   0.79373   0.81487   0.00000  Uiso   1.00
O1043  O     0.83334   0.87293   0.81487   0.00000  Uiso   1.00
O1044  O     0.83332   0.79373   0.68513   0.00000  Uiso   1.00
loop_
_geom_bond_atom_site_label_1
_geom_bond_atom_site_label_2
_geom_bond_distance
_geom_bond_site_symmetry_2
_ccdc_geom_bond_type
C1     O54     1.292   .     A
C1     O51     1.292   .     A
C1     C2      1.449   .     S
C2     C26     1.401   .     A
C2     C29     1.401   .     A
C3     N50     1.368   .     A
C3     F37     1.355   .     S
C3     C354    1.417   1_545 S
C4     N49     1.368   .     A
C4     F38     1.355   .     S
C4     C179    1.417   .     S
C5     N50     1.368   .     A
C5     F39     1.355   .     S
C5     C352    1.417   1_545 S
C6     F40     1.355   .     S
C6     N49     1.368   .     A
C6     C177    1.417   .     S
C7     O55     1.291   .     A
C7     O58     1.292   .     A
C7     C13     1.451   .     S
C8     O57     1.292   .     A
C8     C11     1.451   .     S
C8     O56     1.291   .     A
C9     C11     1.389   .     A
C9     F33     1.357   .     S
C9     C20     1.402   .     A
C10    C21     1.402   .     A
C10    F34     1.357   .     S
C10    C13     1.389   .     A
C11    C14     1.402   .     A
C12    C30     1.449   .     S
C12    O52     1.292   .     A
C12    O53     1.292   .     A
C13    C15     1.402   .     A
C14    I45     2.159   .     S
C14    C16     1.418   .     A
C15    C17     1.418   .     A
C15    I46     2.159   .     S
C16    C18     1.427   .     A
C16    C22     1.410   .     A
C17    C24     1.410   .     A
C17    C19     1.427   .     A
C18    C20     1.424   .     A
C18    C541    1.418   .     S
C19    C21     1.424   .     A
C19    C540    1.418   1_554 S
C20    C25     1.414   .     A
C21    C23     1.414   .     A
C22    F35     1.353   .     S
C22    C545    1.391   .     S
C23    I47     2.149   .     S
C23    C544    1.391   1_554 S
C24    F36     1.353   .     S
C24    C547    1.391   1_554 S
C25    I48     2.149   .     S
C25    C546    1.391   .     S
C26    H41     1.083   .     S
C26    C144    1.383   1_455 S
C27    H42     1.083   .     S
C27    C30     1.401   .     A
C27    C87     1.383   .     S
C28    H43     1.083   .     S
C28    C30     1.401   .     A
C28    C84     1.383   .     S
C29    H44     1.083   .     S
C29    C143    1.383   1_455 S
Cu31   Cu32    2.682   .     S
Cu31   O57     1.964   .     S
Cu31   O53     1.962   .     S
Cu31   N49     2.016   .     S
Cu31   O55     1.966   .     S
Cu31   O51     1.963   .     S
Cu32   O58     1.964   .     S
Cu32   N50     2.016   .     S
Cu32   O54     1.962   .     S
Cu32   O56     1.966   .     S
Cu32   O52     1.963   .     S
C59    O112    1.292   .     A
C59    O109    1.292   .     A
C59    C60     1.449   .     S
C60    C84     1.401   .     A
C60    C87     1.401   .     A
C61    N108    1.368   .     A
C61    F95     1.355   .     S
C61    C412    1.417   1_545 S
C62    N107    1.368   .     A
C62    F96     1.355   .     S
C62    C237    1.417   .     S
C63    N108    1.368   .     A
C63    F97     1.355   .     S
C63    C410    1.417   1_545 S
C64    F98     1.355   .     S
C64    N107    1.368   .     A
C64    C235    1.417   .     S
C65    O113    1.291   .     A
C65    O116    1.292   .     A
C65    C71     1.451   .     S
C66    O115    1.292   .     A
C66    C69     1.451   .     S
C66    O114    1.291   .     A
C67    C69     1.389   .     A
C67    F91     1.357   .     S
C67    C78     1.402   .     A
C68    C79     1.402   .     A
C68    F92     1.357   .     S
C68    C71     1.389   .     A
C69    C72     1.402   .     A
C70    C88     1.449   .     S
C70    O110    1.292   .     A
C70    O111    1.292   .     A
C71    C73     1.402   .     A
C72    I103    2.159   .     S
C72    C74     1.418   .     A
C73    C75     1.418   .     A
C73    I104    2.159   .     S
C74    C76     1.427   .     A
C74    C80     1.410   .     A
C75    C82     1.410   .     A
C75    C77     1.427   .     A
C76    C78     1.424   .     A
C76    C599    1.418   .     S
C77    C79     1.424   .     A
C77    C598    1.418   1_554 S
C78    C83     1.414   .     A
C79    C81     1.414   .     A
C80    F93     1.353   .     S
C80    C603    1.391   .     S
C81    I105    2.149   .     S
C81    C602    1.391   1_554 S
C82    F94     1.353   .     S
C82    C605    1.391   1_554 S
C83    I106    2.149   .     S
C83    C604    1.391   .     S
C84    H99     1.083   .     S
C85    H100    1.083   .     S
C85    C88     1.401   .     A
C85    C145    1.383   .     S
C86    H101    1.083   .     S
C86    C88     1.401   .     A
C86    C142    1.383   .     S
C87    H102    1.083   .     S
Cu89   Cu90    2.682   .     S
Cu89   O115    1.964   .     S
Cu89   O111    1.962   .     S
Cu89   N107    2.016   .     S
Cu89   O113    1.966   .     S
Cu89   O109    1.963   .     S
Cu90   O116    1.964   .     S
Cu90   N108    2.016   .     S
Cu90   O112    1.962   .     S
Cu90   O114    1.966   .     S
Cu90   O110    1.963   .     S
C117   O170    1.292   .     A
C117   O167    1.292   .     A
C117   C118    1.449   .     S
C118   C142    1.401   .     A
C118   C145    1.401   .     A
C119   N166    1.368   .     A
C119   F153    1.355   .     S
C119   C470    1.417   1_545 S
C120   N165    1.368   .     A
C120   F154    1.355   .     S
C120   C295    1.417   .     S
C121   N166    1.368   .     A
C121   F155    1.355   .     S
C121   C468    1.417   1_545 S
C122   F156    1.355   .     S
C122   N165    1.368   .     A
C122   C293    1.417   .     S
C123   O171    1.291   .     A
C123   O174    1.292   .     A
C123   C129    1.451   .     S
C124   O173    1.292   .     A
C124   C127    1.451   .     S
C124   O172    1.291   .     A
C125   C127    1.389   .     A
C125   F149    1.357   .     S
C125   C136    1.402   .     A
C126   C137    1.402   .     A
C126   F150    1.357   .     S
C126   C129    1.389   .     A
C127   C130    1.402   .     A
C128   C146    1.449   .     S
C128   O168    1.292   .     A
C128   O169    1.292   .     A
C129   C131    1.402   .     A
C130   I161    2.159   .     S
C130   C132    1.418   .     A
C131   C133    1.418   .     A
C131   I162    2.159   .     S
C132   C134    1.427   .     A
C132   C138    1.410   .     A
C133   C140    1.410   .     A
C133   C135    1.427   .     A
C134   C136    1.424   .     A
C134   C657    1.418   .     S
C135   C137    1.424   .     A
C135   C656    1.418   1_554 S
C136   C141    1.414   .     A
C137   C139    1.414   .     A
C138   F151    1.353   .     S
C138   C661    1.391   .     S
C139   I163    2.149   .     S
C139   C660    1.391   1_554 S
C140   F152    1.353   .     S
C140   C663    1.391   1_554 S
C141   I164    2.149   .     S
C141   C662    1.391   .     S
C142   H157    1.083   .     S
C143   H158    1.083   .     S
C143   C146    1.401   .     A
C143   C29     1.383   1_655 S
C144   H159    1.083   .     S
C144   C146    1.401   .     A
C144   C26     1.383   1_655 S
C145   H160    1.083   .     S
Cu147  Cu148   2.682   .     S
Cu147  O173    1.964   .     S
Cu147  O169    1.962   .     S
Cu147  N165    2.016   .     S
Cu147  O171    1.966   .     S
Cu147  O167    1.963   .     S
Cu148  O174    1.964   .     S
Cu148  N166    2.016   .     S
Cu148  O170    1.962   .     S
Cu148  O172    1.966   .     S
Cu148  O168    1.963   .     S
C175   O228    1.292   .     A
C175   O225    1.292   .     A
C175   C176    1.449   .     S
C176   C200    1.401   .     A
C176   C203    1.401   .     A
C177   N224    1.368   .     A
C177   F211    1.355   .     S
C178   N223    1.368   .     A
C178   F212    1.355   .     S
C178   C353    1.417   .     S
C179   N224    1.368   .     A
C179   F213    1.355   .     S
C180   F214    1.355   .     S
C180   N223    1.368   .     A
C180   C351    1.417   .     S
C181   O229    1.291   .     A
C181   O232    1.292   .     A
C181   C187    1.451   .     S
C182   O231    1.292   .     A
C182   C185    1.451   .     S
C182   O230    1.291   .     A
C183   C185    1.389   .     A
C183   F207    1.357   .     S
C183   C194    1.402   .     A
C184   C195    1.402   .     A
C184   F208    1.357   .     S
C184   C187    1.389   .     A
C185   C188    1.402   .     A
C186   C204    1.449   .     S
C186   O226    1.292   .     A
C186   O227    1.292   .     A
C187   C189    1.402   .     A
C188   I219    2.159   .     S
C188   C190    1.418   .     A
C189   C191    1.418   .     A
C189   I220    2.159   .     S
C190   C192    1.427   .     A
C190   C196    1.410   .     A
C191   C198    1.410   .     A
C191   C193    1.427   .     A
C192   C194    1.424   .     A
C192   C715    1.418   .     S
C193   C195    1.424   .     A
C193   C714    1.418   1_554 S
C194   C199    1.414   .     A
C195   C197    1.414   .     A
C196   F209    1.353   .     S
C196   C719    1.391   .     S
C197   I221    2.149   .     S
C197   C718    1.391   1_554 S
C198   F210    1.353   .     S
C198   C721    1.391   1_554 S
C199   I222    2.149   .     S
C199   C720    1.391   .     S
C200   H215    1.083   .     S
C200   C318    1.383   1_455 S
C201   H216    1.083   .     S
C201   C204    1.401   .     A
C201   C261    1.383   .     S
C202   H217    1.083   .     S
C202   C204    1.401   .     A
C202   C258    1.383   .     S
C203   H218    1.083   .     S
C203   C317    1.383   1_455 S
Cu205  Cu206   2.682   .     S
Cu205  O231    1.964   .     S
Cu205  O227    1.962   .     S
Cu205  N223    2.016   .     S
Cu205  O229    1.966   .     S
Cu205  O225    1.963   .     S
Cu206  O232    1.964   .     S
Cu206  N224    2.016   .     S
Cu206  O228    1.962   .     S
Cu206  O230    1.966   .     S
Cu206  O226    1.963   .     S
C233   O286    1.292   .     A
C233   O283    1.292   .     A
C233   C234    1.449   .     S
C234   C258    1.401   .     A
C234   C261    1.401   .     A
C235   N282    1.368   .     A
C235   F269    1.355   .     S
C236   N281    1.368   .     A
C236   F270    1.355   .     S
C236   C411    1.417   .     S
C237   N282    1.368   .     A
C237   F271    1.355   .     S
C238   F272    1.355   .     S
C238   N281    1.368   .     A
C238   C409    1.417   .     S
C239   O287    1.291   .     A
C239   O290    1.292   .     A
C239   C245    1.451   .     S
C240   O289    1.292   .     A
C240   C243    1.451   .     S
C240   O288    1.291   .     A
C241   C243    1.389   .     A
C241   F265    1.357   .     S
C241   C252    1.402   .     A
C242   C253    1.402   .     A
C242   F266    1.357   .     S
C242   C245    1.389   .     A
C243   C246    1.402   .     A
C244   C262    1.449   .     S
C244   O284    1.292   .     A
C244   O285    1.292   .     A
C245   C247    1.402   .     A
C246   I277    2.159   .     S
C246   C248    1.418   .     A
C247   C249    1.418   .     A
C247   I278    2.159   .     S
C248   C250    1.427   .     A
C248   C254    1.410   .     A
C249   C256    1.410   .     A
C249   C251    1.427   .     A
C250   C252    1.424   .     A
C250   C773    1.418   .     S
C251   C253    1.424   .     A
C251   C772    1.418   1_554 S
C252   C257    1.414   .     A
C253   C255    1.414   .     A
C254   F267    1.353   .     S
C254   C777    1.391   .     S
C255   I279    2.149   .     S
C255   C776    1.391   1_554 S
C256   F268    1.353   .     S
C256   C779    1.391   1_554 S
C257   I280    2.149   .     S
C257   C778    1.391   .     S
C258   H273    1.083   .     S
C259   H274    1.083   .     S
C259   C262    1.401   .     A
C259   C319    1.383   .     S
C260   H275    1.083   .     S
C260   C262    1.401   .     A
C260   C316    1.383   .     S
C261   H276    1.083   .     S
Cu263  Cu264   2.682   .     S
Cu263  O289    1.964   .     S
Cu263  O285    1.962   .     S
Cu263  N281    2.016   .     S
Cu263  O287    1.966   .     S
Cu263  O283    1.963   .     S
Cu264  O290    1.964   .     S
Cu264  N282    2.016   .     S
Cu264  O286    1.962   .     S
Cu264  O288    1.966   .     S
Cu264  O284    1.963   .     S
C291   O344    1.292   .     A
C291   O341    1.292   .     A
C291   C292    1.449   .     S
C292   C316    1.401   .     A
C292   C319    1.401   .     A
C293   N340    1.368   .     A
C293   F327    1.355   .     S
C294   N339    1.368   .     A
C294   F328    1.355   .     S
C294   C469    1.417   .     S
C295   N340    1.368   .     A
C295   F329    1.355   .     S
C296   F330    1.355   .     S
C296   N339    1.368   .     A
C296   C467    1.417   .     S
C297   O345    1.291   .     A
C297   O348    1.292   .     A
C297   C303    1.451   .     S
C298   O347    1.292   .     A
C298   C301    1.451   .     S
C298   O346    1.291   .     A
C299   C301    1.389   .     A
C299   F323    1.357   .     S
C299   C310    1.402   .     A
C300   C311    1.402   .     A
C300   F324    1.357   .     S
C300   C303    1.389   .     A
C301   C304    1.402   .     A
C302   C320    1.449   .     S
C302   O342    1.292   .     A
C302   O343    1.292   .     A
C303   C305    1.402   .     A
C304   I335    2.159   .     S
C304   C306    1.418   .     A
C305   C307    1.418   .     A
C305   I336    2.159   .     S
C306   C308    1.427   .     A
C306   C312    1.410   .     A
C307   C314    1.410   .     A
C307   C309    1.427   .     A
C308   C310    1.424   .     A
C308   C831    1.418   .     S
C309   C311    1.424   .     A
C309   C830    1.418   1_554 S
C310   C315    1.414   .     A
C311   C313    1.414   .     A
C312   F325    1.353   .     S
C312   C835    1.391   .     S
C313   I337    2.149   .     S
C313   C834    1.391   1_554 S
C314   F326    1.353   .     S
C314   C837    1.391   1_554 S
C315   I338    2.149   .     S
C315   C836    1.391   .     S
C316   H331    1.083   .     S
C317   H332    1.083   .     S
C317   C320    1.401   .     A
C317   C203    1.383   1_655 S
C318   H333    1.083   .     S
C318   C320    1.401   .     A
C318   C200    1.383   1_655 S
C319   H334    1.083   .     S
Cu321  Cu322   2.682   .     S
Cu321  O347    1.964   .     S
Cu321  O343    1.962   .     S
Cu321  N339    2.016   .     S
Cu321  O345    1.966   .     S
Cu321  O341    1.963   .     S
Cu322  O348    1.964   .     S
Cu322  N340    2.016   .     S
Cu322  O344    1.962   .     S
Cu322  O346    1.966   .     S
Cu322  O342    1.963   .     S
C349   O402    1.292   .     A
C349   O399    1.292   .     A
C349   C350    1.449   .     S
C350   C374    1.401   .     A
C350   C377    1.401   .     A
C351   N398    1.368   .     A
C351   F385    1.355   .     S
C352   N397    1.368   .     A
C352   F386    1.355   .     S
C352   C5      1.417   1_565 S
C353   N398    1.368   .     A
C353   F387    1.355   .     S
C354   F388    1.355   .     S
C354   N397    1.368   .     A
C354   C3      1.417   1_565 S
C355   O403    1.291   .     A
C355   O406    1.292   .     A
C355   C361    1.451   .     S
C356   O405    1.292   .     A
C356   C359    1.451   .     S
C356   O404    1.291   .     A
C357   C359    1.389   .     A
C357   F381    1.357   .     S
C357   C368    1.402   .     A
C358   C369    1.402   .     A
C358   F382    1.357   .     S
C358   C361    1.389   .     A
C359   C362    1.402   .     A
C360   C378    1.449   .     S
C360   O400    1.292   .     A
C360   O401    1.292   .     A
C361   C363    1.402   .     A
C362   I393    2.159   .     S
C362   C364    1.418   .     A
C363   C365    1.418   .     A
C363   I394    2.159   .     S
C364   C366    1.427   .     A
C364   C370    1.410   .     A
C365   C372    1.410   .     A
C365   C367    1.427   .     A
C366   C368    1.424   .     A
C366   C889    1.418   .     S
C367   C369    1.424   .     A
C367   C888    1.418   1_554 S
C368   C373    1.414   .     A
C369   C371    1.414   .     A
C370   F383    1.353   .     S
C370   C893    1.391   .     S
C371   I395    2.149   .     S
C371   C892    1.391   1_554 S
C372   F384    1.353   .     S
C372   C895    1.391   1_554 S
C373   I396    2.149   .     S
C373   C894    1.391   .     S
C374   H389    1.083   .     S
C374   C492    1.383   1_455 S
C375   H390    1.083   .     S
C375   C378    1.401   .     A
C375   C435    1.383   .     S
C376   H391    1.083   .     S
C376   C378    1.401   .     A
C376   C432    1.383   .     S
C377   H392    1.083   .     S
C377   C491    1.383   1_455 S
Cu379  Cu380   2.682   .     S
Cu379  O405    1.964   .     S
Cu379  O401    1.962   .     S
Cu379  N397    2.016   .     S
Cu379  O403    1.966   .     S
Cu379  O399    1.963   .     S
Cu380  O406    1.964   .     S
Cu380  N398    2.016   .     S
Cu380  O402    1.962   .     S
Cu380  O404    1.966   .     S
Cu380  O400    1.963   .     S
C407   O460    1.292   .     A
C407   O457    1.292   .     A
C407   C408    1.449   .     S
C408   C432    1.401   .     A
C408   C435    1.401   .     A
C409   N456    1.368   .     A
C409   F443    1.355   .     S
C410   N455    1.368   .     A
C410   F444    1.355   .     S
C410   C63     1.417   1_565 S
C411   N456    1.368   .     A
C411   F445    1.355   .     S
C412   F446    1.355   .     S
C412   N455    1.368   .     A
C412   C61     1.417   1_565 S
C413   O461    1.291   .     A
C413   O464    1.292   .     A
C413   C419    1.451   .     S
C414   O463    1.292   .     A
C414   C417    1.451   .     S
C414   O462    1.291   .     A
C415   C417    1.389   .     A
C415   F439    1.357   .     S
C415   C426    1.402   .     A
C416   C427    1.402   .     A
C416   F440    1.357   .     S
C416   C419    1.389   .     A
C417   C420    1.402   .     A
C418   C436    1.449   .     S
C418   O458    1.292   .     A
C418   O459    1.292   .     A
C419   C421    1.402   .     A
C420   I451    2.159   .     S
C420   C422    1.418   .     A
C421   C423    1.418   .     A
C421   I452    2.159   .     S
C422   C424    1.427   .     A
C422   C428    1.410   .     A
C423   C430    1.410   .     A
C423   C425    1.427   .     A
C424   C426    1.424   .     A
C424   C947    1.418   .     S
C425   C427    1.424   .     A
C425   C946    1.418   1_554 S
C426   C431    1.414   .     A
C427   C429    1.414   .     A
C428   F441    1.353   .     S
C428   C951    1.391   .     S
C429   I453    2.149   .     S
C429   C950    1.391   1_554 S
C430   F442    1.353   .     S
C430   C953    1.391   1_554 S
C431   I454    2.149   .     S
C431   C952    1.391   .     S
C432   H447    1.083   .     S
C433   H448    1.083   .     S
C433   C436    1.401   .     A
C433   C493    1.383   .     S
C434   H449    1.083   .     S
C434   C436    1.401   .     A
C434   C490    1.383   .     S
C435   H450    1.083   .     S
Cu437  Cu438   2.682   .     S
Cu437  O463    1.964   .     S
Cu437  O459    1.962   .     S
Cu437  N455    2.016   .     S
Cu437  O461    1.966   .     S
Cu437  O457    1.963   .     S
Cu438  O464    1.964   .     S
Cu438  N456    2.016   .     S
Cu438  O460    1.962   .     S
Cu438  O462    1.966   .     S
Cu438  O458    1.963   .     S
C465   O518    1.292   .     A
C465   O515    1.292   .     A
C465   C466    1.449   .     S
C466   C490    1.401   .     A
C466   C493    1.401   .     A
C467   N514    1.368   .     A
C467   F501    1.355   .     S
C468   N513    1.368   .     A
C468   F502    1.355   .     S
C468   C121    1.417   1_565 S
C469   N514    1.368   .     A
C469   F503    1.355   .     S
C470   F504    1.355   .     S
C470   N513    1.368   .     A
C470   C119    1.417   1_565 S
C471   O519    1.291   .     A
C471   O522    1.292   .     A
C471   C477    1.451   .     S
C472   O521    1.292   .     A
C472   C475    1.451   .     S
C472   O520    1.291   .     A
C473   C475    1.389   .     A
C473   F497    1.357   .     S
C473   C484    1.402   .     A
C474   C485    1.402   .     A
C474   F498    1.357   .     S
C474   C477    1.389   .     A
C475   C478    1.402   .     A
C476   C494    1.449   .     S
C476   O516    1.292   .     A
C476   O517    1.292   .     A
C477   C479    1.402   .     A
C478   I509    2.159   .     S
C478   C480    1.418   .     A
C479   C481    1.418   .     A
C479   I510    2.159   .     S
C480   C482    1.427   .     A
C480   C486    1.410   .     A
C481   C488    1.410   .     A
C481   C483    1.427   .     A
C482   C484    1.424   .     A
C482   C1005   1.418   .     S
C483   C485    1.424   .     A
C483   C1004   1.418   1_554 S
C484   C489    1.414   .     A
C485   C487    1.414   .     A
C486   F499    1.353   .     S
C486   C1009   1.391   .     S
C487   I511    2.149   .     S
C487   C1008   1.391   1_554 S
C488   F500    1.353   .     S
C488   C1011   1.391   1_554 S
C489   I512    2.149   .     S
C489   C1010   1.391   .     S
C490   H505    1.083   .     S
C491   H506    1.083   .     S
C491   C494    1.401   .     A
C491   C377    1.383   1_655 S
C492   H507    1.083   .     S
C492   C494    1.401   .     A
C492   C374    1.383   1_655 S
C493   H508    1.083   .     S
Cu495  Cu496   2.682   .     S
Cu495  O521    1.964   .     S
Cu495  O517    1.962   .     S
Cu495  N513    2.016   .     S
Cu495  O519    1.966   .     S
Cu495  O515    1.963   .     S
Cu496  O522    1.964   .     S
Cu496  N514    2.016   .     S
Cu496  O518    1.962   .     S
Cu496  O520    1.966   .     S
Cu496  O516    1.963   .     S
C523   O576    1.292   .     A
C523   O573    1.292   .     A
C523   C524    1.449   .     S
C524   C548    1.401   .     A
C524   C551    1.401   .     A
C525   N572    1.368   .     A
C525   F559    1.355   .     S
C525   C876    1.417   1_545 S
C526   N571    1.368   .     A
C526   F560    1.355   .     S
C526   C701    1.417   .     S
C527   N572    1.368   .     A
C527   F561    1.355   .     S
C527   C874    1.417   1_545 S
C528   F562    1.355   .     S
C528   N571    1.368   .     A
C528   C699    1.417   .     S
C529   O577    1.291   .     A
C529   O580    1.292   .     A
C529   C535    1.451   .     S
C530   O579    1.292   .     A
C530   C533    1.451   .     S
C530   O578    1.291   .     A
C531   C533    1.389   .     A
C531   F555    1.357   .     S
C531   C542    1.402   .     A
C532   C543    1.402   .     A
C532   F556    1.357   .     S
C532   C535    1.389   .     A
C533   C536    1.402   .     A
C534   C552    1.449   .     S
C534   O574    1.292   .     A
C534   O575    1.292   .     A
C535   C537    1.402   .     A
C536   I567    2.159   .     S
C536   C538    1.418   .     A
C537   C539    1.418   .     A
C537   I568    2.159   .     S
C538   C540    1.427   .     A
C538   C544    1.410   .     A
C539   C546    1.410   .     A
C539   C541    1.427   .     A
C540   C542    1.424   .     A
C540   C19     1.418   1_556 S
C541   C543    1.424   .     A
C542   C547    1.414   .     A
C543   C545    1.414   .     A
C544   F557    1.353   .     S
C544   C23     1.391   1_556 S
C545   I569    2.149   .     S
C546   F558    1.353   .     S
C547   I570    2.149   .     S
C547   C24     1.391   1_556 S
C548   H563    1.083   .     S
C548   C666    1.383   1_455 S
C549   H564    1.083   .     S
C549   C552    1.401   .     A
C549   C609    1.383   .     S
C550   H565    1.083   .     S
C550   C552    1.401   .     A
C550   C606    1.383   .     S
C551   H566    1.083   .     S
C551   C665    1.383   1_455 S
Cu553  Cu554   2.682   .     S
Cu553  O579    1.964   .     S
Cu553  O575    1.962   .     S
Cu553  N571    2.016   .     S
Cu553  O577    1.966   .     S
Cu553  O573    1.963   .     S
Cu554  O580    1.964   .     S
Cu554  N572    2.016   .     S
Cu554  O576    1.962   .     S
Cu554  O578    1.966   .     S
Cu554  O574    1.963   .     S
C581   O634    1.292   .     A
C581   O631    1.292   .     A
C581   C582    1.449   .     S
C582   C606    1.401   .     A
C582   C609    1.401   .     A
C583   N630    1.368   .     A
C583   F617    1.355   .     S
C583   C934    1.417   1_545 S
C584   N629    1.368   .     A
C584   F618    1.355   .     S
C584   C759    1.417   .     S
C585   N630    1.368   .     A
C585   F619    1.355   .     S
C585   C932    1.417   1_545 S
C586   F620    1.355   .     S
C586   N629    1.368   .     A
C586   C757    1.417   .     S
C587   O635    1.291   .     A
C587   O638    1.292   .     A
C587   C593    1.451   .     S
C588   O637    1.292   .     A
C588   C591    1.451   .     S
C588   O636    1.291   .     A
C589   C591    1.389   .     A
C589   F613    1.357   .     S
C589   C600    1.402   .     A
C590   C601    1.402   .     A
C590   F614    1.357   .     S
C590   C593    1.389   .     A
C591   C594    1.402   .     A
C592   C610    1.449   .     S
C592   O632    1.292   .     A
C592   O633    1.292   .     A
C593   C595    1.402   .     A
C594   I625    2.159   .     S
C594   C596    1.418   .     A
C595   C597    1.418   .     A
C595   I626    2.159   .     S
C596   C598    1.427   .     A
C596   C602    1.410   .     A
C597   C604    1.410   .     A
C597   C599    1.427   .     A
C598   C600    1.424   .     A
C598   C77     1.418   1_556 S
C599   C601    1.424   .     A
C600   C605    1.414   .     A
C601   C603    1.414   .     A
C602   F615    1.353   .     S
C602   C81     1.391   1_556 S
C603   I627    2.149   .     S
C604   F616    1.353   .     S
C605   I628    2.149   .     S
C605   C82     1.391   1_556 S
C606   H621    1.083   .     S
C607   H622    1.083   .     S
C607   C610    1.401   .     A
C607   C667    1.383   .     S
C608   H623    1.083   .     S
C608   C610    1.401   .     A
C608   C664    1.383   .     S
C609   H624    1.083   .     S
Cu611  Cu612   2.682   .     S
Cu611  O637    1.964   .     S
Cu611  O633    1.962   .     S
Cu611  N629    2.016   .     S
Cu611  O635    1.966   .     S
Cu611  O631    1.963   .     S
Cu612  O638    1.964   .     S
Cu612  N630    2.016   .     S
Cu612  O634    1.962   .     S
Cu612  O636    1.966   .     S
Cu612  O632    1.963   .     S
C639   O692    1.292   .     A
C639   O689    1.292   .     A
C639   C640    1.449   .     S
C640   C664    1.401   .     A
C640   C667    1.401   .     A
C641   N688    1.368   .     A
C641   F675    1.355   .     S
C641   C992    1.417   1_545 S
C642   N687    1.368   .     A
C642   F676    1.355   .     S
C642   C817    1.417   .     S
C643   N688    1.368   .     A
C643   F677    1.355   .     S
C643   C990    1.417   1_545 S
C644   F678    1.355   .     S
C644   N687    1.368   .     A
C644   C815    1.417   .     S
C645   O693    1.291   .     A
C645   O696    1.292   .     A
C645   C651    1.451   .     S
C646   O695    1.292   .     A
C646   C649    1.451   .     S
C646   O694    1.291   .     A
C647   C649    1.389   .     A
C647   F671    1.357   .     S
C647   C658    1.402   .     A
C648   C659    1.402   .     A
C648   F672    1.357   .     S
C648   C651    1.389   .     A
C649   C652    1.402   .     A
C650   C668    1.449   .     S
C650   O690    1.292   .     A
C650   O691    1.292   .     A
C651   C653    1.402   .     A
C652   I683    2.159   .     S
C652   C654    1.418   .     A
C653   C655    1.418   .     A
C653   I684    2.159   .     S
C654   C656    1.427   .     A
C654   C660    1.410   .     A
C655   C662    1.410   .     A
C655   C657    1.427   .     A
C656   C658    1.424   .     A
C656   C135    1.418   1_556 S
C657   C659    1.424   .     A
C658   C663    1.414   .     A
C659   C661    1.414   .     A
C660   F673    1.353   .     S
C660   C139    1.391   1_556 S
C661   I685    2.149   .     S
C662   F674    1.353   .     S
C663   I686    2.149   .     S
C663   C140    1.391   1_556 S
C664   H679    1.083   .     S
C665   H680    1.083   .     S
C665   C668    1.401   .     A
C665   C551    1.383   1_655 S
C666   H681    1.083   .     S
C666   C668    1.401   .     A
C666   C548    1.383   1_655 S
C667   H682    1.083   .     S
Cu669  Cu670   2.682   .     S
Cu669  O695    1.964   .     S
Cu669  O691    1.962   .     S
Cu669  N687    2.016   .     S
Cu669  O693    1.966   .     S
Cu669  O689    1.963   .     S
Cu670  O696    1.964   .     S
Cu670  N688    2.016   .     S
Cu670  O692    1.962   .     S
Cu670  O694    1.966   .     S
Cu670  O690    1.963   .     S
C697   O750    1.292   .     A
C697   O747    1.292   .     A
C697   C698    1.449   .     S
C698   C722    1.401   .     A
C698   C725    1.401   .     A
C699   N746    1.368   .     A
C699   F733    1.355   .     S
C700   N745    1.368   .     A
C700   F734    1.355   .     S
C700   C875    1.417   .     S
C701   N746    1.368   .     A
C701   F735    1.355   .     S
C702   F736    1.355   .     S
C702   N745    1.368   .     A
C702   C873    1.417   .     S
C703   O751    1.291   .     A
C703   O754    1.292   .     A
C703   C709    1.451   .     S
C704   O753    1.292   .     A
C704   C707    1.451   .     S
C704   O752    1.291   .     A
C705   C707    1.389   .     A
C705   F729    1.357   .     S
C705   C716    1.402   .     A
C706   C717    1.402   .     A
C706   F730    1.357   .     S
C706   C709    1.389   .     A
C707   C710    1.402   .     A
C708   C726    1.449   .     S
C708   O748    1.292   .     A
C708   O749    1.292   .     A
C709   C711    1.402   .     A
C710   I741    2.159   .     S
C710   C712    1.418   .     A
C711   C713    1.418   .     A
C711   I742    2.159   .     S
C712   C714    1.427   .     A
C712   C718    1.410   .     A
C713   C720    1.410   .     A
C713   C715    1.427   .     A
C714   C716    1.424   .     A
C714   C193    1.418   1_556 S
C715   C717    1.424   .     A
C716   C721    1.414   .     A
C717   C719    1.414   .     A
C718   F731    1.353   .     S
C718   C197    1.391   1_556 S
C719   I743    2.149   .     S
C720   F732    1.353   .     S
C721   I744    2.149   .     S
C721   C198    1.391   1_556 S
C722   H737    1.083   .     S
C722   C840    1.383   1_455 S
C723   H738    1.083   .     S
C723   C726    1.401   .     A
C723   C783    1.383   .     S
C724   H739    1.083   .     S
C724   C726    1.401   .     A
C724   C780    1.383   .     S
C725   H740    1.083   .     S
C725   C839    1.383   1_455 S
Cu727  Cu728   2.682   .     S
Cu727  O753    1.964   .     S
Cu727  O749    1.962   .     S
Cu727  N745    2.016   .     S
Cu727  O751    1.966   .     S
Cu727  O747    1.963   .     S
Cu728  O754    1.964   .     S
Cu728  N746    2.016   .     S
Cu728  O750    1.962   .     S
Cu728  O752    1.966   .     S
Cu728  O748    1.963   .     S
C755   O808    1.292   .     A
C755   O805    1.292   .     A
C755   C756    1.449   .     S
C756   C780    1.401   .     A
C756   C783    1.401   .     A
C757   N804    1.368   .     A
C757   F791    1.355   .     S
C758   N803    1.368   .     A
C758   F792    1.355   .     S
C758   C933    1.417   .     S
C759   N804    1.368   .     A
C759   F793    1.355   .     S
C760   F794    1.355   .     S
C760   N803    1.368   .     A
C760   C931    1.417   .     S
C761   O809    1.291   .     A
C761   O812    1.292   .     A
C761   C767    1.451   .     S
C762   O811    1.292   .     A
C762   C765    1.451   .     S
C762   O810    1.291   .     A
C763   C765    1.389   .     A
C763   F787    1.357   .     S
C763   C774    1.402   .     A
C764   C775    1.402   .     A
C764   F788    1.357   .     S
C764   C767    1.389   .     A
C765   C768    1.402   .     A
C766   C784    1.449   .     S
C766   O806    1.292   .     A
C766   O807    1.292   .     A
C767   C769    1.402   .     A
C768   I799    2.159   .     S
C768   C770    1.418   .     A
C769   C771    1.418   .     A
C769   I800    2.159   .     S
C770   C772    1.427   .     A
C770   C776    1.410   .     A
C771   C778    1.410   .     A
C771   C773    1.427   .     A
C772   C774    1.424   .     A
C772   C251    1.418   1_556 S
C773   C775    1.424   .     A
C774   C779    1.414   .     A
C775   C777    1.414   .     A
C776   F789    1.353   .     S
C776   C255    1.391   1_556 S
C777   I801    2.149   .     S
C778   F790    1.353   .     S
C779   I802    2.149   .     S
C779   C256    1.391   1_556 S
C780   H795    1.083   .     S
C781   H796    1.083   .     S
C781   C784    1.401   .     A
C781   C841    1.383   .     S
C782   H797    1.083   .     S
C782   C784    1.401   .     A
C782   C838    1.383   .     S
C783   H798    1.083   .     S
Cu785  Cu786   2.682   .     S
Cu785  O811    1.964   .     S
Cu785  O807    1.962   .     S
Cu785  N803    2.016   .     S
Cu785  O809    1.966   .     S
Cu785  O805    1.963   .     S
Cu786  O812    1.964   .     S
Cu786  N804    2.016   .     S
Cu786  O808    1.962   .     S
Cu786  O810    1.966   .     S
Cu786  O806    1.963   .     S
C813   O866    1.292   .     A
C813   O863    1.292   .     A
C813   C814    1.449   .     S
C814   C838    1.401   .     A
C814   C841    1.401   .     A
C815   N862    1.368   .     A
C815   F849    1.355   .     S
C816   N861    1.368   .     A
C816   F850    1.355   .     S
C816   C991    1.417   .     S
C817   N862    1.368   .     A
C817   F851    1.355   .     S
C818   F852    1.355   .     S
C818   N861    1.368   .     A
C818   C989    1.417   .     S
C819   O867    1.291   .     A
C819   O870    1.292   .     A
C819   C825    1.451   .     S
C820   O869    1.292   .     A
C820   C823    1.451   .     S
C820   O868    1.291   .     A
C821   C823    1.389   .     A
C821   F845    1.357   .     S
C821   C832    1.402   .     A
C822   C833    1.402   .     A
C822   F846    1.357   .     S
C822   C825    1.389   .     A
C823   C826    1.402   .     A
C824   C842    1.449   .     S
C824   O864    1.292   .     A
C824   O865    1.292   .     A
C825   C827    1.402   .     A
C826   I857    2.159   .     S
C826   C828    1.418   .     A
C827   C829    1.418   .     A
C827   I858    2.159   .     S
C828   C830    1.427   .     A
C828   C834    1.410   .     A
C829   C836    1.410   .     A
C829   C831    1.427   .     A
C830   C832    1.424   .     A
C830   C309    1.418   1_556 S
C831   C833    1.424   .     A
C832   C837    1.414   .     A
C833   C835    1.414   .     A
C834   F847    1.353   .     S
C834   C313    1.391   1_556 S
C835   I859    2.149   .     S
C836   F848    1.353   .     S
C837   I860    2.149   .     S
C837   C314    1.391   1_556 S
C838   H853    1.083   .     S
C839   H854    1.083   .     S
C839   C842    1.401   .     A
C839   C725    1.383   1_655 S
C840   H855    1.083   .     S
C840   C842    1.401   .     A
C840   C722    1.383   1_655 S
C841   H856    1.083   .     S
Cu843  Cu844   2.682   .     S
Cu843  O869    1.964   .     S
Cu843  O865    1.962   .     S
Cu843  N861    2.016   .     S
Cu843  O867    1.966   .     S
Cu843  O863    1.963   .     S
Cu844  O870    1.964   .     S
Cu844  N862    2.016   .     S
Cu844  O866    1.962   .     S
Cu844  O868    1.966   .     S
Cu844  O864    1.963   .     S
C871   O924    1.292   .     A
C871   O921    1.292   .     A
C871   C872    1.449   .     S
C872   C896    1.401   .     A
C872   C899    1.401   .     A
C873   N920    1.368   .     A
C873   F907    1.355   .     S
C874   N919    1.368   .     A
C874   F908    1.355   .     S
C874   C527    1.417   1_565 S
C875   N920    1.368   .     A
C875   F909    1.355   .     S
C876   F910    1.355   .     S
C876   N919    1.368   .     A
C876   C525    1.417   1_565 S
C877   O925    1.291   .     A
C877   O928    1.292   .     A
C877   C883    1.451   .     S
C878   O927    1.292   .     A
C878   C881    1.451   .     S
C878   O926    1.291   .     A
C879   C881    1.389   .     A
C879   F903    1.357   .     S
C879   C890    1.402   .     A
C880   C891    1.402   .     A
C880   F904    1.357   .     S
C880   C883    1.389   .     A
C881   C884    1.402   .     A
C882   C900    1.449   .     S
C882   O922    1.292   .     A
C882   O923    1.292   .     A
C883   C885    1.402   .     A
C884   I915    2.159   .     S
C884   C886    1.418   .     A
C885   C887    1.418   .     A
C885   I916    2.159   .     S
C886   C888    1.427   .     A
C886   C892    1.410   .     A
C887   C894    1.410   .     A
C887   C889    1.427   .     A
C888   C890    1.424   .     A
C888   C367    1.418   1_556 S
C889   C891    1.424   .     A
C890   C895    1.414   .     A
C891   C893    1.414   .     A
C892   F905    1.353   .     S
C892   C371    1.391   1_556 S
C893   I917    2.149   .     S
C894   F906    1.353   .     S
C895   I918    2.149   .     S
C895   C372    1.391   1_556 S
C896   H911    1.083   .     S
C896   C1014   1.383   1_455 S
C897   H912    1.083   .     S
C897   C900    1.401   .     A
C897   C957    1.383   .     S
C898   H913    1.083   .     S
C898   C900    1.401   .     A
C898   C954    1.383   .     S
C899   H914    1.083   .     S
C899   C1013   1.383   1_455 S
Cu901  Cu902   2.682   .     S
Cu901  O927    1.964   .     S
Cu901  O923    1.962   .     S
Cu901  N919    2.016   .     S
Cu901  O925    1.966   .     S
Cu901  O921    1.963   .     S
Cu902  O928    1.964   .     S
Cu902  N920    2.016   .     S
Cu902  O924    1.962   .     S
Cu902  O926    1.966   .     S
Cu902  O922    1.963   .     S
C929   O982    1.292   .     A
C929   O979    1.292   .     A
C929   C930    1.449   .     S
C930   C954    1.401   .     A
C930   C957    1.401   .     A
C931   N978    1.368   .     A
C931   F965    1.355   .     S
C932   N977    1.368   .     A
C932   F966    1.355   .     S
C932   C585    1.417   1_565 S
C933   N978    1.368   .     A
C933   F967    1.355   .     S
C934   F968    1.355   .     S
C934   N977    1.368   .     A
C934   C583    1.417   1_565 S
C935   O983    1.291   .     A
C935   O986    1.292   .     A
C935   C941    1.451   .     S
C936   O985    1.292   .     A
C936   C939    1.451   .     S
C936   O984    1.291   .     A
C937   C939    1.389   .     A
C937   F961    1.357   .     S
C937   C948    1.402   .     A
C938   C949    1.402   .     A
C938   F962    1.357   .     S
C938   C941    1.389   .     A
C939   C942    1.402   .     A
C940   C958    1.449   .     S
C940   O980    1.292   .     A
C940   O981    1.292   .     A
C941   C943    1.402   .     A
C942   I973    2.159   .     S
C942   C944    1.418   .     A
C943   C945    1.418   .     A
C943   I974    2.159   .     S
C944   C946    1.427   .     A
C944   C950    1.410   .     A
C945   C952    1.410   .     A
C945   C947    1.427   .     A
C946   C948    1.424   .     A
C946   C425    1.418   1_556 S
C947   C949    1.424   .     A
C948   C953    1.414   .     A
C949   C951    1.414   .     A
C950   F963    1.353   .     S
C950   C429    1.391   1_556 S
C951   I975    2.149   .     S
C952   F964    1.353   .     S
C953   I976    2.149   .     S
C953   C430    1.391   1_556 S
C954   H969    1.083   .     S
C955   H970    1.083   .     S
C955   C958    1.401   .     A
C955   C1015   1.383   .     S
C956   H971    1.083   .     S
C956   C958    1.401   .     A
C956   C1012   1.383   .     S
C957   H972    1.083   .     S
Cu959  Cu960   2.682   .     S
Cu959  O985    1.964   .     S
Cu959  O981    1.962   .     S
Cu959  N977    2.016   .     S
Cu959  O983    1.966   .     S
Cu959  O979    1.963   .     S
Cu960  O986    1.964   .     S
Cu960  N978    2.016   .     S
Cu960  O982    1.962   .     S
Cu960  O984    1.966   .     S
Cu960  O980    1.963   .     S
C987   O1040   1.292   .     A
C987   O1037   1.292   .     A
C987   C988    1.449   .     S
C988   C1012   1.401   .     A
C988   C1015   1.401   .     A
C989   N1036   1.368   .     A
C989   F1023   1.355   .     S
C990   N1035   1.368   .     A
C990   F1024   1.355   .     S
C990   C643    1.417   1_565 S
C991   N1036   1.368   .     A
C991   F1025   1.355   .     S
C992   F1026   1.355   .     S
C992   N1035   1.368   .     A
C992   C641    1.417   1_565 S
C993   O1041   1.291   .     A
C993   O1044   1.292   .     A
C993   C999    1.451   .     S
C994   O1043   1.292   .     A
C994   C997    1.451   .     S
C994   O1042   1.291   .     A
C995   C997    1.389   .     A
C995   F1019   1.357   .     S
C995   C1006   1.402   .     A
C996   C1007   1.402   .     A
C996   F1020   1.357   .     S
C996   C999    1.389   .     A
C997   C1000   1.402   .     A
C998   C1016   1.449   .     S
C998   O1038   1.292   .     A
C998   O1039   1.292   .     A
C999   C1001   1.402   .     A
C1000  I1031   2.159   .     S
C1000  C1002   1.418   .     A
C1001  C1003   1.418   .     A
C1001  I1032   2.159   .     S
C1002  C1004   1.427   .     A
C1002  C1008   1.410   .     A
C1003  C1010   1.410   .     A
C1003  C1005   1.427   .     A
C1004  C1006   1.424   .     A
C1004  C483    1.418   1_556 S
C1005  C1007   1.424   .     A
C1006  C1011   1.414   .     A
C1007  C1009   1.414   .     A
C1008  F1021   1.353   .     S
C1008  C487    1.391   1_556 S
C1009  I1033   2.149   .     S
C1010  F1022   1.353   .     S
C1011  I1034   2.149   .     S
C1011  C488    1.391   1_556 S
C1012  H1027   1.083   .     S
C1013  H1028   1.083   .     S
C1013  C1016   1.401   .     A
C1013  C899    1.383   1_655 S
C1014  H1029   1.083   .     S
C1014  C1016   1.401   .     A
C1014  C896    1.383   1_655 S
C1015  H1030   1.083   .     S
Cu1017 Cu1018  2.682   .     S
Cu1017 O1043   1.964   .     S
Cu1017 O1039   1.962   .     S
Cu1017 N1035   2.016   .     S
Cu1017 O1041   1.966   .     S
Cu1017 O1037   1.963   .     S
Cu1018 O1044   1.964   .     S
Cu1018 N1036   2.016   .     S
Cu1018 O1040   1.962   .     S
Cu1018 O1042   1.966   .     S
Cu1018 O1038   1.963   .     S
