data_str_m2_o10_o16_pcu_sym.143
_audit_creation_date              2020-01-03
_audit_creation_method            'Materials Studio'
_symmetry_space_group_name_H-M    'P1'
_symmetry_Int_Tables_number       1
_symmetry_cell_setting            triclinic
loop_
_symmetry_equiv_pos_as_xyz
  x,y,z
_cell_length_a                    22.3676
_cell_length_b                    26.2651
_cell_length_c                    26.8100
_cell_angle_alpha                 94.1651
_cell_angle_beta                  78.1636
_cell_angle_gamma                 103.0897
loop_
_atom_site_label
_atom_site_type_symbol
_atom_site_fract_x
_atom_site_fract_y
_atom_site_fract_z
_atom_site_U_iso_or_equiv
_atom_site_adp_type
_atom_site_occupancy
C1     C     0.18166   0.26659   0.25086   0.00000  Uiso   1.00
C2     C     0.14218   0.17797   0.48793   0.00000  Uiso   1.00
C3     C     0.15879   0.18853   0.43523   0.00000  Uiso   1.00
C4     C     0.18810   0.19381   0.01867   0.00000  Uiso   1.00
C5     C     0.25142   0.21133   0.49560   0.00000  Uiso   1.00
C6     C     0.26625   0.22656   0.44510   0.00000  Uiso   1.00
C7     C     0.21945   0.21868   0.41639   0.00000  Uiso   1.00
C8     C     0.17339   0.19266   0.07185   0.00000  Uiso   1.00
C9     C     0.28170   0.19643   0.07406   0.00000  Uiso   1.00
C10    C     0.11516   0.16712   0.40306   0.00000  Uiso   1.00
C11    C     0.18862   0.32230   0.25145   0.00000  Uiso   1.00
C12    C     0.13391   0.16663   0.34709   0.00000  Uiso   1.00
C13    C     0.14333   0.01120   0.24287   0.00000  Uiso   1.00
C14    C     0.15191   0.06681   0.24725   0.00000  Uiso   1.00
C15    C     0.20023   0.17366   0.15337   0.00000  Uiso   1.00
C16    C     0.29819   0.21398   0.02404   0.00000  Uiso   1.00
C17    C     0.21898   0.18641   0.09890   0.00000  Uiso   1.00
C18    C     0.05527   0.13894   0.42444   0.00000  Uiso   1.00
C19    C     0.03956   0.12850   0.47606   0.00000  Uiso   1.00
C20    C     0.08249   0.14724   0.00752   0.00000  Uiso   1.00
Cu21   Cu    0.10710   0.16105   0.24435   0.00000  Uiso   1.00
Cu22   Cu    0.22623   0.17228   0.25564   0.00000  Uiso   1.00
H23    H     0.31748   0.19300   0.09411   0.00000  Uiso   1.00
H24    H     0.00365   0.20568   0.28991   0.00000  Uiso   1.00
H25    H     0.32964   0.12757   0.21018   0.00000  Uiso   1.00
H26    H     0.01377   0.22689   0.00683   0.00000  Uiso   1.00
H27    H     0.02159   0.12221   0.40066   0.00000  Uiso   1.00
H28    H     0.06913   0.13577   0.04688   0.00000  Uiso   1.00
H29    H     0.32739   0.10494   0.49172   0.00000  Uiso   1.00
H30    H     0.23191   0.01255   0.26048   0.00000  Uiso   1.00
N31    N     0.31574   0.18074   0.26416   0.00000  Uiso   1.00
N32    N     0.01759   0.15259   0.23584   0.00000  Uiso   1.00
O33    O     0.12797   0.23807   0.24633   0.00000  Uiso   1.00
O34    O     0.22858   0.24755   0.25586   0.00000  Uiso   1.00
O35    O     0.09181   0.15960   0.31839   0.00000  Uiso   1.00
O36    O     0.19242   0.16908   0.32793   0.00000  Uiso   1.00
O37    O     0.10476   0.08578   0.24413   0.00000  Uiso   1.00
O38    O     0.20536   0.09526   0.25367   0.00000  Uiso   1.00
O39    O     0.14092   0.16425   0.17207   0.00000  Uiso   1.00
O40    O     0.24152   0.17373   0.18160   0.00000  Uiso   1.00
C41    C     0.08497   0.31623   0.22862   0.00000  Uiso   1.00
N42    N     0.03838   0.29436   0.21737   0.00000  Uiso   1.00
H43    H     0.31384   0.24480   0.42790   0.00000  Uiso   1.00
C44    C     0.12222   0.21607   0.09761   0.00000  Uiso   1.00
N45    N     0.08273   0.23599   0.11873   0.00000  Uiso   1.00
H46    H     0.23246   0.23527   0.37904   0.00000  Uiso   1.00
C47    C     0.51499   0.26659   0.25086   0.00000  Uiso   1.00
C48    C     0.47551   0.17797   0.48793   0.00000  Uiso   1.00
C49    C     0.49213   0.18853   0.43523   0.00000  Uiso   1.00
C50    C     0.52144   0.19381   0.01867   0.00000  Uiso   1.00
C51    C     0.58476   0.21133   0.49560   0.00000  Uiso   1.00
C52    C     0.59958   0.22656   0.44510   0.00000  Uiso   1.00
C53    C     0.55278   0.21868   0.41639   0.00000  Uiso   1.00
C54    C     0.50673   0.19266   0.07185   0.00000  Uiso   1.00
C55    C     0.61503   0.19643   0.07406   0.00000  Uiso   1.00
C56    C     0.44849   0.16712   0.40306   0.00000  Uiso   1.00
C57    C     0.52196   0.32230   0.25145   0.00000  Uiso   1.00
C58    C     0.46724   0.16663   0.34709   0.00000  Uiso   1.00
C59    C     0.47667   0.01120   0.24287   0.00000  Uiso   1.00
C60    C     0.48525   0.06681   0.24725   0.00000  Uiso   1.00
C61    C     0.53356   0.17366   0.15337   0.00000  Uiso   1.00
C62    C     0.63152   0.21398   0.02404   0.00000  Uiso   1.00
C63    C     0.55231   0.18641   0.09890   0.00000  Uiso   1.00
C64    C     0.38861   0.13894   0.42444   0.00000  Uiso   1.00
C65    C     0.37289   0.12850   0.47606   0.00000  Uiso   1.00
C66    C     0.41582   0.14724   0.00752   0.00000  Uiso   1.00
Cu67   Cu    0.44043   0.16105   0.24435   0.00000  Uiso   1.00
Cu68   Cu    0.55957   0.17228   0.25564   0.00000  Uiso   1.00
H69    H     0.65082   0.19300   0.09411   0.00000  Uiso   1.00
H70    H     0.33698   0.20568   0.28991   0.00000  Uiso   1.00
H71    H     0.66297   0.12757   0.21018   0.00000  Uiso   1.00
H72    H     0.34711   0.22689   0.00683   0.00000  Uiso   1.00
H73    H     0.35492   0.12221   0.40066   0.00000  Uiso   1.00
H74    H     0.40246   0.13577   0.04688   0.00000  Uiso   1.00
H75    H     0.66072   0.10494   0.49172   0.00000  Uiso   1.00
H76    H     0.56525   0.01255   0.26048   0.00000  Uiso   1.00
N77    N     0.64908   0.18074   0.26416   0.00000  Uiso   1.00
N78    N     0.35092   0.15259   0.23584   0.00000  Uiso   1.00
O79    O     0.46131   0.23807   0.24633   0.00000  Uiso   1.00
O80    O     0.56191   0.24755   0.25586   0.00000  Uiso   1.00
O81    O     0.42515   0.15960   0.31839   0.00000  Uiso   1.00
O82    O     0.52575   0.16908   0.32793   0.00000  Uiso   1.00
O83    O     0.43809   0.08578   0.24413   0.00000  Uiso   1.00
O84    O     0.53869   0.09526   0.25367   0.00000  Uiso   1.00
O85    O     0.47425   0.16425   0.17207   0.00000  Uiso   1.00
O86    O     0.57485   0.17373   0.18160   0.00000  Uiso   1.00
C87    C     0.41830   0.31623   0.22862   0.00000  Uiso   1.00
N88    N     0.37171   0.29436   0.21737   0.00000  Uiso   1.00
H89    H     0.64717   0.24480   0.42790   0.00000  Uiso   1.00
C90    C     0.45555   0.21607   0.09761   0.00000  Uiso   1.00
N91    N     0.41607   0.23599   0.11873   0.00000  Uiso   1.00
H92    H     0.56579   0.23527   0.37904   0.00000  Uiso   1.00
C93    C     0.84832   0.26659   0.25086   0.00000  Uiso   1.00
C94    C     0.80884   0.17797   0.48793   0.00000  Uiso   1.00
C95    C     0.82546   0.18853   0.43523   0.00000  Uiso   1.00
C96    C     0.85477   0.19381   0.01867   0.00000  Uiso   1.00
C97    C     0.91809   0.21133   0.49560   0.00000  Uiso   1.00
C98    C     0.93292   0.22656   0.44510   0.00000  Uiso   1.00
C99    C     0.88612   0.21868   0.41639   0.00000  Uiso   1.00
C100   C     0.84006   0.19266   0.07185   0.00000  Uiso   1.00
C101   C     0.94836   0.19643   0.07406   0.00000  Uiso   1.00
C102   C     0.78182   0.16712   0.40306   0.00000  Uiso   1.00
C103   C     0.85529   0.32230   0.25145   0.00000  Uiso   1.00
C104   C     0.80057   0.16663   0.34709   0.00000  Uiso   1.00
C105   C     0.81000   0.01120   0.24287   0.00000  Uiso   1.00
C106   C     0.81858   0.06681   0.24725   0.00000  Uiso   1.00
C107   C     0.86690   0.17366   0.15337   0.00000  Uiso   1.00
C108   C     0.96485   0.21398   0.02404   0.00000  Uiso   1.00
C109   C     0.88564   0.18641   0.09890   0.00000  Uiso   1.00
C110   C     0.72194   0.13894   0.42444   0.00000  Uiso   1.00
C111   C     0.70623   0.12850   0.47606   0.00000  Uiso   1.00
C112   C     0.74915   0.14724   0.00752   0.00000  Uiso   1.00
Cu113  Cu    0.77377   0.16105   0.24435   0.00000  Uiso   1.00
Cu114  Cu    0.89290   0.17228   0.25564   0.00000  Uiso   1.00
H115   H     0.98415   0.19300   0.09411   0.00000  Uiso   1.00
H116   H     0.67031   0.20568   0.28991   0.00000  Uiso   1.00
H117   H     0.99630   0.12757   0.21018   0.00000  Uiso   1.00
H118   H     0.68044   0.22689   0.00683   0.00000  Uiso   1.00
H119   H     0.68826   0.12221   0.40066   0.00000  Uiso   1.00
H120   H     0.73579   0.13577   0.04688   0.00000  Uiso   1.00
H121   H     0.99406   0.10494   0.49172   0.00000  Uiso   1.00
H122   H     0.89858   0.01255   0.26048   0.00000  Uiso   1.00
N123   N     0.98241   0.18074   0.26416   0.00000  Uiso   1.00
N124   N     0.68426   0.15259   0.23584   0.00000  Uiso   1.00
O125   O     0.79464   0.23807   0.24633   0.00000  Uiso   1.00
O126   O     0.89524   0.24755   0.25586   0.00000  Uiso   1.00
O127   O     0.75848   0.15960   0.31839   0.00000  Uiso   1.00
O128   O     0.85908   0.16908   0.32793   0.00000  Uiso   1.00
O129   O     0.77142   0.08578   0.24413   0.00000  Uiso   1.00
O130   O     0.87203   0.09526   0.25367   0.00000  Uiso   1.00
O131   O     0.80758   0.16425   0.17207   0.00000  Uiso   1.00
O132   O     0.90819   0.17373   0.18160   0.00000  Uiso   1.00
C133   C     0.75163   0.31623   0.22862   0.00000  Uiso   1.00
N134   N     0.70505   0.29436   0.21737   0.00000  Uiso   1.00
H135   H     0.98050   0.24480   0.42790   0.00000  Uiso   1.00
C136   C     0.78889   0.21607   0.09761   0.00000  Uiso   1.00
N137   N     0.74940   0.23599   0.11873   0.00000  Uiso   1.00
H138   H     0.89913   0.23527   0.37904   0.00000  Uiso   1.00
C139   C     0.18166   0.59993   0.25086   0.00000  Uiso   1.00
C140   C     0.14218   0.51130   0.48793   0.00000  Uiso   1.00
C141   C     0.15879   0.52187   0.43523   0.00000  Uiso   1.00
C142   C     0.18810   0.52715   0.01867   0.00000  Uiso   1.00
C143   C     0.25142   0.54466   0.49560   0.00000  Uiso   1.00
C144   C     0.26625   0.55989   0.44510   0.00000  Uiso   1.00
C145   C     0.21945   0.55202   0.41639   0.00000  Uiso   1.00
C146   C     0.17339   0.52599   0.07185   0.00000  Uiso   1.00
C147   C     0.28170   0.52976   0.07406   0.00000  Uiso   1.00
C148   C     0.11516   0.50045   0.40306   0.00000  Uiso   1.00
C149   C     0.18862   0.65563   0.25145   0.00000  Uiso   1.00
C150   C     0.13391   0.49996   0.34709   0.00000  Uiso   1.00
C151   C     0.14333   0.34453   0.24287   0.00000  Uiso   1.00
C152   C     0.15191   0.40015   0.24725   0.00000  Uiso   1.00
C153   C     0.20023   0.50699   0.15337   0.00000  Uiso   1.00
C154   C     0.29819   0.54732   0.02404   0.00000  Uiso   1.00
C155   C     0.21898   0.51974   0.09890   0.00000  Uiso   1.00
C156   C     0.05527   0.47228   0.42444   0.00000  Uiso   1.00
C157   C     0.03956   0.46184   0.47606   0.00000  Uiso   1.00
C158   C     0.08249   0.48058   0.00752   0.00000  Uiso   1.00
Cu159  Cu    0.10710   0.49439   0.24435   0.00000  Uiso   1.00
Cu160  Cu    0.22623   0.50561   0.25564   0.00000  Uiso   1.00
H161   H     0.31748   0.52633   0.09411   0.00000  Uiso   1.00
H162   H     0.00365   0.53901   0.28991   0.00000  Uiso   1.00
H163   H     0.32964   0.46090   0.21018   0.00000  Uiso   1.00
H164   H     0.01377   0.56022   0.00683   0.00000  Uiso   1.00
H165   H     0.02159   0.45555   0.40066   0.00000  Uiso   1.00
H166   H     0.06913   0.46910   0.04688   0.00000  Uiso   1.00
H167   H     0.32739   0.43827   0.49172   0.00000  Uiso   1.00
H168   H     0.23191   0.34588   0.26048   0.00000  Uiso   1.00
N169   N     0.31574   0.51407   0.26416   0.00000  Uiso   1.00
N170   N     0.01759   0.48593   0.23584   0.00000  Uiso   1.00
O171   O     0.12797   0.57141   0.24633   0.00000  Uiso   1.00
O172   O     0.22858   0.58089   0.25586   0.00000  Uiso   1.00
O173   O     0.09181   0.49293   0.31839   0.00000  Uiso   1.00
O174   O     0.19242   0.50241   0.32793   0.00000  Uiso   1.00
O175   O     0.10476   0.41911   0.24413   0.00000  Uiso   1.00
O176   O     0.20536   0.42859   0.25367   0.00000  Uiso   1.00
O177   O     0.14092   0.49759   0.17207   0.00000  Uiso   1.00
O178   O     0.24152   0.50707   0.18160   0.00000  Uiso   1.00
C179   C     0.08497   0.64956   0.22862   0.00000  Uiso   1.00
N180   N     0.03838   0.62770   0.21737   0.00000  Uiso   1.00
H181   H     0.31384   0.57813   0.42790   0.00000  Uiso   1.00
C182   C     0.12222   0.54940   0.09761   0.00000  Uiso   1.00
N183   N     0.08273   0.56933   0.11873   0.00000  Uiso   1.00
H184   H     0.23246   0.56861   0.37904   0.00000  Uiso   1.00
C185   C     0.51499   0.59993   0.25086   0.00000  Uiso   1.00
C186   C     0.47551   0.51130   0.48793   0.00000  Uiso   1.00
C187   C     0.49213   0.52187   0.43523   0.00000  Uiso   1.00
C188   C     0.52144   0.52715   0.01867   0.00000  Uiso   1.00
C189   C     0.58476   0.54466   0.49560   0.00000  Uiso   1.00
C190   C     0.59958   0.55989   0.44510   0.00000  Uiso   1.00
C191   C     0.55278   0.55202   0.41639   0.00000  Uiso   1.00
C192   C     0.50673   0.52599   0.07185   0.00000  Uiso   1.00
C193   C     0.61503   0.52976   0.07406   0.00000  Uiso   1.00
C194   C     0.44849   0.50045   0.40306   0.00000  Uiso   1.00
C195   C     0.52196   0.65563   0.25145   0.00000  Uiso   1.00
C196   C     0.46724   0.49996   0.34709   0.00000  Uiso   1.00
C197   C     0.47667   0.34453   0.24287   0.00000  Uiso   1.00
C198   C     0.48525   0.40015   0.24725   0.00000  Uiso   1.00
C199   C     0.53356   0.50699   0.15337   0.00000  Uiso   1.00
C200   C     0.63152   0.54732   0.02404   0.00000  Uiso   1.00
C201   C     0.55231   0.51974   0.09890   0.00000  Uiso   1.00
C202   C     0.38861   0.47228   0.42444   0.00000  Uiso   1.00
C203   C     0.37289   0.46184   0.47606   0.00000  Uiso   1.00
C204   C     0.41582   0.48058   0.00752   0.00000  Uiso   1.00
Cu205  Cu    0.44043   0.49439   0.24435   0.00000  Uiso   1.00
Cu206  Cu    0.55957   0.50561   0.25564   0.00000  Uiso   1.00
H207   H     0.65082   0.52633   0.09411   0.00000  Uiso   1.00
H208   H     0.33698   0.53901   0.28991   0.00000  Uiso   1.00
H209   H     0.66297   0.46090   0.21018   0.00000  Uiso   1.00
H210   H     0.34711   0.56022   0.00683   0.00000  Uiso   1.00
H211   H     0.35492   0.45555   0.40066   0.00000  Uiso   1.00
H212   H     0.40246   0.46910   0.04688   0.00000  Uiso   1.00
H213   H     0.66072   0.43827   0.49172   0.00000  Uiso   1.00
H214   H     0.56525   0.34588   0.26048   0.00000  Uiso   1.00
N215   N     0.64908   0.51407   0.26416   0.00000  Uiso   1.00
N216   N     0.35092   0.48593   0.23584   0.00000  Uiso   1.00
O217   O     0.46131   0.57141   0.24633   0.00000  Uiso   1.00
O218   O     0.56191   0.58089   0.25586   0.00000  Uiso   1.00
O219   O     0.42515   0.49293   0.31839   0.00000  Uiso   1.00
O220   O     0.52575   0.50241   0.32793   0.00000  Uiso   1.00
O221   O     0.43809   0.41911   0.24413   0.00000  Uiso   1.00
O222   O     0.53869   0.42859   0.25367   0.00000  Uiso   1.00
O223   O     0.47425   0.49759   0.17207   0.00000  Uiso   1.00
O224   O     0.57485   0.50707   0.18160   0.00000  Uiso   1.00
C225   C     0.41830   0.64956   0.22862   0.00000  Uiso   1.00
N226   N     0.37171   0.62770   0.21737   0.00000  Uiso   1.00
H227   H     0.64717   0.57813   0.42790   0.00000  Uiso   1.00
C228   C     0.45555   0.54940   0.09761   0.00000  Uiso   1.00
N229   N     0.41607   0.56933   0.11873   0.00000  Uiso   1.00
H230   H     0.56579   0.56861   0.37904   0.00000  Uiso   1.00
C231   C     0.84832   0.59993   0.25086   0.00000  Uiso   1.00
C232   C     0.80884   0.51130   0.48793   0.00000  Uiso   1.00
C233   C     0.82546   0.52187   0.43523   0.00000  Uiso   1.00
C234   C     0.85477   0.52715   0.01867   0.00000  Uiso   1.00
C235   C     0.91809   0.54466   0.49560   0.00000  Uiso   1.00
C236   C     0.93292   0.55989   0.44510   0.00000  Uiso   1.00
C237   C     0.88612   0.55202   0.41639   0.00000  Uiso   1.00
C238   C     0.84006   0.52599   0.07185   0.00000  Uiso   1.00
C239   C     0.94836   0.52976   0.07406   0.00000  Uiso   1.00
C240   C     0.78182   0.50045   0.40306   0.00000  Uiso   1.00
C241   C     0.85529   0.65563   0.25145   0.00000  Uiso   1.00
C242   C     0.80057   0.49996   0.34709   0.00000  Uiso   1.00
C243   C     0.81000   0.34453   0.24287   0.00000  Uiso   1.00
C244   C     0.81858   0.40015   0.24725   0.00000  Uiso   1.00
C245   C     0.86690   0.50699   0.15337   0.00000  Uiso   1.00
C246   C     0.96485   0.54732   0.02404   0.00000  Uiso   1.00
C247   C     0.88564   0.51974   0.09890   0.00000  Uiso   1.00
C248   C     0.72194   0.47228   0.42444   0.00000  Uiso   1.00
C249   C     0.70623   0.46184   0.47606   0.00000  Uiso   1.00
C250   C     0.74915   0.48058   0.00752   0.00000  Uiso   1.00
Cu251  Cu    0.77377   0.49439   0.24435   0.00000  Uiso   1.00
Cu252  Cu    0.89290   0.50561   0.25564   0.00000  Uiso   1.00
H253   H     0.98415   0.52633   0.09411   0.00000  Uiso   1.00
H254   H     0.67031   0.53901   0.28991   0.00000  Uiso   1.00
H255   H     0.99630   0.46090   0.21018   0.00000  Uiso   1.00
H256   H     0.68044   0.56022   0.00683   0.00000  Uiso   1.00
H257   H     0.68826   0.45555   0.40066   0.00000  Uiso   1.00
H258   H     0.73579   0.46910   0.04688   0.00000  Uiso   1.00
H259   H     0.99406   0.43827   0.49172   0.00000  Uiso   1.00
H260   H     0.89858   0.34588   0.26048   0.00000  Uiso   1.00
N261   N     0.98241   0.51407   0.26416   0.00000  Uiso   1.00
N262   N     0.68426   0.48593   0.23584   0.00000  Uiso   1.00
O263   O     0.79464   0.57141   0.24633   0.00000  Uiso   1.00
O264   O     0.89524   0.58089   0.25586   0.00000  Uiso   1.00
O265   O     0.75848   0.49293   0.31839   0.00000  Uiso   1.00
O266   O     0.85908   0.50241   0.32793   0.00000  Uiso   1.00
O267   O     0.77142   0.41911   0.24413   0.00000  Uiso   1.00
O268   O     0.87203   0.42859   0.25367   0.00000  Uiso   1.00
O269   O     0.80758   0.49759   0.17207   0.00000  Uiso   1.00
O270   O     0.90819   0.50707   0.18160   0.00000  Uiso   1.00
C271   C     0.75163   0.64956   0.22862   0.00000  Uiso   1.00
N272   N     0.70505   0.62770   0.21737   0.00000  Uiso   1.00
H273   H     0.98050   0.57813   0.42790   0.00000  Uiso   1.00
C274   C     0.78889   0.54940   0.09761   0.00000  Uiso   1.00
N275   N     0.74940   0.56933   0.11873   0.00000  Uiso   1.00
H276   H     0.89913   0.56861   0.37904   0.00000  Uiso   1.00
C277   C     0.18166   0.93326   0.25086   0.00000  Uiso   1.00
C278   C     0.14218   0.84464   0.48793   0.00000  Uiso   1.00
C279   C     0.15879   0.85520   0.43523   0.00000  Uiso   1.00
C280   C     0.18810   0.86048   0.01867   0.00000  Uiso   1.00
C281   C     0.25142   0.87799   0.49560   0.00000  Uiso   1.00
C282   C     0.26625   0.89323   0.44510   0.00000  Uiso   1.00
C283   C     0.21945   0.88535   0.41639   0.00000  Uiso   1.00
C284   C     0.17339   0.85932   0.07185   0.00000  Uiso   1.00
C285   C     0.28170   0.86309   0.07406   0.00000  Uiso   1.00
C286   C     0.11516   0.83379   0.40306   0.00000  Uiso   1.00
C287   C     0.18862   0.98897   0.25145   0.00000  Uiso   1.00
C288   C     0.13391   0.83329   0.34709   0.00000  Uiso   1.00
C289   C     0.14333   0.67786   0.24287   0.00000  Uiso   1.00
C290   C     0.15191   0.73348   0.24725   0.00000  Uiso   1.00
C291   C     0.20023   0.84032   0.15337   0.00000  Uiso   1.00
C292   C     0.29819   0.88065   0.02404   0.00000  Uiso   1.00
C293   C     0.21898   0.85308   0.09890   0.00000  Uiso   1.00
C294   C     0.05527   0.80561   0.42444   0.00000  Uiso   1.00
C295   C     0.03956   0.79517   0.47606   0.00000  Uiso   1.00
C296   C     0.08249   0.81391   0.00752   0.00000  Uiso   1.00
Cu297  Cu    0.10710   0.82772   0.24435   0.00000  Uiso   1.00
Cu298  Cu    0.22623   0.83895   0.25564   0.00000  Uiso   1.00
H299   H     0.31748   0.85966   0.09411   0.00000  Uiso   1.00
H300   H     0.00365   0.87235   0.28991   0.00000  Uiso   1.00
H301   H     0.32964   0.79424   0.21018   0.00000  Uiso   1.00
H302   H     0.01377   0.89355   0.00683   0.00000  Uiso   1.00
H303   H     0.02159   0.78888   0.40066   0.00000  Uiso   1.00
H304   H     0.06913   0.80244   0.04688   0.00000  Uiso   1.00
H305   H     0.32739   0.77161   0.49172   0.00000  Uiso   1.00
H306   H     0.23191   0.67921   0.26048   0.00000  Uiso   1.00
N307   N     0.31574   0.84741   0.26416   0.00000  Uiso   1.00
N308   N     0.01759   0.81926   0.23584   0.00000  Uiso   1.00
O309   O     0.12797   0.90474   0.24633   0.00000  Uiso   1.00
O310   O     0.22858   0.91422   0.25586   0.00000  Uiso   1.00
O311   O     0.09181   0.82627   0.31839   0.00000  Uiso   1.00
O312   O     0.19242   0.83575   0.32793   0.00000  Uiso   1.00
O313   O     0.10476   0.75245   0.24413   0.00000  Uiso   1.00
O314   O     0.20536   0.76193   0.25367   0.00000  Uiso   1.00
O315   O     0.14092   0.83092   0.17207   0.00000  Uiso   1.00
O316   O     0.24152   0.84040   0.18160   0.00000  Uiso   1.00
C317   C     0.08497   0.98290   0.22862   0.00000  Uiso   1.00
N318   N     0.03838   0.96103   0.21737   0.00000  Uiso   1.00
H319   H     0.31384   0.91147   0.42790   0.00000  Uiso   1.00
C320   C     0.12222   0.88273   0.09761   0.00000  Uiso   1.00
N321   N     0.08273   0.90266   0.11873   0.00000  Uiso   1.00
H322   H     0.23246   0.90194   0.37904   0.00000  Uiso   1.00
C323   C     0.51499   0.93326   0.25086   0.00000  Uiso   1.00
C324   C     0.47551   0.84464   0.48793   0.00000  Uiso   1.00
C325   C     0.49213   0.85520   0.43523   0.00000  Uiso   1.00
C326   C     0.52144   0.86048   0.01867   0.00000  Uiso   1.00
C327   C     0.58476   0.87799   0.49560   0.00000  Uiso   1.00
C328   C     0.59958   0.89323   0.44510   0.00000  Uiso   1.00
C329   C     0.55278   0.88535   0.41639   0.00000  Uiso   1.00
C330   C     0.50673   0.85932   0.07185   0.00000  Uiso   1.00
C331   C     0.61503   0.86309   0.07406   0.00000  Uiso   1.00
C332   C     0.44849   0.83379   0.40306   0.00000  Uiso   1.00
C333   C     0.52196   0.98897   0.25145   0.00000  Uiso   1.00
C334   C     0.46724   0.83329   0.34709   0.00000  Uiso   1.00
C335   C     0.47667   0.67786   0.24287   0.00000  Uiso   1.00
C336   C     0.48525   0.73348   0.24725   0.00000  Uiso   1.00
C337   C     0.53356   0.84032   0.15337   0.00000  Uiso   1.00
C338   C     0.63152   0.88065   0.02404   0.00000  Uiso   1.00
C339   C     0.55231   0.85308   0.09890   0.00000  Uiso   1.00
C340   C     0.38861   0.80561   0.42444   0.00000  Uiso   1.00
C341   C     0.37289   0.79517   0.47606   0.00000  Uiso   1.00
C342   C     0.41582   0.81391   0.00752   0.00000  Uiso   1.00
Cu343  Cu    0.44043   0.82772   0.24435   0.00000  Uiso   1.00
Cu344  Cu    0.55957   0.83895   0.25564   0.00000  Uiso   1.00
H345   H     0.65082   0.85966   0.09411   0.00000  Uiso   1.00
H346   H     0.33698   0.87235   0.28991   0.00000  Uiso   1.00
H347   H     0.66297   0.79424   0.21018   0.00000  Uiso   1.00
H348   H     0.34711   0.89355   0.00683   0.00000  Uiso   1.00
H349   H     0.35492   0.78888   0.40066   0.00000  Uiso   1.00
H350   H     0.40246   0.80244   0.04688   0.00000  Uiso   1.00
H351   H     0.66072   0.77161   0.49172   0.00000  Uiso   1.00
H352   H     0.56525   0.67921   0.26048   0.00000  Uiso   1.00
N353   N     0.64908   0.84741   0.26416   0.00000  Uiso   1.00
N354   N     0.35092   0.81926   0.23584   0.00000  Uiso   1.00
O355   O     0.46131   0.90474   0.24633   0.00000  Uiso   1.00
O356   O     0.56191   0.91422   0.25586   0.00000  Uiso   1.00
O357   O     0.42515   0.82627   0.31839   0.00000  Uiso   1.00
O358   O     0.52575   0.83575   0.32793   0.00000  Uiso   1.00
O359   O     0.43809   0.75245   0.24413   0.00000  Uiso   1.00
O360   O     0.53869   0.76193   0.25367   0.00000  Uiso   1.00
O361   O     0.47425   0.83092   0.17207   0.00000  Uiso   1.00
O362   O     0.57485   0.84040   0.18160   0.00000  Uiso   1.00
C363   C     0.41830   0.98290   0.22862   0.00000  Uiso   1.00
N364   N     0.37171   0.96103   0.21737   0.00000  Uiso   1.00
H365   H     0.64717   0.91147   0.42790   0.00000  Uiso   1.00
C366   C     0.45555   0.88273   0.09761   0.00000  Uiso   1.00
N367   N     0.41607   0.90266   0.11873   0.00000  Uiso   1.00
H368   H     0.56579   0.90194   0.37904   0.00000  Uiso   1.00
C369   C     0.84832   0.93326   0.25086   0.00000  Uiso   1.00
C370   C     0.80884   0.84464   0.48793   0.00000  Uiso   1.00
C371   C     0.82546   0.85520   0.43523   0.00000  Uiso   1.00
C372   C     0.85477   0.86048   0.01867   0.00000  Uiso   1.00
C373   C     0.91809   0.87799   0.49560   0.00000  Uiso   1.00
C374   C     0.93292   0.89323   0.44510   0.00000  Uiso   1.00
C375   C     0.88612   0.88535   0.41639   0.00000  Uiso   1.00
C376   C     0.84006   0.85932   0.07185   0.00000  Uiso   1.00
C377   C     0.94836   0.86309   0.07406   0.00000  Uiso   1.00
C378   C     0.78182   0.83379   0.40306   0.00000  Uiso   1.00
C379   C     0.85529   0.98897   0.25145   0.00000  Uiso   1.00
C380   C     0.80057   0.83329   0.34709   0.00000  Uiso   1.00
C381   C     0.81000   0.67786   0.24287   0.00000  Uiso   1.00
C382   C     0.81858   0.73348   0.24725   0.00000  Uiso   1.00
C383   C     0.86690   0.84032   0.15337   0.00000  Uiso   1.00
C384   C     0.96485   0.88065   0.02404   0.00000  Uiso   1.00
C385   C     0.88564   0.85308   0.09890   0.00000  Uiso   1.00
C386   C     0.72194   0.80561   0.42444   0.00000  Uiso   1.00
C387   C     0.70623   0.79517   0.47606   0.00000  Uiso   1.00
C388   C     0.74915   0.81391   0.00752   0.00000  Uiso   1.00
Cu389  Cu    0.77377   0.82772   0.24435   0.00000  Uiso   1.00
Cu390  Cu    0.89290   0.83895   0.25564   0.00000  Uiso   1.00
H391   H     0.98415   0.85966   0.09411   0.00000  Uiso   1.00
H392   H     0.67031   0.87235   0.28991   0.00000  Uiso   1.00
H393   H     0.99630   0.79424   0.21018   0.00000  Uiso   1.00
H394   H     0.68044   0.89355   0.00683   0.00000  Uiso   1.00
H395   H     0.68826   0.78888   0.40066   0.00000  Uiso   1.00
H396   H     0.73579   0.80244   0.04688   0.00000  Uiso   1.00
H397   H     0.99406   0.77161   0.49172   0.00000  Uiso   1.00
H398   H     0.89858   0.67921   0.26048   0.00000  Uiso   1.00
N399   N     0.98241   0.84741   0.26416   0.00000  Uiso   1.00
N400   N     0.68426   0.81926   0.23584   0.00000  Uiso   1.00
O401   O     0.79464   0.90474   0.24633   0.00000  Uiso   1.00
O402   O     0.89524   0.91422   0.25586   0.00000  Uiso   1.00
O403   O     0.75848   0.82627   0.31839   0.00000  Uiso   1.00
O404   O     0.85908   0.83575   0.32793   0.00000  Uiso   1.00
O405   O     0.77142   0.75245   0.24413   0.00000  Uiso   1.00
O406   O     0.87203   0.76193   0.25367   0.00000  Uiso   1.00
O407   O     0.80758   0.83092   0.17207   0.00000  Uiso   1.00
O408   O     0.90819   0.84040   0.18160   0.00000  Uiso   1.00
C409   C     0.75163   0.98290   0.22862   0.00000  Uiso   1.00
N410   N     0.70505   0.96103   0.21737   0.00000  Uiso   1.00
H411   H     0.98050   0.91147   0.42790   0.00000  Uiso   1.00
C412   C     0.78889   0.88273   0.09761   0.00000  Uiso   1.00
N413   N     0.74940   0.90266   0.11873   0.00000  Uiso   1.00
H414   H     0.89913   0.90194   0.37904   0.00000  Uiso   1.00
C415   C     0.18166   0.26659   0.75086   0.00000  Uiso   1.00
C416   C     0.14218   0.17797   0.98793   0.00000  Uiso   1.00
C417   C     0.15879   0.18853   0.93523   0.00000  Uiso   1.00
C418   C     0.18810   0.19381   0.51867   0.00000  Uiso   1.00
C419   C     0.25142   0.21133   0.99560   0.00000  Uiso   1.00
C420   C     0.26625   0.22656   0.94510   0.00000  Uiso   1.00
C421   C     0.21945   0.21868   0.91639   0.00000  Uiso   1.00
C422   C     0.17339   0.19266   0.57185   0.00000  Uiso   1.00
C423   C     0.28170   0.19643   0.57406   0.00000  Uiso   1.00
C424   C     0.11516   0.16712   0.90306   0.00000  Uiso   1.00
C425   C     0.18862   0.32230   0.75145   0.00000  Uiso   1.00
C426   C     0.13391   0.16663   0.84709   0.00000  Uiso   1.00
C427   C     0.14333   0.01120   0.74287   0.00000  Uiso   1.00
C428   C     0.15191   0.06681   0.74725   0.00000  Uiso   1.00
C429   C     0.20023   0.17366   0.65337   0.00000  Uiso   1.00
C430   C     0.29819   0.21398   0.52404   0.00000  Uiso   1.00
C431   C     0.21898   0.18641   0.59890   0.00000  Uiso   1.00
C432   C     0.05527   0.13894   0.92444   0.00000  Uiso   1.00
C433   C     0.03956   0.12850   0.97606   0.00000  Uiso   1.00
C434   C     0.08249   0.14724   0.50752   0.00000  Uiso   1.00
Cu435  Cu    0.10710   0.16105   0.74435   0.00000  Uiso   1.00
Cu436  Cu    0.22623   0.17228   0.75564   0.00000  Uiso   1.00
H437   H     0.31748   0.19300   0.59411   0.00000  Uiso   1.00
H438   H     0.00365   0.20568   0.78991   0.00000  Uiso   1.00
H439   H     0.32964   0.12757   0.71018   0.00000  Uiso   1.00
H440   H     0.01377   0.22689   0.50683   0.00000  Uiso   1.00
H441   H     0.02159   0.12221   0.90066   0.00000  Uiso   1.00
H442   H     0.06913   0.13577   0.54688   0.00000  Uiso   1.00
H443   H     0.32739   0.10494   0.99172   0.00000  Uiso   1.00
H444   H     0.23191   0.01255   0.76048   0.00000  Uiso   1.00
N445   N     0.31574   0.18074   0.76416   0.00000  Uiso   1.00
N446   N     0.01759   0.15259   0.73584   0.00000  Uiso   1.00
O447   O     0.12797   0.23807   0.74633   0.00000  Uiso   1.00
O448   O     0.22858   0.24755   0.75586   0.00000  Uiso   1.00
O449   O     0.09181   0.15960   0.81839   0.00000  Uiso   1.00
O450   O     0.19242   0.16908   0.82793   0.00000  Uiso   1.00
O451   O     0.10476   0.08578   0.74413   0.00000  Uiso   1.00
O452   O     0.20536   0.09526   0.75367   0.00000  Uiso   1.00
O453   O     0.14092   0.16425   0.67207   0.00000  Uiso   1.00
O454   O     0.24152   0.17373   0.68160   0.00000  Uiso   1.00
C455   C     0.08497   0.31623   0.72862   0.00000  Uiso   1.00
N456   N     0.03838   0.29436   0.71737   0.00000  Uiso   1.00
H457   H     0.31384   0.24480   0.92790   0.00000  Uiso   1.00
C458   C     0.12222   0.21607   0.59761   0.00000  Uiso   1.00
N459   N     0.08273   0.23599   0.61873   0.00000  Uiso   1.00
H460   H     0.23246   0.23527   0.87904   0.00000  Uiso   1.00
C461   C     0.51499   0.26659   0.75086   0.00000  Uiso   1.00
C462   C     0.47551   0.17797   0.98793   0.00000  Uiso   1.00
C463   C     0.49213   0.18853   0.93523   0.00000  Uiso   1.00
C464   C     0.52144   0.19381   0.51867   0.00000  Uiso   1.00
C465   C     0.58476   0.21133   0.99560   0.00000  Uiso   1.00
C466   C     0.59958   0.22656   0.94510   0.00000  Uiso   1.00
C467   C     0.55278   0.21868   0.91639   0.00000  Uiso   1.00
C468   C     0.50673   0.19266   0.57185   0.00000  Uiso   1.00
C469   C     0.61503   0.19643   0.57406   0.00000  Uiso   1.00
C470   C     0.44849   0.16712   0.90306   0.00000  Uiso   1.00
C471   C     0.52196   0.32230   0.75145   0.00000  Uiso   1.00
C472   C     0.46724   0.16663   0.84709   0.00000  Uiso   1.00
C473   C     0.47667   0.01120   0.74287   0.00000  Uiso   1.00
C474   C     0.48525   0.06681   0.74725   0.00000  Uiso   1.00
C475   C     0.53356   0.17366   0.65337   0.00000  Uiso   1.00
C476   C     0.63152   0.21398   0.52404   0.00000  Uiso   1.00
C477   C     0.55231   0.18641   0.59890   0.00000  Uiso   1.00
C478   C     0.38861   0.13894   0.92444   0.00000  Uiso   1.00
C479   C     0.37289   0.12850   0.97606   0.00000  Uiso   1.00
C480   C     0.41582   0.14724   0.50752   0.00000  Uiso   1.00
Cu481  Cu    0.44043   0.16105   0.74435   0.00000  Uiso   1.00
Cu482  Cu    0.55957   0.17228   0.75564   0.00000  Uiso   1.00
H483   H     0.65082   0.19300   0.59411   0.00000  Uiso   1.00
H484   H     0.33698   0.20568   0.78991   0.00000  Uiso   1.00
H485   H     0.66297   0.12757   0.71018   0.00000  Uiso   1.00
H486   H     0.34711   0.22689   0.50683   0.00000  Uiso   1.00
H487   H     0.35492   0.12221   0.90066   0.00000  Uiso   1.00
H488   H     0.40246   0.13577   0.54688   0.00000  Uiso   1.00
H489   H     0.66072   0.10494   0.99172   0.00000  Uiso   1.00
H490   H     0.56525   0.01255   0.76048   0.00000  Uiso   1.00
N491   N     0.64908   0.18074   0.76416   0.00000  Uiso   1.00
N492   N     0.35092   0.15259   0.73584   0.00000  Uiso   1.00
O493   O     0.46131   0.23807   0.74633   0.00000  Uiso   1.00
O494   O     0.56191   0.24755   0.75586   0.00000  Uiso   1.00
O495   O     0.42515   0.15960   0.81839   0.00000  Uiso   1.00
O496   O     0.52575   0.16908   0.82793   0.00000  Uiso   1.00
O497   O     0.43809   0.08578   0.74413   0.00000  Uiso   1.00
O498   O     0.53869   0.09526   0.75367   0.00000  Uiso   1.00
O499   O     0.47425   0.16425   0.67207   0.00000  Uiso   1.00
O500   O     0.57485   0.17373   0.68160   0.00000  Uiso   1.00
C501   C     0.41830   0.31623   0.72862   0.00000  Uiso   1.00
N502   N     0.37171   0.29436   0.71737   0.00000  Uiso   1.00
H503   H     0.64717   0.24480   0.92790   0.00000  Uiso   1.00
C504   C     0.45555   0.21607   0.59761   0.00000  Uiso   1.00
N505   N     0.41607   0.23599   0.61873   0.00000  Uiso   1.00
H506   H     0.56579   0.23527   0.87904   0.00000  Uiso   1.00
C507   C     0.84832   0.26659   0.75086   0.00000  Uiso   1.00
C508   C     0.80884   0.17797   0.98793   0.00000  Uiso   1.00
C509   C     0.82546   0.18853   0.93523   0.00000  Uiso   1.00
C510   C     0.85477   0.19381   0.51867   0.00000  Uiso   1.00
C511   C     0.91809   0.21133   0.99560   0.00000  Uiso   1.00
C512   C     0.93292   0.22656   0.94510   0.00000  Uiso   1.00
C513   C     0.88612   0.21868   0.91639   0.00000  Uiso   1.00
C514   C     0.84006   0.19266   0.57185   0.00000  Uiso   1.00
C515   C     0.94836   0.19643   0.57406   0.00000  Uiso   1.00
C516   C     0.78182   0.16712   0.90306   0.00000  Uiso   1.00
C517   C     0.85529   0.32230   0.75145   0.00000  Uiso   1.00
C518   C     0.80057   0.16663   0.84709   0.00000  Uiso   1.00
C519   C     0.81000   0.01120   0.74287   0.00000  Uiso   1.00
C520   C     0.81858   0.06681   0.74725   0.00000  Uiso   1.00
C521   C     0.86690   0.17366   0.65337   0.00000  Uiso   1.00
C522   C     0.96485   0.21398   0.52404   0.00000  Uiso   1.00
C523   C     0.88564   0.18641   0.59890   0.00000  Uiso   1.00
C524   C     0.72194   0.13894   0.92444   0.00000  Uiso   1.00
C525   C     0.70623   0.12850   0.97606   0.00000  Uiso   1.00
C526   C     0.74915   0.14724   0.50752   0.00000  Uiso   1.00
Cu527  Cu    0.77377   0.16105   0.74435   0.00000  Uiso   1.00
Cu528  Cu    0.89290   0.17228   0.75564   0.00000  Uiso   1.00
H529   H     0.98415   0.19300   0.59411   0.00000  Uiso   1.00
H530   H     0.67031   0.20568   0.78991   0.00000  Uiso   1.00
H531   H     0.99630   0.12757   0.71018   0.00000  Uiso   1.00
H532   H     0.68044   0.22689   0.50683   0.00000  Uiso   1.00
H533   H     0.68826   0.12221   0.90066   0.00000  Uiso   1.00
H534   H     0.73579   0.13577   0.54688   0.00000  Uiso   1.00
H535   H     0.99406   0.10494   0.99172   0.00000  Uiso   1.00
H536   H     0.89858   0.01255   0.76048   0.00000  Uiso   1.00
N537   N     0.98241   0.18074   0.76416   0.00000  Uiso   1.00
N538   N     0.68426   0.15259   0.73584   0.00000  Uiso   1.00
O539   O     0.79464   0.23807   0.74633   0.00000  Uiso   1.00
O540   O     0.89524   0.24755   0.75586   0.00000  Uiso   1.00
O541   O     0.75848   0.15960   0.81839   0.00000  Uiso   1.00
O542   O     0.85908   0.16908   0.82793   0.00000  Uiso   1.00
O543   O     0.77142   0.08578   0.74413   0.00000  Uiso   1.00
O544   O     0.87203   0.09526   0.75367   0.00000  Uiso   1.00
O545   O     0.80758   0.16425   0.67207   0.00000  Uiso   1.00
O546   O     0.90819   0.17373   0.68160   0.00000  Uiso   1.00
C547   C     0.75163   0.31623   0.72862   0.00000  Uiso   1.00
N548   N     0.70505   0.29436   0.71737   0.00000  Uiso   1.00
H549   H     0.98050   0.24480   0.92790   0.00000  Uiso   1.00
C550   C     0.78889   0.21607   0.59761   0.00000  Uiso   1.00
N551   N     0.74940   0.23599   0.61873   0.00000  Uiso   1.00
H552   H     0.89913   0.23527   0.87904   0.00000  Uiso   1.00
C553   C     0.18166   0.59993   0.75086   0.00000  Uiso   1.00
C554   C     0.14218   0.51130   0.98793   0.00000  Uiso   1.00
C555   C     0.15879   0.52187   0.93523   0.00000  Uiso   1.00
C556   C     0.18810   0.52715   0.51867   0.00000  Uiso   1.00
C557   C     0.25142   0.54466   0.99560   0.00000  Uiso   1.00
C558   C     0.26625   0.55989   0.94510   0.00000  Uiso   1.00
C559   C     0.21945   0.55202   0.91639   0.00000  Uiso   1.00
C560   C     0.17339   0.52599   0.57185   0.00000  Uiso   1.00
C561   C     0.28170   0.52976   0.57406   0.00000  Uiso   1.00
C562   C     0.11516   0.50045   0.90306   0.00000  Uiso   1.00
C563   C     0.18862   0.65563   0.75145   0.00000  Uiso   1.00
C564   C     0.13391   0.49996   0.84709   0.00000  Uiso   1.00
C565   C     0.14333   0.34453   0.74287   0.00000  Uiso   1.00
C566   C     0.15191   0.40015   0.74725   0.00000  Uiso   1.00
C567   C     0.20023   0.50699   0.65337   0.00000  Uiso   1.00
C568   C     0.29819   0.54732   0.52404   0.00000  Uiso   1.00
C569   C     0.21898   0.51974   0.59890   0.00000  Uiso   1.00
C570   C     0.05527   0.47228   0.92444   0.00000  Uiso   1.00
C571   C     0.03956   0.46184   0.97606   0.00000  Uiso   1.00
C572   C     0.08249   0.48058   0.50752   0.00000  Uiso   1.00
Cu573  Cu    0.10710   0.49439   0.74435   0.00000  Uiso   1.00
Cu574  Cu    0.22623   0.50561   0.75564   0.00000  Uiso   1.00
H575   H     0.31748   0.52633   0.59411   0.00000  Uiso   1.00
H576   H     0.00365   0.53901   0.78991   0.00000  Uiso   1.00
H577   H     0.32964   0.46090   0.71018   0.00000  Uiso   1.00
H578   H     0.01377   0.56022   0.50683   0.00000  Uiso   1.00
H579   H     0.02159   0.45555   0.90066   0.00000  Uiso   1.00
H580   H     0.06913   0.46910   0.54688   0.00000  Uiso   1.00
H581   H     0.32739   0.43827   0.99172   0.00000  Uiso   1.00
H582   H     0.23191   0.34588   0.76048   0.00000  Uiso   1.00
N583   N     0.31574   0.51407   0.76416   0.00000  Uiso   1.00
N584   N     0.01759   0.48593   0.73584   0.00000  Uiso   1.00
O585   O     0.12797   0.57141   0.74633   0.00000  Uiso   1.00
O586   O     0.22858   0.58089   0.75586   0.00000  Uiso   1.00
O587   O     0.09181   0.49293   0.81839   0.00000  Uiso   1.00
O588   O     0.19242   0.50241   0.82793   0.00000  Uiso   1.00
O589   O     0.10476   0.41911   0.74413   0.00000  Uiso   1.00
O590   O     0.20536   0.42859   0.75367   0.00000  Uiso   1.00
O591   O     0.14092   0.49759   0.67207   0.00000  Uiso   1.00
O592   O     0.24152   0.50707   0.68160   0.00000  Uiso   1.00
C593   C     0.08497   0.64956   0.72862   0.00000  Uiso   1.00
N594   N     0.03838   0.62770   0.71737   0.00000  Uiso   1.00
H595   H     0.31384   0.57813   0.92790   0.00000  Uiso   1.00
C596   C     0.12222   0.54940   0.59761   0.00000  Uiso   1.00
N597   N     0.08273   0.56933   0.61873   0.00000  Uiso   1.00
H598   H     0.23246   0.56861   0.87904   0.00000  Uiso   1.00
C599   C     0.51499   0.59993   0.75086   0.00000  Uiso   1.00
C600   C     0.47551   0.51130   0.98793   0.00000  Uiso   1.00
C601   C     0.49213   0.52187   0.93523   0.00000  Uiso   1.00
C602   C     0.52144   0.52715   0.51867   0.00000  Uiso   1.00
C603   C     0.58476   0.54466   0.99560   0.00000  Uiso   1.00
C604   C     0.59958   0.55989   0.94510   0.00000  Uiso   1.00
C605   C     0.55278   0.55202   0.91639   0.00000  Uiso   1.00
C606   C     0.50673   0.52599   0.57185   0.00000  Uiso   1.00
C607   C     0.61503   0.52976   0.57406   0.00000  Uiso   1.00
C608   C     0.44849   0.50045   0.90306   0.00000  Uiso   1.00
C609   C     0.52196   0.65563   0.75145   0.00000  Uiso   1.00
C610   C     0.46724   0.49996   0.84709   0.00000  Uiso   1.00
C611   C     0.47667   0.34453   0.74287   0.00000  Uiso   1.00
C612   C     0.48525   0.40015   0.74725   0.00000  Uiso   1.00
C613   C     0.53356   0.50699   0.65337   0.00000  Uiso   1.00
C614   C     0.63152   0.54732   0.52404   0.00000  Uiso   1.00
C615   C     0.55231   0.51974   0.59890   0.00000  Uiso   1.00
C616   C     0.38861   0.47228   0.92444   0.00000  Uiso   1.00
C617   C     0.37289   0.46184   0.97606   0.00000  Uiso   1.00
C618   C     0.41582   0.48058   0.50752   0.00000  Uiso   1.00
Cu619  Cu    0.44043   0.49439   0.74435   0.00000  Uiso   1.00
Cu620  Cu    0.55957   0.50561   0.75564   0.00000  Uiso   1.00
H621   H     0.65082   0.52633   0.59411   0.00000  Uiso   1.00
H622   H     0.33698   0.53901   0.78991   0.00000  Uiso   1.00
H623   H     0.66297   0.46090   0.71018   0.00000  Uiso   1.00
H624   H     0.34711   0.56022   0.50683   0.00000  Uiso   1.00
H625   H     0.35492   0.45555   0.90066   0.00000  Uiso   1.00
H626   H     0.40246   0.46910   0.54688   0.00000  Uiso   1.00
H627   H     0.66072   0.43827   0.99172   0.00000  Uiso   1.00
H628   H     0.56525   0.34588   0.76048   0.00000  Uiso   1.00
N629   N     0.64908   0.51407   0.76416   0.00000  Uiso   1.00
N630   N     0.35092   0.48593   0.73584   0.00000  Uiso   1.00
O631   O     0.46131   0.57141   0.74633   0.00000  Uiso   1.00
O632   O     0.56191   0.58089   0.75586   0.00000  Uiso   1.00
O633   O     0.42515   0.49293   0.81839   0.00000  Uiso   1.00
O634   O     0.52575   0.50241   0.82793   0.00000  Uiso   1.00
O635   O     0.43809   0.41911   0.74413   0.00000  Uiso   1.00
O636   O     0.53869   0.42859   0.75367   0.00000  Uiso   1.00
O637   O     0.47425   0.49759   0.67207   0.00000  Uiso   1.00
O638   O     0.57485   0.50707   0.68160   0.00000  Uiso   1.00
C639   C     0.41830   0.64956   0.72862   0.00000  Uiso   1.00
N640   N     0.37171   0.62770   0.71737   0.00000  Uiso   1.00
H641   H     0.64717   0.57813   0.92790   0.00000  Uiso   1.00
C642   C     0.45555   0.54940   0.59761   0.00000  Uiso   1.00
N643   N     0.41607   0.56933   0.61873   0.00000  Uiso   1.00
H644   H     0.56579   0.56861   0.87904   0.00000  Uiso   1.00
C645   C     0.84832   0.59993   0.75086   0.00000  Uiso   1.00
C646   C     0.80884   0.51130   0.98793   0.00000  Uiso   1.00
C647   C     0.82546   0.52187   0.93523   0.00000  Uiso   1.00
C648   C     0.85477   0.52715   0.51867   0.00000  Uiso   1.00
C649   C     0.91809   0.54466   0.99560   0.00000  Uiso   1.00
C650   C     0.93292   0.55989   0.94510   0.00000  Uiso   1.00
C651   C     0.88612   0.55202   0.91639   0.00000  Uiso   1.00
C652   C     0.84006   0.52599   0.57185   0.00000  Uiso   1.00
C653   C     0.94836   0.52976   0.57406   0.00000  Uiso   1.00
C654   C     0.78182   0.50045   0.90306   0.00000  Uiso   1.00
C655   C     0.85529   0.65563   0.75145   0.00000  Uiso   1.00
C656   C     0.80057   0.49996   0.84709   0.00000  Uiso   1.00
C657   C     0.81000   0.34453   0.74287   0.00000  Uiso   1.00
C658   C     0.81858   0.40015   0.74725   0.00000  Uiso   1.00
C659   C     0.86690   0.50699   0.65337   0.00000  Uiso   1.00
C660   C     0.96485   0.54732   0.52404   0.00000  Uiso   1.00
C661   C     0.88564   0.51974   0.59890   0.00000  Uiso   1.00
C662   C     0.72194   0.47228   0.92444   0.00000  Uiso   1.00
C663   C     0.70623   0.46184   0.97606   0.00000  Uiso   1.00
C664   C     0.74915   0.48058   0.50752   0.00000  Uiso   1.00
Cu665  Cu    0.77377   0.49439   0.74435   0.00000  Uiso   1.00
Cu666  Cu    0.89290   0.50561   0.75564   0.00000  Uiso   1.00
H667   H     0.98415   0.52633   0.59411   0.00000  Uiso   1.00
H668   H     0.67031   0.53901   0.78991   0.00000  Uiso   1.00
H669   H     0.99630   0.46090   0.71018   0.00000  Uiso   1.00
H670   H     0.68044   0.56022   0.50683   0.00000  Uiso   1.00
H671   H     0.68826   0.45555   0.90066   0.00000  Uiso   1.00
H672   H     0.73579   0.46910   0.54688   0.00000  Uiso   1.00
H673   H     0.99406   0.43827   0.99172   0.00000  Uiso   1.00
H674   H     0.89858   0.34588   0.76048   0.00000  Uiso   1.00
N675   N     0.98241   0.51407   0.76416   0.00000  Uiso   1.00
N676   N     0.68426   0.48593   0.73584   0.00000  Uiso   1.00
O677   O     0.79464   0.57141   0.74633   0.00000  Uiso   1.00
O678   O     0.89524   0.58089   0.75586   0.00000  Uiso   1.00
O679   O     0.75848   0.49293   0.81839   0.00000  Uiso   1.00
O680   O     0.85908   0.50241   0.82793   0.00000  Uiso   1.00
O681   O     0.77142   0.41911   0.74413   0.00000  Uiso   1.00
O682   O     0.87203   0.42859   0.75367   0.00000  Uiso   1.00
O683   O     0.80758   0.49759   0.67207   0.00000  Uiso   1.00
O684   O     0.90819   0.50707   0.68160   0.00000  Uiso   1.00
C685   C     0.75163   0.64956   0.72862   0.00000  Uiso   1.00
N686   N     0.70505   0.62770   0.71737   0.00000  Uiso   1.00
H687   H     0.98050   0.57813   0.92790   0.00000  Uiso   1.00
C688   C     0.78889   0.54940   0.59761   0.00000  Uiso   1.00
N689   N     0.74940   0.56933   0.61873   0.00000  Uiso   1.00
H690   H     0.89913   0.56861   0.87904   0.00000  Uiso   1.00
C691   C     0.18166   0.93326   0.75086   0.00000  Uiso   1.00
C692   C     0.14218   0.84464   0.98793   0.00000  Uiso   1.00
C693   C     0.15879   0.85520   0.93523   0.00000  Uiso   1.00
C694   C     0.18810   0.86048   0.51867   0.00000  Uiso   1.00
C695   C     0.25142   0.87799   0.99560   0.00000  Uiso   1.00
C696   C     0.26625   0.89323   0.94510   0.00000  Uiso   1.00
C697   C     0.21945   0.88535   0.91639   0.00000  Uiso   1.00
C698   C     0.17339   0.85932   0.57185   0.00000  Uiso   1.00
C699   C     0.28170   0.86309   0.57406   0.00000  Uiso   1.00
C700   C     0.11516   0.83379   0.90306   0.00000  Uiso   1.00
C701   C     0.18862   0.98897   0.75145   0.00000  Uiso   1.00
C702   C     0.13391   0.83329   0.84709   0.00000  Uiso   1.00
C703   C     0.14333   0.67786   0.74287   0.00000  Uiso   1.00
C704   C     0.15191   0.73348   0.74725   0.00000  Uiso   1.00
C705   C     0.20023   0.84032   0.65337   0.00000  Uiso   1.00
C706   C     0.29819   0.88065   0.52404   0.00000  Uiso   1.00
C707   C     0.21898   0.85308   0.59890   0.00000  Uiso   1.00
C708   C     0.05527   0.80561   0.92444   0.00000  Uiso   1.00
C709   C     0.03956   0.79517   0.97606   0.00000  Uiso   1.00
C710   C     0.08249   0.81391   0.50752   0.00000  Uiso   1.00
Cu711  Cu    0.10710   0.82772   0.74435   0.00000  Uiso   1.00
Cu712  Cu    0.22623   0.83895   0.75564   0.00000  Uiso   1.00
H713   H     0.31748   0.85966   0.59411   0.00000  Uiso   1.00
H714   H     0.00365   0.87235   0.78991   0.00000  Uiso   1.00
H715   H     0.32964   0.79424   0.71018   0.00000  Uiso   1.00
H716   H     0.01377   0.89355   0.50683   0.00000  Uiso   1.00
H717   H     0.02159   0.78888   0.90066   0.00000  Uiso   1.00
H718   H     0.06913   0.80244   0.54688   0.00000  Uiso   1.00
H719   H     0.32739   0.77161   0.99172   0.00000  Uiso   1.00
H720   H     0.23191   0.67921   0.76048   0.00000  Uiso   1.00
N721   N     0.31574   0.84741   0.76416   0.00000  Uiso   1.00
N722   N     0.01759   0.81926   0.73584   0.00000  Uiso   1.00
O723   O     0.12797   0.90474   0.74633   0.00000  Uiso   1.00
O724   O     0.22858   0.91422   0.75586   0.00000  Uiso   1.00
O725   O     0.09181   0.82627   0.81839   0.00000  Uiso   1.00
O726   O     0.19242   0.83575   0.82793   0.00000  Uiso   1.00
O727   O     0.10476   0.75245   0.74413   0.00000  Uiso   1.00
O728   O     0.20536   0.76193   0.75367   0.00000  Uiso   1.00
O729   O     0.14092   0.83092   0.67207   0.00000  Uiso   1.00
O730   O     0.24152   0.84040   0.68160   0.00000  Uiso   1.00
C731   C     0.08497   0.98290   0.72862   0.00000  Uiso   1.00
N732   N     0.03838   0.96103   0.71737   0.00000  Uiso   1.00
H733   H     0.31384   0.91147   0.92790   0.00000  Uiso   1.00
C734   C     0.12222   0.88273   0.59761   0.00000  Uiso   1.00
N735   N     0.08273   0.90266   0.61873   0.00000  Uiso   1.00
H736   H     0.23246   0.90194   0.87904   0.00000  Uiso   1.00
C737   C     0.51499   0.93326   0.75086   0.00000  Uiso   1.00
C738   C     0.47551   0.84464   0.98793   0.00000  Uiso   1.00
C739   C     0.49213   0.85520   0.93523   0.00000  Uiso   1.00
C740   C     0.52144   0.86048   0.51867   0.00000  Uiso   1.00
C741   C     0.58476   0.87799   0.99560   0.00000  Uiso   1.00
C742   C     0.59958   0.89323   0.94510   0.00000  Uiso   1.00
C743   C     0.55278   0.88535   0.91639   0.00000  Uiso   1.00
C744   C     0.50673   0.85932   0.57185   0.00000  Uiso   1.00
C745   C     0.61503   0.86309   0.57406   0.00000  Uiso   1.00
C746   C     0.44849   0.83379   0.90306   0.00000  Uiso   1.00
C747   C     0.52196   0.98897   0.75145   0.00000  Uiso   1.00
C748   C     0.46724   0.83329   0.84709   0.00000  Uiso   1.00
C749   C     0.47667   0.67786   0.74287   0.00000  Uiso   1.00
C750   C     0.48525   0.73348   0.74725   0.00000  Uiso   1.00
C751   C     0.53356   0.84032   0.65337   0.00000  Uiso   1.00
C752   C     0.63152   0.88065   0.52404   0.00000  Uiso   1.00
C753   C     0.55231   0.85308   0.59890   0.00000  Uiso   1.00
C754   C     0.38861   0.80561   0.92444   0.00000  Uiso   1.00
C755   C     0.37289   0.79517   0.97606   0.00000  Uiso   1.00
C756   C     0.41582   0.81391   0.50752   0.00000  Uiso   1.00
Cu757  Cu    0.44043   0.82772   0.74435   0.00000  Uiso   1.00
Cu758  Cu    0.55957   0.83895   0.75564   0.00000  Uiso   1.00
H759   H     0.65082   0.85966   0.59411   0.00000  Uiso   1.00
H760   H     0.33698   0.87235   0.78991   0.00000  Uiso   1.00
H761   H     0.66297   0.79424   0.71018   0.00000  Uiso   1.00
H762   H     0.34711   0.89355   0.50683   0.00000  Uiso   1.00
H763   H     0.35492   0.78888   0.90066   0.00000  Uiso   1.00
H764   H     0.40246   0.80244   0.54688   0.00000  Uiso   1.00
H765   H     0.66072   0.77161   0.99172   0.00000  Uiso   1.00
H766   H     0.56525   0.67921   0.76048   0.00000  Uiso   1.00
N767   N     0.64908   0.84741   0.76416   0.00000  Uiso   1.00
N768   N     0.35092   0.81926   0.73584   0.00000  Uiso   1.00
O769   O     0.46131   0.90474   0.74633   0.00000  Uiso   1.00
O770   O     0.56191   0.91422   0.75586   0.00000  Uiso   1.00
O771   O     0.42515   0.82627   0.81839   0.00000  Uiso   1.00
O772   O     0.52575   0.83575   0.82793   0.00000  Uiso   1.00
O773   O     0.43809   0.75245   0.74413   0.00000  Uiso   1.00
O774   O     0.53869   0.76193   0.75367   0.00000  Uiso   1.00
O775   O     0.47425   0.83092   0.67207   0.00000  Uiso   1.00
O776   O     0.57485   0.84040   0.68160   0.00000  Uiso   1.00
C777   C     0.41830   0.98290   0.72862   0.00000  Uiso   1.00
N778   N     0.37171   0.96103   0.71737   0.00000  Uiso   1.00
H779   H     0.64717   0.91147   0.92790   0.00000  Uiso   1.00
C780   C     0.45555   0.88273   0.59761   0.00000  Uiso   1.00
N781   N     0.41607   0.90266   0.61873   0.00000  Uiso   1.00
H782   H     0.56579   0.90194   0.87904   0.00000  Uiso   1.00
C783   C     0.84832   0.93326   0.75086   0.00000  Uiso   1.00
C784   C     0.80884   0.84464   0.98793   0.00000  Uiso   1.00
C785   C     0.82546   0.85520   0.93523   0.00000  Uiso   1.00
C786   C     0.85477   0.86048   0.51867   0.00000  Uiso   1.00
C787   C     0.91809   0.87799   0.99560   0.00000  Uiso   1.00
C788   C     0.93292   0.89323   0.94510   0.00000  Uiso   1.00
C789   C     0.88612   0.88535   0.91639   0.00000  Uiso   1.00
C790   C     0.84006   0.85932   0.57185   0.00000  Uiso   1.00
C791   C     0.94836   0.86309   0.57406   0.00000  Uiso   1.00
C792   C     0.78182   0.83379   0.90306   0.00000  Uiso   1.00
C793   C     0.85529   0.98897   0.75145   0.00000  Uiso   1.00
C794   C     0.80057   0.83329   0.84709   0.00000  Uiso   1.00
C795   C     0.81000   0.67786   0.74287   0.00000  Uiso   1.00
C796   C     0.81858   0.73348   0.74725   0.00000  Uiso   1.00
C797   C     0.86690   0.84032   0.65337   0.00000  Uiso   1.00
C798   C     0.96485   0.88065   0.52404   0.00000  Uiso   1.00
C799   C     0.88564   0.85308   0.59890   0.00000  Uiso   1.00
C800   C     0.72194   0.80561   0.92444   0.00000  Uiso   1.00
C801   C     0.70623   0.79517   0.97606   0.00000  Uiso   1.00
C802   C     0.74915   0.81391   0.50752   0.00000  Uiso   1.00
Cu803  Cu    0.77377   0.82772   0.74435   0.00000  Uiso   1.00
Cu804  Cu    0.89290   0.83895   0.75564   0.00000  Uiso   1.00
H805   H     0.98415   0.85966   0.59411   0.00000  Uiso   1.00
H806   H     0.67031   0.87235   0.78991   0.00000  Uiso   1.00
H807   H     0.99630   0.79424   0.71018   0.00000  Uiso   1.00
H808   H     0.68044   0.89355   0.50683   0.00000  Uiso   1.00
H809   H     0.68826   0.78888   0.90066   0.00000  Uiso   1.00
H810   H     0.73579   0.80244   0.54688   0.00000  Uiso   1.00
H811   H     0.99406   0.77161   0.99172   0.00000  Uiso   1.00
H812   H     0.89858   0.67921   0.76048   0.00000  Uiso   1.00
N813   N     0.98241   0.84741   0.76416   0.00000  Uiso   1.00
N814   N     0.68426   0.81926   0.73584   0.00000  Uiso   1.00
O815   O     0.79464   0.90474   0.74633   0.00000  Uiso   1.00
O816   O     0.89524   0.91422   0.75586   0.00000  Uiso   1.00
O817   O     0.75848   0.82627   0.81839   0.00000  Uiso   1.00
O818   O     0.85908   0.83575   0.82793   0.00000  Uiso   1.00
O819   O     0.77142   0.75245   0.74413   0.00000  Uiso   1.00
O820   O     0.87203   0.76193   0.75367   0.00000  Uiso   1.00
O821   O     0.80758   0.83092   0.67207   0.00000  Uiso   1.00
O822   O     0.90819   0.84040   0.68160   0.00000  Uiso   1.00
C823   C     0.75163   0.98290   0.72862   0.00000  Uiso   1.00
N824   N     0.70505   0.96103   0.71737   0.00000  Uiso   1.00
H825   H     0.98050   0.91147   0.92790   0.00000  Uiso   1.00
C826   C     0.78889   0.88273   0.59761   0.00000  Uiso   1.00
N827   N     0.74940   0.90266   0.61873   0.00000  Uiso   1.00
H828   H     0.89913   0.90194   0.87904   0.00000  Uiso   1.00
loop_
_geom_bond_atom_site_label_1
_geom_bond_atom_site_label_2
_geom_bond_distance
_geom_bond_site_symmetry_2
_ccdc_geom_bond_type
C1     O33     1.287   .     A
C1     O34     1.294   .     A
C1     C11     1.435   .     S
C2     C3      1.417   .     A
C2     C418    1.418   .     S
C2     C434    1.413   .     S
C3     C10     1.428   .     A
C3     C7      1.419   .     A
C4     C8      1.397   .     A
C4     C416    1.418   1_554 S
C4     C419    1.410   1_554 S
C5     C6      1.392   .     A
C5     C418    1.410   .     S
C5     C430    1.402   .     S
C6     C7      1.393   .     A
C6     H43     1.084   .     S
C7     H46     1.079   .     S
C8     C17     1.410   .     A
C8     C44     1.448   .     S
C9     C17     1.399   .     A
C9     C16     1.399   .     A
C9     H23     1.074   .     S
C10    C12     1.473   .     S
C10    C18     1.403   .     A
C11    C151    1.343   .     S
C11    H168    1.088   .     S
C12    O36     1.293   .     A
C12    O35     1.308   .     A
C13    C14     1.429   .     S
C13    C287    1.343   1_545 S
C13    C317    1.458   1_545 S
C14    O37     1.284   .     A
C14    O38     1.295   .     A
C15    O39     1.292   .     A
C15    O40     1.308   .     A
C15    C17     1.475   .     S
C16    C419    1.402   1_554 S
C16    H72     1.083   .     S
C18    C19     1.388   .     A
C18    H27     1.083   .     S
C19    C434    1.390   .     S
C19    H121    1.083   1_455 S
C20    H28     1.081   .     S
C20    C433    1.390   1_554 S
C20    C416    1.413   1_554 S
Cu21   O35     1.946   .     S
Cu21   O39     1.931   .     S
Cu21   N32     2.022   .     S
Cu21   O33     1.970   .     S
Cu21   O37     1.965   .     S
Cu21   Cu22    2.691   .     S
Cu22   O36     1.931   .     S
Cu22   O40     1.946   .     S
Cu22   O34     1.965   .     S
Cu22   N31     2.022   .     S
Cu22   O38     1.970   .     S
H24    N123    1.029   1_455 S
H25    N78     1.029   .     S
H26    C108    1.083   1_455 S
H29    C65     1.083   .     S
H30    C287    1.088   1_545 S
N31    H70     1.029   .     S
N31    N78     1.296   .     S
N32    N123    1.296   1_455 S
N32    H117    1.029   1_455 S
C41    N42     1.157   .     T
C41    C151    1.458   .     S
C44    N45     1.156   .     T
C47    O79     1.287   .     A
C47    O80     1.294   .     A
C47    C57     1.435   .     S
C48    C49     1.417   .     A
C48    C464    1.418   .     S
C48    C480    1.413   .     S
C49    C56     1.428   .     A
C49    C53     1.419   .     A
C50    C54     1.397   .     A
C50    C462    1.418   1_554 S
C50    C465    1.410   1_554 S
C51    C52     1.392   .     A
C51    C464    1.410   .     S
C51    C476    1.402   .     S
C52    C53     1.393   .     A
C52    H89     1.084   .     S
C53    H92     1.079   .     S
C54    C63     1.410   .     A
C54    C90     1.448   .     S
C55    C63     1.399   .     A
C55    C62     1.399   .     A
C55    H69     1.074   .     S
C56    C58     1.473   .     S
C56    C64     1.403   .     A
C57    C197    1.343   .     S
C57    H214    1.088   .     S
C58    O82     1.293   .     A
C58    O81     1.308   .     A
C59    C60     1.429   .     S
C59    C333    1.343   1_545 S
C59    C363    1.458   1_545 S
C60    O83     1.284   .     A
C60    O84     1.295   .     A
C61    O85     1.292   .     A
C61    O86     1.308   .     A
C61    C63     1.475   .     S
C62    C465    1.402   1_554 S
C62    H118    1.083   .     S
C64    C65     1.388   .     A
C64    H73     1.083   .     S
C65    C480    1.390   .     S
C66    H74     1.081   .     S
C66    C479    1.390   1_554 S
C66    C462    1.413   1_554 S
Cu67   O81     1.946   .     S
Cu67   O85     1.931   .     S
Cu67   N78     2.022   .     S
Cu67   O79     1.970   .     S
Cu67   O83     1.965   .     S
Cu67   Cu68    2.691   .     S
Cu68   O82     1.931   .     S
Cu68   O86     1.946   .     S
Cu68   O80     1.965   .     S
Cu68   N77     2.022   .     S
Cu68   O84     1.970   .     S
H71    N124    1.029   .     S
H75    C111    1.083   .     S
H76    C333    1.088   1_545 S
N77    H116    1.029   .     S
N77    N124    1.296   .     S
C87    N88     1.157   .     T
C87    C197    1.458   .     S
C90    N91     1.156   .     T
C93    O125    1.287   .     A
C93    O126    1.294   .     A
C93    C103    1.435   .     S
C94    C95     1.417   .     A
C94    C510    1.418   .     S
C94    C526    1.413   .     S
C95    C102    1.428   .     A
C95    C99     1.419   .     A
C96    C100    1.397   .     A
C96    C508    1.418   1_554 S
C96    C511    1.410   1_554 S
C97    C98     1.392   .     A
C97    C510    1.410   .     S
C97    C522    1.402   .     S
C98    C99     1.393   .     A
C98    H135    1.084   .     S
C99    H138    1.079   .     S
C100   C109    1.410   .     A
C100   C136    1.448   .     S
C101   C109    1.399   .     A
C101   C108    1.399   .     A
C101   H115    1.074   .     S
C102   C104    1.473   .     S
C102   C110    1.403   .     A
C103   C243    1.343   .     S
C103   H260    1.088   .     S
C104   O128    1.293   .     A
C104   O127    1.308   .     A
C105   C106    1.429   .     S
C105   C379    1.343   1_545 S
C105   C409    1.458   1_545 S
C106   O129    1.284   .     A
C106   O130    1.295   .     A
C107   O131    1.292   .     A
C107   O132    1.308   .     A
C107   C109    1.475   .     S
C108   C511    1.402   1_554 S
C108   H26     1.083   1_655 S
C110   C111    1.388   .     A
C110   H119    1.083   .     S
C111   C526    1.390   .     S
C112   H120    1.081   .     S
C112   C525    1.390   1_554 S
C112   C508    1.413   1_554 S
Cu113  O127    1.946   .     S
Cu113  O131    1.931   .     S
Cu113  N124    2.022   .     S
Cu113  O125    1.970   .     S
Cu113  O129    1.965   .     S
Cu113  Cu114   2.691   .     S
Cu114  O128    1.931   .     S
Cu114  O132    1.946   .     S
Cu114  O126    1.965   .     S
Cu114  N123    2.022   .     S
Cu114  O130    1.970   .     S
H117   N32     1.029   1_655 S
H121   C19     1.083   1_655 S
H122   C379    1.088   1_545 S
N123   H24     1.029   1_655 S
N123   N32     1.296   1_655 S
C133   N134    1.157   .     T
C133   C243    1.458   .     S
C136   N137    1.156   .     T
C139   O171    1.287   .     A
C139   O172    1.294   .     A
C139   C149    1.435   .     S
C140   C141    1.417   .     A
C140   C556    1.418   .     S
C140   C572    1.413   .     S
C141   C148    1.428   .     A
C141   C145    1.419   .     A
C142   C146    1.397   .     A
C142   C554    1.418   1_554 S
C142   C557    1.410   1_554 S
C143   C144    1.392   .     A
C143   C556    1.410   .     S
C143   C568    1.402   .     S
C144   C145    1.393   .     A
C144   H181    1.084   .     S
C145   H184    1.079   .     S
C146   C155    1.410   .     A
C146   C182    1.448   .     S
C147   C155    1.399   .     A
C147   C154    1.399   .     A
C147   H161    1.074   .     S
C148   C150    1.473   .     S
C148   C156    1.403   .     A
C149   C289    1.343   .     S
C149   H306    1.088   .     S
C150   O174    1.293   .     A
C150   O173    1.308   .     A
C151   C152    1.429   .     S
C152   O175    1.284   .     A
C152   O176    1.295   .     A
C153   O177    1.292   .     A
C153   O178    1.308   .     A
C153   C155    1.475   .     S
C154   C557    1.402   1_554 S
C154   H210    1.083   .     S
C156   C157    1.388   .     A
C156   H165    1.083   .     S
C157   C572    1.390   .     S
C157   H259    1.083   1_455 S
C158   H166    1.081   .     S
C158   C571    1.390   1_554 S
C158   C554    1.413   1_554 S
Cu159  O173    1.946   .     S
Cu159  O177    1.931   .     S
Cu159  N170    2.022   .     S
Cu159  O171    1.970   .     S
Cu159  O175    1.965   .     S
Cu159  Cu160   2.691   .     S
Cu160  O174    1.931   .     S
Cu160  O178    1.946   .     S
Cu160  O172    1.965   .     S
Cu160  N169    2.022   .     S
Cu160  O176    1.970   .     S
H162   N261    1.029   1_455 S
H163   N216    1.029   .     S
H164   C246    1.083   1_455 S
H167   C203    1.083   .     S
N169   H208    1.029   .     S
N169   N216    1.296   .     S
N170   N261    1.296   1_455 S
N170   H255    1.029   1_455 S
C179   N180    1.157   .     T
C179   C289    1.458   .     S
C182   N183    1.156   .     T
C185   O217    1.287   .     A
C185   O218    1.294   .     A
C185   C195    1.435   .     S
C186   C187    1.417   .     A
C186   C602    1.418   .     S
C186   C618    1.413   .     S
C187   C194    1.428   .     A
C187   C191    1.419   .     A
C188   C192    1.397   .     A
C188   C600    1.418   1_554 S
C188   C603    1.410   1_554 S
C189   C190    1.392   .     A
C189   C602    1.410   .     S
C189   C614    1.402   .     S
C190   C191    1.393   .     A
C190   H227    1.084   .     S
C191   H230    1.079   .     S
C192   C201    1.410   .     A
C192   C228    1.448   .     S
C193   C201    1.399   .     A
C193   C200    1.399   .     A
C193   H207    1.074   .     S
C194   C196    1.473   .     S
C194   C202    1.403   .     A
C195   C335    1.343   .     S
C195   H352    1.088   .     S
C196   O220    1.293   .     A
C196   O219    1.308   .     A
C197   C198    1.429   .     S
C198   O221    1.284   .     A
C198   O222    1.295   .     A
C199   O223    1.292   .     A
C199   O224    1.308   .     A
C199   C201    1.475   .     S
C200   C603    1.402   1_554 S
C200   H256    1.083   .     S
C202   C203    1.388   .     A
C202   H211    1.083   .     S
C203   C618    1.390   .     S
C204   H212    1.081   .     S
C204   C617    1.390   1_554 S
C204   C600    1.413   1_554 S
Cu205  O219    1.946   .     S
Cu205  O223    1.931   .     S
Cu205  N216    2.022   .     S
Cu205  O217    1.970   .     S
Cu205  O221    1.965   .     S
Cu205  Cu206   2.691   .     S
Cu206  O220    1.931   .     S
Cu206  O224    1.946   .     S
Cu206  O218    1.965   .     S
Cu206  N215    2.022   .     S
Cu206  O222    1.970   .     S
H209   N262    1.029   .     S
H213   C249    1.083   .     S
N215   H254    1.029   .     S
N215   N262    1.296   .     S
C225   N226    1.157   .     T
C225   C335    1.458   .     S
C228   N229    1.156   .     T
C231   O263    1.287   .     A
C231   O264    1.294   .     A
C231   C241    1.435   .     S
C232   C233    1.417   .     A
C232   C648    1.418   .     S
C232   C664    1.413   .     S
C233   C240    1.428   .     A
C233   C237    1.419   .     A
C234   C238    1.397   .     A
C234   C646    1.418   1_554 S
C234   C649    1.410   1_554 S
C235   C236    1.392   .     A
C235   C648    1.410   .     S
C235   C660    1.402   .     S
C236   C237    1.393   .     A
C236   H273    1.084   .     S
C237   H276    1.079   .     S
C238   C247    1.410   .     A
C238   C274    1.448   .     S
C239   C247    1.399   .     A
C239   C246    1.399   .     A
C239   H253    1.074   .     S
C240   C242    1.473   .     S
C240   C248    1.403   .     A
C241   C381    1.343   .     S
C241   H398    1.088   .     S
C242   O266    1.293   .     A
C242   O265    1.308   .     A
C243   C244    1.429   .     S
C244   O267    1.284   .     A
C244   O268    1.295   .     A
C245   O269    1.292   .     A
C245   O270    1.308   .     A
C245   C247    1.475   .     S
C246   C649    1.402   1_554 S
C246   H164    1.083   1_655 S
C248   C249    1.388   .     A
C248   H257    1.083   .     S
C249   C664    1.390   .     S
C250   H258    1.081   .     S
C250   C663    1.390   1_554 S
C250   C646    1.413   1_554 S
Cu251  O265    1.946   .     S
Cu251  O269    1.931   .     S
Cu251  N262    2.022   .     S
Cu251  O263    1.970   .     S
Cu251  O267    1.965   .     S
Cu251  Cu252   2.691   .     S
Cu252  O266    1.931   .     S
Cu252  O270    1.946   .     S
Cu252  O264    1.965   .     S
Cu252  N261    2.022   .     S
Cu252  O268    1.970   .     S
H255   N170    1.029   1_655 S
H259   C157    1.083   1_655 S
N261   H162    1.029   1_655 S
N261   N170    1.296   1_655 S
C271   N272    1.157   .     T
C271   C381    1.458   .     S
C274   N275    1.156   .     T
C277   O309    1.287   .     A
C277   O310    1.294   .     A
C277   C287    1.435   .     S
C278   C279    1.417   .     A
C278   C694    1.418   .     S
C278   C710    1.413   .     S
C279   C286    1.428   .     A
C279   C283    1.419   .     A
C280   C284    1.397   .     A
C280   C692    1.418   1_554 S
C280   C695    1.410   1_554 S
C281   C282    1.392   .     A
C281   C694    1.410   .     S
C281   C706    1.402   .     S
C282   C283    1.393   .     A
C282   H319    1.084   .     S
C283   H322    1.079   .     S
C284   C293    1.410   .     A
C284   C320    1.448   .     S
C285   C293    1.399   .     A
C285   C292    1.399   .     A
C285   H299    1.074   .     S
C286   C288    1.473   .     S
C286   C294    1.403   .     A
C287   C13     1.343   1_565 S
C287   H30     1.088   1_565 S
C288   O312    1.293   .     A
C288   O311    1.308   .     A
C289   C290    1.429   .     S
C290   O313    1.284   .     A
C290   O314    1.295   .     A
C291   O315    1.292   .     A
C291   O316    1.308   .     A
C291   C293    1.475   .     S
C292   C695    1.402   1_554 S
C292   H348    1.083   .     S
C294   C295    1.388   .     A
C294   H303    1.083   .     S
C295   C710    1.390   .     S
C295   H397    1.083   1_455 S
C296   H304    1.081   .     S
C296   C709    1.390   1_554 S
C296   C692    1.413   1_554 S
Cu297  O311    1.946   .     S
Cu297  O315    1.931   .     S
Cu297  N308    2.022   .     S
Cu297  O309    1.970   .     S
Cu297  O313    1.965   .     S
Cu297  Cu298   2.691   .     S
Cu298  O312    1.931   .     S
Cu298  O316    1.946   .     S
Cu298  O310    1.965   .     S
Cu298  N307    2.022   .     S
Cu298  O314    1.970   .     S
H300   N399    1.029   1_455 S
H301   N354    1.029   .     S
H302   C384    1.083   1_455 S
H305   C341    1.083   .     S
N307   H346    1.029   .     S
N307   N354    1.296   .     S
N308   N399    1.296   1_455 S
N308   H393    1.029   1_455 S
C317   N318    1.157   .     T
C317   C13     1.458   1_565 S
C320   N321    1.156   .     T
C323   O355    1.287   .     A
C323   O356    1.294   .     A
C323   C333    1.435   .     S
C324   C325    1.417   .     A
C324   C740    1.418   .     S
C324   C756    1.413   .     S
C325   C332    1.428   .     A
C325   C329    1.419   .     A
C326   C330    1.397   .     A
C326   C738    1.418   1_554 S
C326   C741    1.410   1_554 S
C327   C328    1.392   .     A
C327   C740    1.410   .     S
C327   C752    1.402   .     S
C328   C329    1.393   .     A
C328   H365    1.084   .     S
C329   H368    1.079   .     S
C330   C339    1.410   .     A
C330   C366    1.448   .     S
C331   C339    1.399   .     A
C331   C338    1.399   .     A
C331   H345    1.074   .     S
C332   C334    1.473   .     S
C332   C340    1.403   .     A
C333   C59     1.343   1_565 S
C333   H76     1.088   1_565 S
C334   O358    1.293   .     A
C334   O357    1.308   .     A
C335   C336    1.429   .     S
C336   O359    1.284   .     A
C336   O360    1.295   .     A
C337   O361    1.292   .     A
C337   O362    1.308   .     A
C337   C339    1.475   .     S
C338   C741    1.402   1_554 S
C338   H394    1.083   .     S
C340   C341    1.388   .     A
C340   H349    1.083   .     S
C341   C756    1.390   .     S
C342   H350    1.081   .     S
C342   C755    1.390   1_554 S
C342   C738    1.413   1_554 S
Cu343  O357    1.946   .     S
Cu343  O361    1.931   .     S
Cu343  N354    2.022   .     S
Cu343  O355    1.970   .     S
Cu343  O359    1.965   .     S
Cu343  Cu344   2.691   .     S
Cu344  O358    1.931   .     S
Cu344  O362    1.946   .     S
Cu344  O356    1.965   .     S
Cu344  N353    2.022   .     S
Cu344  O360    1.970   .     S
H347   N400    1.029   .     S
H351   C387    1.083   .     S
N353   H392    1.029   .     S
N353   N400    1.296   .     S
C363   N364    1.157   .     T
C363   C59     1.458   1_565 S
C366   N367    1.156   .     T
C369   O401    1.287   .     A
C369   O402    1.294   .     A
C369   C379    1.435   .     S
C370   C371    1.417   .     A
C370   C786    1.418   .     S
C370   C802    1.413   .     S
C371   C378    1.428   .     A
C371   C375    1.419   .     A
C372   C376    1.397   .     A
C372   C784    1.418   1_554 S
C372   C787    1.410   1_554 S
C373   C374    1.392   .     A
C373   C786    1.410   .     S
C373   C798    1.402   .     S
C374   C375    1.393   .     A
C374   H411    1.084   .     S
C375   H414    1.079   .     S
C376   C385    1.410   .     A
C376   C412    1.448   .     S
C377   C385    1.399   .     A
C377   C384    1.399   .     A
C377   H391    1.074   .     S
C378   C380    1.473   .     S
C378   C386    1.403   .     A
C379   C105    1.343   1_565 S
C379   H122    1.088   1_565 S
C380   O404    1.293   .     A
C380   O403    1.308   .     A
C381   C382    1.429   .     S
C382   O405    1.284   .     A
C382   O406    1.295   .     A
C383   O407    1.292   .     A
C383   O408    1.308   .     A
C383   C385    1.475   .     S
C384   C787    1.402   1_554 S
C384   H302    1.083   1_655 S
C386   C387    1.388   .     A
C386   H395    1.083   .     S
C387   C802    1.390   .     S
C388   H396    1.081   .     S
C388   C801    1.390   1_554 S
C388   C784    1.413   1_554 S
Cu389  O403    1.946   .     S
Cu389  O407    1.931   .     S
Cu389  N400    2.022   .     S
Cu389  O401    1.970   .     S
Cu389  O405    1.965   .     S
Cu389  Cu390   2.691   .     S
Cu390  O404    1.931   .     S
Cu390  O408    1.946   .     S
Cu390  O402    1.965   .     S
Cu390  N399    2.022   .     S
Cu390  O406    1.970   .     S
H393   N308    1.029   1_655 S
H397   C295    1.083   1_655 S
N399   H300    1.029   1_655 S
N399   N308    1.296   1_655 S
C409   N410    1.157   .     T
C409   C105    1.458   1_565 S
C412   N413    1.156   .     T
C415   O447    1.287   .     A
C415   O448    1.294   .     A
C415   C425    1.435   .     S
C416   C417    1.417   .     A
C416   C4      1.418   1_556 S
C416   C20     1.413   1_556 S
C417   C424    1.428   .     A
C417   C421    1.419   .     A
C418   C422    1.397   .     A
C419   C420    1.392   .     A
C419   C4      1.410   1_556 S
C419   C16     1.402   1_556 S
C420   C421    1.393   .     A
C420   H457    1.084   .     S
C421   H460    1.079   .     S
C422   C431    1.410   .     A
C422   C458    1.448   .     S
C423   C431    1.399   .     A
C423   C430    1.399   .     A
C423   H437    1.074   .     S
C424   C426    1.473   .     S
C424   C432    1.403   .     A
C425   C565    1.343   .     S
C425   H582    1.088   .     S
C426   O450    1.293   .     A
C426   O449    1.308   .     A
C427   C428    1.429   .     S
C427   C701    1.343   1_545 S
C427   C731    1.458   1_545 S
C428   O451    1.284   .     A
C428   O452    1.295   .     A
C429   O453    1.292   .     A
C429   O454    1.308   .     A
C429   C431    1.475   .     S
C430   H486    1.083   .     S
C432   C433    1.388   .     A
C432   H441    1.083   .     S
C433   C20     1.390   1_556 S
C433   H535    1.083   1_455 S
C434   H442    1.081   .     S
Cu435  O449    1.946   .     S
Cu435  O453    1.931   .     S
Cu435  N446    2.022   .     S
Cu435  O447    1.970   .     S
Cu435  O451    1.965   .     S
Cu435  Cu436   2.691   .     S
Cu436  O450    1.931   .     S
Cu436  O454    1.946   .     S
Cu436  O448    1.965   .     S
Cu436  N445    2.022   .     S
Cu436  O452    1.970   .     S
H438   N537    1.029   1_455 S
H439   N492    1.029   .     S
H440   C522    1.083   1_455 S
H443   C479    1.083   .     S
H444   C701    1.088   1_545 S
N445   H484    1.029   .     S
N445   N492    1.296   .     S
N446   N537    1.296   1_455 S
N446   H531    1.029   1_455 S
C455   N456    1.157   .     T
C455   C565    1.458   .     S
C458   N459    1.156   .     T
C461   O493    1.287   .     A
C461   O494    1.294   .     A
C461   C471    1.435   .     S
C462   C463    1.417   .     A
C462   C50     1.418   1_556 S
C462   C66     1.413   1_556 S
C463   C470    1.428   .     A
C463   C467    1.419   .     A
C464   C468    1.397   .     A
C465   C466    1.392   .     A
C465   C50     1.410   1_556 S
C465   C62     1.402   1_556 S
C466   C467    1.393   .     A
C466   H503    1.084   .     S
C467   H506    1.079   .     S
C468   C477    1.410   .     A
C468   C504    1.448   .     S
C469   C477    1.399   .     A
C469   C476    1.399   .     A
C469   H483    1.074   .     S
C470   C472    1.473   .     S
C470   C478    1.403   .     A
C471   C611    1.343   .     S
C471   H628    1.088   .     S
C472   O496    1.293   .     A
C472   O495    1.308   .     A
C473   C474    1.429   .     S
C473   C747    1.343   1_545 S
C473   C777    1.458   1_545 S
C474   O497    1.284   .     A
C474   O498    1.295   .     A
C475   O499    1.292   .     A
C475   O500    1.308   .     A
C475   C477    1.475   .     S
C476   H532    1.083   .     S
C478   C479    1.388   .     A
C478   H487    1.083   .     S
C479   C66     1.390   1_556 S
C480   H488    1.081   .     S
Cu481  O495    1.946   .     S
Cu481  O499    1.931   .     S
Cu481  N492    2.022   .     S
Cu481  O493    1.970   .     S
Cu481  O497    1.965   .     S
Cu481  Cu482   2.691   .     S
Cu482  O496    1.931   .     S
Cu482  O500    1.946   .     S
Cu482  O494    1.965   .     S
Cu482  N491    2.022   .     S
Cu482  O498    1.970   .     S
H485   N538    1.029   .     S
H489   C525    1.083   .     S
H490   C747    1.088   1_545 S
N491   H530    1.029   .     S
N491   N538    1.296   .     S
C501   N502    1.157   .     T
C501   C611    1.458   .     S
C504   N505    1.156   .     T
C507   O539    1.287   .     A
C507   O540    1.294   .     A
C507   C517    1.435   .     S
C508   C509    1.417   .     A
C508   C96     1.418   1_556 S
C508   C112    1.413   1_556 S
C509   C516    1.428   .     A
C509   C513    1.419   .     A
C510   C514    1.397   .     A
C511   C512    1.392   .     A
C511   C96     1.410   1_556 S
C511   C108    1.402   1_556 S
C512   C513    1.393   .     A
C512   H549    1.084   .     S
C513   H552    1.079   .     S
C514   C523    1.410   .     A
C514   C550    1.448   .     S
C515   C523    1.399   .     A
C515   C522    1.399   .     A
C515   H529    1.074   .     S
C516   C518    1.473   .     S
C516   C524    1.403   .     A
C517   C657    1.343   .     S
C517   H674    1.088   .     S
C518   O542    1.293   .     A
C518   O541    1.308   .     A
C519   C520    1.429   .     S
C519   C793    1.343   1_545 S
C519   C823    1.458   1_545 S
C520   O543    1.284   .     A
C520   O544    1.295   .     A
C521   O545    1.292   .     A
C521   O546    1.308   .     A
C521   C523    1.475   .     S
C522   H440    1.083   1_655 S
C524   C525    1.388   .     A
C524   H533    1.083   .     S
C525   C112    1.390   1_556 S
C526   H534    1.081   .     S
Cu527  O541    1.946   .     S
Cu527  O545    1.931   .     S
Cu527  N538    2.022   .     S
Cu527  O539    1.970   .     S
Cu527  O543    1.965   .     S
Cu527  Cu528   2.691   .     S
Cu528  O542    1.931   .     S
Cu528  O546    1.946   .     S
Cu528  O540    1.965   .     S
Cu528  N537    2.022   .     S
Cu528  O544    1.970   .     S
H531   N446    1.029   1_655 S
H535   C433    1.083   1_655 S
H536   C793    1.088   1_545 S
N537   H438    1.029   1_655 S
N537   N446    1.296   1_655 S
C547   N548    1.157   .     T
C547   C657    1.458   .     S
C550   N551    1.156   .     T
C553   O585    1.287   .     A
C553   O586    1.294   .     A
C553   C563    1.435   .     S
C554   C555    1.417   .     A
C554   C142    1.418   1_556 S
C554   C158    1.413   1_556 S
C555   C562    1.428   .     A
C555   C559    1.419   .     A
C556   C560    1.397   .     A
C557   C558    1.392   .     A
C557   C142    1.410   1_556 S
C557   C154    1.402   1_556 S
C558   C559    1.393   .     A
C558   H595    1.084   .     S
C559   H598    1.079   .     S
C560   C569    1.410   .     A
C560   C596    1.448   .     S
C561   C569    1.399   .     A
C561   C568    1.399   .     A
C561   H575    1.074   .     S
C562   C564    1.473   .     S
C562   C570    1.403   .     A
C563   C703    1.343   .     S
C563   H720    1.088   .     S
C564   O588    1.293   .     A
C564   O587    1.308   .     A
C565   C566    1.429   .     S
C566   O589    1.284   .     A
C566   O590    1.295   .     A
C567   O591    1.292   .     A
C567   O592    1.308   .     A
C567   C569    1.475   .     S
C568   H624    1.083   .     S
C570   C571    1.388   .     A
C570   H579    1.083   .     S
C571   C158    1.390   1_556 S
C571   H673    1.083   1_455 S
C572   H580    1.081   .     S
Cu573  O587    1.946   .     S
Cu573  O591    1.931   .     S
Cu573  N584    2.022   .     S
Cu573  O585    1.970   .     S
Cu573  O589    1.965   .     S
Cu573  Cu574   2.691   .     S
Cu574  O588    1.931   .     S
Cu574  O592    1.946   .     S
Cu574  O586    1.965   .     S
Cu574  N583    2.022   .     S
Cu574  O590    1.970   .     S
H576   N675    1.029   1_455 S
H577   N630    1.029   .     S
H578   C660    1.083   1_455 S
H581   C617    1.083   .     S
N583   H622    1.029   .     S
N583   N630    1.296   .     S
N584   N675    1.296   1_455 S
N584   H669    1.029   1_455 S
C593   N594    1.157   .     T
C593   C703    1.458   .     S
C596   N597    1.156   .     T
C599   O631    1.287   .     A
C599   O632    1.294   .     A
C599   C609    1.435   .     S
C600   C601    1.417   .     A
C600   C188    1.418   1_556 S
C600   C204    1.413   1_556 S
C601   C608    1.428   .     A
C601   C605    1.419   .     A
C602   C606    1.397   .     A
C603   C604    1.392   .     A
C603   C188    1.410   1_556 S
C603   C200    1.402   1_556 S
C604   C605    1.393   .     A
C604   H641    1.084   .     S
C605   H644    1.079   .     S
C606   C615    1.410   .     A
C606   C642    1.448   .     S
C607   C615    1.399   .     A
C607   C614    1.399   .     A
C607   H621    1.074   .     S
C608   C610    1.473   .     S
C608   C616    1.403   .     A
C609   C749    1.343   .     S
C609   H766    1.088   .     S
C610   O634    1.293   .     A
C610   O633    1.308   .     A
C611   C612    1.429   .     S
C612   O635    1.284   .     A
C612   O636    1.295   .     A
C613   O637    1.292   .     A
C613   O638    1.308   .     A
C613   C615    1.475   .     S
C614   H670    1.083   .     S
C616   C617    1.388   .     A
C616   H625    1.083   .     S
C617   C204    1.390   1_556 S
C618   H626    1.081   .     S
Cu619  O633    1.946   .     S
Cu619  O637    1.931   .     S
Cu619  N630    2.022   .     S
Cu619  O631    1.970   .     S
Cu619  O635    1.965   .     S
Cu619  Cu620   2.691   .     S
Cu620  O634    1.931   .     S
Cu620  O638    1.946   .     S
Cu620  O632    1.965   .     S
Cu620  N629    2.022   .     S
Cu620  O636    1.970   .     S
H623   N676    1.029   .     S
H627   C663    1.083   .     S
N629   H668    1.029   .     S
N629   N676    1.296   .     S
C639   N640    1.157   .     T
C639   C749    1.458   .     S
C642   N643    1.156   .     T
C645   O677    1.287   .     A
C645   O678    1.294   .     A
C645   C655    1.435   .     S
C646   C647    1.417   .     A
C646   C234    1.418   1_556 S
C646   C250    1.413   1_556 S
C647   C654    1.428   .     A
C647   C651    1.419   .     A
C648   C652    1.397   .     A
C649   C650    1.392   .     A
C649   C234    1.410   1_556 S
C649   C246    1.402   1_556 S
C650   C651    1.393   .     A
C650   H687    1.084   .     S
C651   H690    1.079   .     S
C652   C661    1.410   .     A
C652   C688    1.448   .     S
C653   C661    1.399   .     A
C653   C660    1.399   .     A
C653   H667    1.074   .     S
C654   C656    1.473   .     S
C654   C662    1.403   .     A
C655   C795    1.343   .     S
C655   H812    1.088   .     S
C656   O680    1.293   .     A
C656   O679    1.308   .     A
C657   C658    1.429   .     S
C658   O681    1.284   .     A
C658   O682    1.295   .     A
C659   O683    1.292   .     A
C659   O684    1.308   .     A
C659   C661    1.475   .     S
C660   H578    1.083   1_655 S
C662   C663    1.388   .     A
C662   H671    1.083   .     S
C663   C250    1.390   1_556 S
C664   H672    1.081   .     S
Cu665  O679    1.946   .     S
Cu665  O683    1.931   .     S
Cu665  N676    2.022   .     S
Cu665  O677    1.970   .     S
Cu665  O681    1.965   .     S
Cu665  Cu666   2.691   .     S
Cu666  O680    1.931   .     S
Cu666  O684    1.946   .     S
Cu666  O678    1.965   .     S
Cu666  N675    2.022   .     S
Cu666  O682    1.970   .     S
H669   N584    1.029   1_655 S
H673   C571    1.083   1_655 S
N675   H576    1.029   1_655 S
N675   N584    1.296   1_655 S
C685   N686    1.157   .     T
C685   C795    1.458   .     S
C688   N689    1.156   .     T
C691   O723    1.287   .     A
C691   O724    1.294   .     A
C691   C701    1.435   .     S
C692   C693    1.417   .     A
C692   C280    1.418   1_556 S
C692   C296    1.413   1_556 S
C693   C700    1.428   .     A
C693   C697    1.419   .     A
C694   C698    1.397   .     A
C695   C696    1.392   .     A
C695   C280    1.410   1_556 S
C695   C292    1.402   1_556 S
C696   C697    1.393   .     A
C696   H733    1.084   .     S
C697   H736    1.079   .     S
C698   C707    1.410   .     A
C698   C734    1.448   .     S
C699   C707    1.399   .     A
C699   C706    1.399   .     A
C699   H713    1.074   .     S
C700   C702    1.473   .     S
C700   C708    1.403   .     A
C701   C427    1.343   1_565 S
C701   H444    1.088   1_565 S
C702   O726    1.293   .     A
C702   O725    1.308   .     A
C703   C704    1.429   .     S
C704   O727    1.284   .     A
C704   O728    1.295   .     A
C705   O729    1.292   .     A
C705   O730    1.308   .     A
C705   C707    1.475   .     S
C706   H762    1.083   .     S
C708   C709    1.388   .     A
C708   H717    1.083   .     S
C709   C296    1.390   1_556 S
C709   H811    1.083   1_455 S
C710   H718    1.081   .     S
Cu711  O725    1.946   .     S
Cu711  O729    1.931   .     S
Cu711  N722    2.022   .     S
Cu711  O723    1.970   .     S
Cu711  O727    1.965   .     S
Cu711  Cu712   2.691   .     S
Cu712  O726    1.931   .     S
Cu712  O730    1.946   .     S
Cu712  O724    1.965   .     S
Cu712  N721    2.022   .     S
Cu712  O728    1.970   .     S
H714   N813    1.029   1_455 S
H715   N768    1.029   .     S
H716   C798    1.083   1_455 S
H719   C755    1.083   .     S
N721   H760    1.029   .     S
N721   N768    1.296   .     S
N722   N813    1.296   1_455 S
N722   H807    1.029   1_455 S
C731   N732    1.157   .     T
C731   C427    1.458   1_565 S
C734   N735    1.156   .     T
C737   O769    1.287   .     A
C737   O770    1.294   .     A
C737   C747    1.435   .     S
C738   C739    1.417   .     A
C738   C326    1.418   1_556 S
C738   C342    1.413   1_556 S
C739   C746    1.428   .     A
C739   C743    1.419   .     A
C740   C744    1.397   .     A
C741   C742    1.392   .     A
C741   C326    1.410   1_556 S
C741   C338    1.402   1_556 S
C742   C743    1.393   .     A
C742   H779    1.084   .     S
C743   H782    1.079   .     S
C744   C753    1.410   .     A
C744   C780    1.448   .     S
C745   C753    1.399   .     A
C745   C752    1.399   .     A
C745   H759    1.074   .     S
C746   C748    1.473   .     S
C746   C754    1.403   .     A
C747   C473    1.343   1_565 S
C747   H490    1.088   1_565 S
C748   O772    1.293   .     A
C748   O771    1.308   .     A
C749   C750    1.429   .     S
C750   O773    1.284   .     A
C750   O774    1.295   .     A
C751   O775    1.292   .     A
C751   O776    1.308   .     A
C751   C753    1.475   .     S
C752   H808    1.083   .     S
C754   C755    1.388   .     A
C754   H763    1.083   .     S
C755   C342    1.390   1_556 S
C756   H764    1.081   .     S
Cu757  O771    1.946   .     S
Cu757  O775    1.931   .     S
Cu757  N768    2.022   .     S
Cu757  O769    1.970   .     S
Cu757  O773    1.965   .     S
Cu757  Cu758   2.691   .     S
Cu758  O772    1.931   .     S
Cu758  O776    1.946   .     S
Cu758  O770    1.965   .     S
Cu758  N767    2.022   .     S
Cu758  O774    1.970   .     S
H761   N814    1.029   .     S
H765   C801    1.083   .     S
N767   H806    1.029   .     S
N767   N814    1.296   .     S
C777   N778    1.157   .     T
C777   C473    1.458   1_565 S
C780   N781    1.156   .     T
C783   O815    1.287   .     A
C783   O816    1.294   .     A
C783   C793    1.435   .     S
C784   C785    1.417   .     A
C784   C372    1.418   1_556 S
C784   C388    1.413   1_556 S
C785   C792    1.428   .     A
C785   C789    1.419   .     A
C786   C790    1.397   .     A
C787   C788    1.392   .     A
C787   C372    1.410   1_556 S
C787   C384    1.402   1_556 S
C788   C789    1.393   .     A
C788   H825    1.084   .     S
C789   H828    1.079   .     S
C790   C799    1.410   .     A
C790   C826    1.448   .     S
C791   C799    1.399   .     A
C791   C798    1.399   .     A
C791   H805    1.074   .     S
C792   C794    1.473   .     S
C792   C800    1.403   .     A
C793   C519    1.343   1_565 S
C793   H536    1.088   1_565 S
C794   O818    1.293   .     A
C794   O817    1.308   .     A
C795   C796    1.429   .     S
C796   O819    1.284   .     A
C796   O820    1.295   .     A
C797   O821    1.292   .     A
C797   O822    1.308   .     A
C797   C799    1.475   .     S
C798   H716    1.083   1_655 S
C800   C801    1.388   .     A
C800   H809    1.083   .     S
C801   C388    1.390   1_556 S
C802   H810    1.081   .     S
Cu803  O817    1.946   .     S
Cu803  O821    1.931   .     S
Cu803  N814    2.022   .     S
Cu803  O815    1.970   .     S
Cu803  O819    1.965   .     S
Cu803  Cu804   2.691   .     S
Cu804  O818    1.931   .     S
Cu804  O822    1.946   .     S
Cu804  O816    1.965   .     S
Cu804  N813    2.022   .     S
Cu804  O820    1.970   .     S
H807   N722    1.029   1_655 S
H811   C709    1.083   1_655 S
N813   H714    1.029   1_655 S
N813   N722    1.296   1_655 S
C823   N824    1.157   .     T
C823   C519    1.458   1_565 S
C826   N827    1.156   .     T
