data_str_m3_o1_o5_pcu_sym.83
_audit_creation_date              2020-01-03
_audit_creation_method            'Materials Studio'
_symmetry_space_group_name_H-M    'P1'
_symmetry_Int_Tables_number       1
_symmetry_cell_setting            triclinic
loop_
_symmetry_equiv_pos_as_xyz
  x,y,z
_cell_length_a                    31.9349
_cell_length_b                    29.6763
_cell_length_c                    26.7515
_cell_angle_alpha                 90.1520
_cell_angle_beta                  90.0207
_cell_angle_gamma                 90.4346
loop_
_atom_site_label
_atom_site_type_symbol
_atom_site_fract_x
_atom_site_fract_y
_atom_site_fract_z
_atom_site_U_iso_or_equiv
_atom_site_adp_type
_atom_site_occupancy
C1     C     0.08690   0.16650   0.16671   0.00000  Uiso   1.00
C2     C     0.02191   0.17984   0.21065   0.00000  Uiso   1.00
C3     C     0.29066   0.16735   0.16644   0.00000  Uiso   1.00
C4     C     0.04267   0.16598   0.16690   0.00000  Uiso   1.00
C5     C     0.19281   0.02446   0.19775   0.00000  Uiso   1.00
C6     C     0.14052   0.30888   0.13559   0.00000  Uiso   1.00
C7     C     0.14052   0.02385   0.13559   0.00000  Uiso   1.00
C8     C     0.19281   0.30948   0.19774   0.00000  Uiso   1.00
C9     C     0.04606   0.14515   0.07577   0.00000  Uiso   1.00
C10    C     0.28727   0.18818   0.25756   0.00000  Uiso   1.00
C11    C     0.28689   0.13744   0.07851   0.00000  Uiso   1.00
C12    C     0.24643   0.16683   0.16662   0.00000  Uiso   1.00
C13    C     0.04644   0.19589   0.25483   0.00000  Uiso   1.00
C14    C     0.16652   0.16663   0.07292   0.00000  Uiso   1.00
C15    C     0.16681   0.16670   0.26042   0.00000  Uiso   1.00
C16    C     0.16661   0.16661   0.02180   0.00000  Uiso   1.00
C17    C     0.16673   0.16672   0.31154   0.00000  Uiso   1.00
C18    C     0.02175   0.15388   0.12250   0.00000  Uiso   1.00
C19    C     0.31158   0.17946   0.21084   0.00000  Uiso   1.00
C20    C     0.31143   0.15350   0.12268   0.00000  Uiso   1.00
H21    H     0.07616   0.12867   0.07731   0.00000  Uiso   1.00
H22    H     0.08234   0.03909   0.11122   0.00000  Uiso   1.00
H23    H     0.25100   0.29424   0.22211   0.00000  Uiso   1.00
H24    H     0.21347   0.29405   0.26711   0.00000  Uiso   1.00
H25    H     0.25717   0.20467   0.25603   0.00000  Uiso   1.00
H26    H     0.25762   0.15349   0.06878   0.00000  Uiso   1.00
H27    H     0.07572   0.17984   0.26455   0.00000  Uiso   1.00
H28    H     0.25101   0.04080   0.22211   0.00000  Uiso   1.00
H29    H     0.21350   0.04057   0.26711   0.00000  Uiso   1.00
H30    H     0.11984   0.29277   0.06622   0.00000  Uiso   1.00
H31    H     0.08233   0.29253   0.11122   0.00000  Uiso   1.00
H32    H     0.11986   0.03928   0.06623   0.00000  Uiso   1.00
N33    N     0.16667   0.28573   0.16667   0.00000  Uiso   1.00
N34    N     0.16667   0.04760   0.16667   0.00000  Uiso   1.00
N35    N     0.22008   0.04948   0.23016   0.00000  Uiso   1.00
N36    N     0.11325   0.28386   0.10317   0.00000  Uiso   1.00
N37    N     0.11327   0.04824   0.10318   0.00000  Uiso   1.00
N38    N     0.22006   0.28509   0.23015   0.00000  Uiso   1.00
O39    O     0.10559   0.20487   0.16666   0.00000  Uiso   1.00
O40    O     0.29970   0.17502   0.29806   0.00000  Uiso   1.00
O41    O     0.29824   0.10496   0.05404   0.00000  Uiso   1.00
O42    O     0.03509   0.22838   0.27929   0.00000  Uiso   1.00
O43    O     0.22774   0.12846   0.16667   0.00000  Uiso   1.00
O44    O     0.22774   0.20487   0.16667   0.00000  Uiso   1.00
O45    O     0.10559   0.12846   0.16666   0.00000  Uiso   1.00
O46    O     0.16667   0.20488   0.09511   0.00000  Uiso   1.00
O47    O     0.16666   0.12845   0.23822   0.00000  Uiso   1.00
O48    O     0.16666   0.20488   0.23822   0.00000  Uiso   1.00
O49    O     0.16667   0.12845   0.09511   0.00000  Uiso   1.00
O50    O     0.03363   0.15832   0.03528   0.00000  Uiso   1.00
Zn51   Zn    0.16667   0.21771   0.16667   0.00000  Uiso   1.00
Zn52   Zn    0.16667   0.11563   0.16667   0.00000  Uiso   1.00
C53    C     0.42023   0.16650   0.16671   0.00000  Uiso   1.00
C54    C     0.35524   0.17984   0.21065   0.00000  Uiso   1.00
C55    C     0.62400   0.16735   0.16644   0.00000  Uiso   1.00
C56    C     0.37600   0.16598   0.16690   0.00000  Uiso   1.00
C57    C     0.52615   0.02446   0.19775   0.00000  Uiso   1.00
C58    C     0.47385   0.30888   0.13559   0.00000  Uiso   1.00
C59    C     0.47386   0.02385   0.13559   0.00000  Uiso   1.00
C60    C     0.52614   0.30948   0.19774   0.00000  Uiso   1.00
C61    C     0.37940   0.14515   0.07577   0.00000  Uiso   1.00
C62    C     0.62060   0.18818   0.25756   0.00000  Uiso   1.00
C63    C     0.62023   0.13744   0.07851   0.00000  Uiso   1.00
C64    C     0.57977   0.16683   0.16662   0.00000  Uiso   1.00
C65    C     0.37977   0.19589   0.25483   0.00000  Uiso   1.00
C66    C     0.49986   0.16663   0.07292   0.00000  Uiso   1.00
C67    C     0.50014   0.16670   0.26042   0.00000  Uiso   1.00
C68    C     0.49994   0.16661   0.02180   0.00000  Uiso   1.00
C69    C     0.50006   0.16672   0.31154   0.00000  Uiso   1.00
C70    C     0.35509   0.15388   0.12250   0.00000  Uiso   1.00
C71    C     0.64491   0.17946   0.21084   0.00000  Uiso   1.00
C72    C     0.64476   0.15350   0.12268   0.00000  Uiso   1.00
H73    H     0.40949   0.12867   0.07731   0.00000  Uiso   1.00
H74    H     0.41567   0.03909   0.11122   0.00000  Uiso   1.00
H75    H     0.58433   0.29424   0.22211   0.00000  Uiso   1.00
H76    H     0.54680   0.29405   0.26711   0.00000  Uiso   1.00
H77    H     0.59051   0.20467   0.25603   0.00000  Uiso   1.00
H78    H     0.59095   0.15349   0.06878   0.00000  Uiso   1.00
H79    H     0.40905   0.17984   0.26455   0.00000  Uiso   1.00
H80    H     0.58434   0.04080   0.22211   0.00000  Uiso   1.00
H81    H     0.54683   0.04057   0.26711   0.00000  Uiso   1.00
H82    H     0.45317   0.29277   0.06622   0.00000  Uiso   1.00
H83    H     0.41566   0.29253   0.11122   0.00000  Uiso   1.00
H84    H     0.45320   0.03928   0.06623   0.00000  Uiso   1.00
N85    N     0.50000   0.28573   0.16667   0.00000  Uiso   1.00
N86    N     0.50000   0.04760   0.16667   0.00000  Uiso   1.00
N87    N     0.55341   0.04948   0.23016   0.00000  Uiso   1.00
N88    N     0.44659   0.28386   0.10317   0.00000  Uiso   1.00
N89    N     0.44660   0.04824   0.10318   0.00000  Uiso   1.00
N90    N     0.55340   0.28509   0.23015   0.00000  Uiso   1.00
O91    O     0.43892   0.20487   0.16666   0.00000  Uiso   1.00
O92    O     0.63304   0.17502   0.29806   0.00000  Uiso   1.00
O93    O     0.63158   0.10496   0.05404   0.00000  Uiso   1.00
O94    O     0.36842   0.22838   0.27929   0.00000  Uiso   1.00
O95    O     0.56108   0.12846   0.16667   0.00000  Uiso   1.00
O96    O     0.56108   0.20487   0.16667   0.00000  Uiso   1.00
O97    O     0.43892   0.12846   0.16666   0.00000  Uiso   1.00
O98    O     0.50000   0.20488   0.09511   0.00000  Uiso   1.00
O99    O     0.50000   0.12845   0.23822   0.00000  Uiso   1.00
O100   O     0.50000   0.20488   0.23822   0.00000  Uiso   1.00
O101   O     0.50000   0.12845   0.09511   0.00000  Uiso   1.00
O102   O     0.36696   0.15832   0.03528   0.00000  Uiso   1.00
Zn103  Zn    0.50000   0.21771   0.16667   0.00000  Uiso   1.00
Zn104  Zn    0.50000   0.11563   0.16667   0.00000  Uiso   1.00
C105   C     0.75357   0.16650   0.16671   0.00000  Uiso   1.00
C106   C     0.68858   0.17984   0.21065   0.00000  Uiso   1.00
C107   C     0.95733   0.16735   0.16644   0.00000  Uiso   1.00
C108   C     0.70934   0.16598   0.16690   0.00000  Uiso   1.00
C109   C     0.85948   0.02446   0.19775   0.00000  Uiso   1.00
C110   C     0.80719   0.30888   0.13559   0.00000  Uiso   1.00
C111   C     0.80719   0.02385   0.13559   0.00000  Uiso   1.00
C112   C     0.85948   0.30948   0.19774   0.00000  Uiso   1.00
C113   C     0.71273   0.14515   0.07577   0.00000  Uiso   1.00
C114   C     0.95394   0.18818   0.25756   0.00000  Uiso   1.00
C115   C     0.95356   0.13744   0.07851   0.00000  Uiso   1.00
C116   C     0.91310   0.16683   0.16662   0.00000  Uiso   1.00
C117   C     0.71311   0.19589   0.25483   0.00000  Uiso   1.00
C118   C     0.83319   0.16663   0.07292   0.00000  Uiso   1.00
C119   C     0.83348   0.16670   0.26042   0.00000  Uiso   1.00
C120   C     0.83327   0.16661   0.02180   0.00000  Uiso   1.00
C121   C     0.83339   0.16672   0.31154   0.00000  Uiso   1.00
C122   C     0.68842   0.15388   0.12250   0.00000  Uiso   1.00
C123   C     0.97825   0.17946   0.21084   0.00000  Uiso   1.00
C124   C     0.97809   0.15350   0.12268   0.00000  Uiso   1.00
H125   H     0.74283   0.12867   0.07731   0.00000  Uiso   1.00
H126   H     0.74901   0.03909   0.11122   0.00000  Uiso   1.00
H127   H     0.91766   0.29424   0.22211   0.00000  Uiso   1.00
H128   H     0.88014   0.29405   0.26711   0.00000  Uiso   1.00
H129   H     0.92384   0.20467   0.25603   0.00000  Uiso   1.00
H130   H     0.92428   0.15349   0.06878   0.00000  Uiso   1.00
H131   H     0.74238   0.17984   0.26455   0.00000  Uiso   1.00
H132   H     0.91767   0.04080   0.22211   0.00000  Uiso   1.00
H133   H     0.88016   0.04057   0.26711   0.00000  Uiso   1.00
H134   H     0.78650   0.29277   0.06622   0.00000  Uiso   1.00
H135   H     0.74899   0.29253   0.11122   0.00000  Uiso   1.00
H136   H     0.78653   0.03928   0.06623   0.00000  Uiso   1.00
N137   N     0.83333   0.28573   0.16667   0.00000  Uiso   1.00
N138   N     0.83333   0.04760   0.16667   0.00000  Uiso   1.00
N139   N     0.88675   0.04948   0.23016   0.00000  Uiso   1.00
N140   N     0.77992   0.28386   0.10317   0.00000  Uiso   1.00
N141   N     0.77994   0.04824   0.10318   0.00000  Uiso   1.00
N142   N     0.88673   0.28509   0.23015   0.00000  Uiso   1.00
O143   O     0.77226   0.20487   0.16666   0.00000  Uiso   1.00
O144   O     0.96637   0.17502   0.29806   0.00000  Uiso   1.00
O145   O     0.96491   0.10496   0.05404   0.00000  Uiso   1.00
O146   O     0.70176   0.22838   0.27929   0.00000  Uiso   1.00
O147   O     0.89441   0.12846   0.16667   0.00000  Uiso   1.00
O148   O     0.89441   0.20487   0.16667   0.00000  Uiso   1.00
O149   O     0.77226   0.12846   0.16666   0.00000  Uiso   1.00
O150   O     0.83334   0.20488   0.09511   0.00000  Uiso   1.00
O151   O     0.83333   0.12845   0.23822   0.00000  Uiso   1.00
O152   O     0.83333   0.20488   0.23822   0.00000  Uiso   1.00
O153   O     0.83334   0.12845   0.09511   0.00000  Uiso   1.00
O154   O     0.70030   0.15832   0.03528   0.00000  Uiso   1.00
Zn155  Zn    0.83333   0.21771   0.16667   0.00000  Uiso   1.00
Zn156  Zn    0.83333   0.11563   0.16667   0.00000  Uiso   1.00
C157   C     0.08690   0.49983   0.16671   0.00000  Uiso   1.00
C158   C     0.02191   0.51317   0.21065   0.00000  Uiso   1.00
C159   C     0.29066   0.50068   0.16644   0.00000  Uiso   1.00
C160   C     0.04267   0.49932   0.16690   0.00000  Uiso   1.00
C161   C     0.19281   0.35779   0.19775   0.00000  Uiso   1.00
C162   C     0.14052   0.64221   0.13559   0.00000  Uiso   1.00
C163   C     0.14052   0.35718   0.13559   0.00000  Uiso   1.00
C164   C     0.19281   0.64281   0.19774   0.00000  Uiso   1.00
C165   C     0.04606   0.47849   0.07577   0.00000  Uiso   1.00
C166   C     0.28727   0.52151   0.25756   0.00000  Uiso   1.00
C167   C     0.28689   0.47077   0.07851   0.00000  Uiso   1.00
C168   C     0.24643   0.50017   0.16662   0.00000  Uiso   1.00
C169   C     0.04644   0.52923   0.25483   0.00000  Uiso   1.00
C170   C     0.16652   0.49996   0.07292   0.00000  Uiso   1.00
C171   C     0.16681   0.50004   0.26042   0.00000  Uiso   1.00
C172   C     0.16661   0.49995   0.02180   0.00000  Uiso   1.00
C173   C     0.16673   0.50005   0.31154   0.00000  Uiso   1.00
C174   C     0.02175   0.48721   0.12250   0.00000  Uiso   1.00
C175   C     0.31158   0.51279   0.21084   0.00000  Uiso   1.00
C176   C     0.31143   0.48683   0.12268   0.00000  Uiso   1.00
H177   H     0.07616   0.46200   0.07731   0.00000  Uiso   1.00
H178   H     0.08234   0.37243   0.11122   0.00000  Uiso   1.00
H179   H     0.25100   0.62757   0.22211   0.00000  Uiso   1.00
H180   H     0.21347   0.62739   0.26711   0.00000  Uiso   1.00
H181   H     0.25717   0.53800   0.25603   0.00000  Uiso   1.00
H182   H     0.25762   0.48682   0.06878   0.00000  Uiso   1.00
H183   H     0.07572   0.51318   0.26455   0.00000  Uiso   1.00
H184   H     0.25101   0.37413   0.22211   0.00000  Uiso   1.00
H185   H     0.21350   0.37390   0.26711   0.00000  Uiso   1.00
H186   H     0.11984   0.62610   0.06622   0.00000  Uiso   1.00
H187   H     0.08233   0.62587   0.11122   0.00000  Uiso   1.00
H188   H     0.11986   0.37261   0.06623   0.00000  Uiso   1.00
N189   N     0.16667   0.61907   0.16667   0.00000  Uiso   1.00
N190   N     0.16667   0.38093   0.16667   0.00000  Uiso   1.00
N191   N     0.22008   0.38281   0.23016   0.00000  Uiso   1.00
N192   N     0.11325   0.61719   0.10317   0.00000  Uiso   1.00
N193   N     0.11327   0.38157   0.10318   0.00000  Uiso   1.00
N194   N     0.22006   0.61843   0.23015   0.00000  Uiso   1.00
O195   O     0.10559   0.53821   0.16666   0.00000  Uiso   1.00
O196   O     0.29970   0.50835   0.29806   0.00000  Uiso   1.00
O197   O     0.29824   0.43829   0.05404   0.00000  Uiso   1.00
O198   O     0.03509   0.56171   0.27929   0.00000  Uiso   1.00
O199   O     0.22774   0.46179   0.16667   0.00000  Uiso   1.00
O200   O     0.22774   0.53821   0.16667   0.00000  Uiso   1.00
O201   O     0.10559   0.46179   0.16666   0.00000  Uiso   1.00
O202   O     0.16667   0.53821   0.09511   0.00000  Uiso   1.00
O203   O     0.16666   0.46179   0.23822   0.00000  Uiso   1.00
O204   O     0.16666   0.53821   0.23822   0.00000  Uiso   1.00
O205   O     0.16667   0.46179   0.09511   0.00000  Uiso   1.00
O206   O     0.03363   0.49165   0.03528   0.00000  Uiso   1.00
Zn207  Zn    0.16667   0.55104   0.16667   0.00000  Uiso   1.00
Zn208  Zn    0.16667   0.44896   0.16667   0.00000  Uiso   1.00
C209   C     0.42023   0.49983   0.16671   0.00000  Uiso   1.00
C210   C     0.35524   0.51317   0.21065   0.00000  Uiso   1.00
C211   C     0.62400   0.50068   0.16644   0.00000  Uiso   1.00
C212   C     0.37600   0.49932   0.16690   0.00000  Uiso   1.00
C213   C     0.52615   0.35779   0.19775   0.00000  Uiso   1.00
C214   C     0.47385   0.64221   0.13559   0.00000  Uiso   1.00
C215   C     0.47386   0.35718   0.13559   0.00000  Uiso   1.00
C216   C     0.52614   0.64281   0.19774   0.00000  Uiso   1.00
C217   C     0.37940   0.47849   0.07577   0.00000  Uiso   1.00
C218   C     0.62060   0.52151   0.25756   0.00000  Uiso   1.00
C219   C     0.62023   0.47077   0.07851   0.00000  Uiso   1.00
C220   C     0.57977   0.50017   0.16662   0.00000  Uiso   1.00
C221   C     0.37977   0.52923   0.25483   0.00000  Uiso   1.00
C222   C     0.49986   0.49996   0.07292   0.00000  Uiso   1.00
C223   C     0.50014   0.50004   0.26042   0.00000  Uiso   1.00
C224   C     0.49994   0.49995   0.02180   0.00000  Uiso   1.00
C225   C     0.50006   0.50005   0.31154   0.00000  Uiso   1.00
C226   C     0.35509   0.48721   0.12250   0.00000  Uiso   1.00
C227   C     0.64491   0.51279   0.21084   0.00000  Uiso   1.00
C228   C     0.64476   0.48683   0.12268   0.00000  Uiso   1.00
H229   H     0.40949   0.46200   0.07731   0.00000  Uiso   1.00
H230   H     0.41567   0.37243   0.11122   0.00000  Uiso   1.00
H231   H     0.58433   0.62757   0.22211   0.00000  Uiso   1.00
H232   H     0.54680   0.62739   0.26711   0.00000  Uiso   1.00
H233   H     0.59051   0.53800   0.25603   0.00000  Uiso   1.00
H234   H     0.59095   0.48682   0.06878   0.00000  Uiso   1.00
H235   H     0.40905   0.51318   0.26455   0.00000  Uiso   1.00
H236   H     0.58434   0.37413   0.22211   0.00000  Uiso   1.00
H237   H     0.54683   0.37390   0.26711   0.00000  Uiso   1.00
H238   H     0.45317   0.62610   0.06622   0.00000  Uiso   1.00
H239   H     0.41566   0.62587   0.11122   0.00000  Uiso   1.00
H240   H     0.45320   0.37261   0.06623   0.00000  Uiso   1.00
N241   N     0.50000   0.61907   0.16667   0.00000  Uiso   1.00
N242   N     0.50000   0.38093   0.16667   0.00000  Uiso   1.00
N243   N     0.55341   0.38281   0.23016   0.00000  Uiso   1.00
N244   N     0.44659   0.61719   0.10317   0.00000  Uiso   1.00
N245   N     0.44660   0.38157   0.10318   0.00000  Uiso   1.00
N246   N     0.55340   0.61843   0.23015   0.00000  Uiso   1.00
O247   O     0.43892   0.53821   0.16666   0.00000  Uiso   1.00
O248   O     0.63304   0.50835   0.29806   0.00000  Uiso   1.00
O249   O     0.63158   0.43829   0.05404   0.00000  Uiso   1.00
O250   O     0.36842   0.56171   0.27929   0.00000  Uiso   1.00
O251   O     0.56108   0.46179   0.16667   0.00000  Uiso   1.00
O252   O     0.56108   0.53821   0.16667   0.00000  Uiso   1.00
O253   O     0.43892   0.46179   0.16666   0.00000  Uiso   1.00
O254   O     0.50000   0.53821   0.09511   0.00000  Uiso   1.00
O255   O     0.50000   0.46179   0.23822   0.00000  Uiso   1.00
O256   O     0.50000   0.53821   0.23822   0.00000  Uiso   1.00
O257   O     0.50000   0.46179   0.09511   0.00000  Uiso   1.00
O258   O     0.36696   0.49165   0.03528   0.00000  Uiso   1.00
Zn259  Zn    0.50000   0.55104   0.16667   0.00000  Uiso   1.00
Zn260  Zn    0.50000   0.44896   0.16667   0.00000  Uiso   1.00
C261   C     0.75357   0.49983   0.16671   0.00000  Uiso   1.00
C262   C     0.68858   0.51317   0.21065   0.00000  Uiso   1.00
C263   C     0.95733   0.50068   0.16644   0.00000  Uiso   1.00
C264   C     0.70934   0.49932   0.16690   0.00000  Uiso   1.00
C265   C     0.85948   0.35779   0.19775   0.00000  Uiso   1.00
C266   C     0.80719   0.64221   0.13559   0.00000  Uiso   1.00
C267   C     0.80719   0.35718   0.13559   0.00000  Uiso   1.00
C268   C     0.85948   0.64281   0.19774   0.00000  Uiso   1.00
C269   C     0.71273   0.47849   0.07577   0.00000  Uiso   1.00
C270   C     0.95394   0.52151   0.25756   0.00000  Uiso   1.00
C271   C     0.95356   0.47077   0.07851   0.00000  Uiso   1.00
C272   C     0.91310   0.50017   0.16662   0.00000  Uiso   1.00
C273   C     0.71311   0.52923   0.25483   0.00000  Uiso   1.00
C274   C     0.83319   0.49996   0.07292   0.00000  Uiso   1.00
C275   C     0.83348   0.50004   0.26042   0.00000  Uiso   1.00
C276   C     0.83327   0.49995   0.02180   0.00000  Uiso   1.00
C277   C     0.83339   0.50005   0.31154   0.00000  Uiso   1.00
C278   C     0.68842   0.48721   0.12250   0.00000  Uiso   1.00
C279   C     0.97825   0.51279   0.21084   0.00000  Uiso   1.00
C280   C     0.97809   0.48683   0.12268   0.00000  Uiso   1.00
H281   H     0.74283   0.46200   0.07731   0.00000  Uiso   1.00
H282   H     0.74901   0.37243   0.11122   0.00000  Uiso   1.00
H283   H     0.91766   0.62757   0.22211   0.00000  Uiso   1.00
H284   H     0.88014   0.62739   0.26711   0.00000  Uiso   1.00
H285   H     0.92384   0.53800   0.25603   0.00000  Uiso   1.00
H286   H     0.92428   0.48682   0.06878   0.00000  Uiso   1.00
H287   H     0.74238   0.51318   0.26455   0.00000  Uiso   1.00
H288   H     0.91767   0.37413   0.22211   0.00000  Uiso   1.00
H289   H     0.88016   0.37390   0.26711   0.00000  Uiso   1.00
H290   H     0.78650   0.62610   0.06622   0.00000  Uiso   1.00
H291   H     0.74899   0.62587   0.11122   0.00000  Uiso   1.00
H292   H     0.78653   0.37261   0.06623   0.00000  Uiso   1.00
N293   N     0.83333   0.61907   0.16667   0.00000  Uiso   1.00
N294   N     0.83333   0.38093   0.16667   0.00000  Uiso   1.00
N295   N     0.88675   0.38281   0.23016   0.00000  Uiso   1.00
N296   N     0.77992   0.61719   0.10317   0.00000  Uiso   1.00
N297   N     0.77994   0.38157   0.10318   0.00000  Uiso   1.00
N298   N     0.88673   0.61843   0.23015   0.00000  Uiso   1.00
O299   O     0.77226   0.53821   0.16666   0.00000  Uiso   1.00
O300   O     0.96637   0.50835   0.29806   0.00000  Uiso   1.00
O301   O     0.96491   0.43829   0.05404   0.00000  Uiso   1.00
O302   O     0.70176   0.56171   0.27929   0.00000  Uiso   1.00
O303   O     0.89441   0.46179   0.16667   0.00000  Uiso   1.00
O304   O     0.89441   0.53821   0.16667   0.00000  Uiso   1.00
O305   O     0.77226   0.46179   0.16666   0.00000  Uiso   1.00
O306   O     0.83334   0.53821   0.09511   0.00000  Uiso   1.00
O307   O     0.83333   0.46179   0.23822   0.00000  Uiso   1.00
O308   O     0.83333   0.53821   0.23822   0.00000  Uiso   1.00
O309   O     0.83334   0.46179   0.09511   0.00000  Uiso   1.00
O310   O     0.70030   0.49165   0.03528   0.00000  Uiso   1.00
Zn311  Zn    0.83333   0.55104   0.16667   0.00000  Uiso   1.00
Zn312  Zn    0.83333   0.44896   0.16667   0.00000  Uiso   1.00
C313   C     0.08690   0.83317   0.16671   0.00000  Uiso   1.00
C314   C     0.02191   0.84650   0.21065   0.00000  Uiso   1.00
C315   C     0.29066   0.83402   0.16644   0.00000  Uiso   1.00
C316   C     0.04267   0.83265   0.16690   0.00000  Uiso   1.00
C317   C     0.19281   0.69112   0.19775   0.00000  Uiso   1.00
C318   C     0.14052   0.97554   0.13559   0.00000  Uiso   1.00
C319   C     0.14052   0.69052   0.13559   0.00000  Uiso   1.00
C320   C     0.19281   0.97615   0.19774   0.00000  Uiso   1.00
C321   C     0.04606   0.81182   0.07577   0.00000  Uiso   1.00
C322   C     0.28727   0.85485   0.25756   0.00000  Uiso   1.00
C323   C     0.28689   0.80411   0.07851   0.00000  Uiso   1.00
C324   C     0.24643   0.83350   0.16662   0.00000  Uiso   1.00
C325   C     0.04644   0.86256   0.25483   0.00000  Uiso   1.00
C326   C     0.16652   0.83330   0.07292   0.00000  Uiso   1.00
C327   C     0.16681   0.83337   0.26042   0.00000  Uiso   1.00
C328   C     0.16661   0.83328   0.02180   0.00000  Uiso   1.00
C329   C     0.16673   0.83339   0.31154   0.00000  Uiso   1.00
C330   C     0.02175   0.82054   0.12250   0.00000  Uiso   1.00
C331   C     0.31158   0.84612   0.21084   0.00000  Uiso   1.00
C332   C     0.31143   0.82016   0.12268   0.00000  Uiso   1.00
H333   H     0.07616   0.79533   0.07731   0.00000  Uiso   1.00
H334   H     0.08234   0.70576   0.11122   0.00000  Uiso   1.00
H335   H     0.25100   0.96091   0.22211   0.00000  Uiso   1.00
H336   H     0.21347   0.96072   0.26711   0.00000  Uiso   1.00
H337   H     0.25717   0.87133   0.25603   0.00000  Uiso   1.00
H338   H     0.25762   0.82016   0.06878   0.00000  Uiso   1.00
H339   H     0.07572   0.84651   0.26455   0.00000  Uiso   1.00
H340   H     0.25101   0.70747   0.22211   0.00000  Uiso   1.00
H341   H     0.21350   0.70723   0.26711   0.00000  Uiso   1.00
H342   H     0.11984   0.95943   0.06622   0.00000  Uiso   1.00
H343   H     0.08233   0.95920   0.11122   0.00000  Uiso   1.00
H344   H     0.11986   0.70595   0.06623   0.00000  Uiso   1.00
N345   N     0.16667   0.95240   0.16667   0.00000  Uiso   1.00
N346   N     0.16667   0.71427   0.16667   0.00000  Uiso   1.00
N347   N     0.22008   0.71614   0.23016   0.00000  Uiso   1.00
N348   N     0.11325   0.95052   0.10317   0.00000  Uiso   1.00
N349   N     0.11327   0.71490   0.10318   0.00000  Uiso   1.00
N350   N     0.22006   0.95176   0.23015   0.00000  Uiso   1.00
O351   O     0.10559   0.87154   0.16666   0.00000  Uiso   1.00
O352   O     0.29970   0.84168   0.29806   0.00000  Uiso   1.00
O353   O     0.29824   0.77162   0.05404   0.00000  Uiso   1.00
O354   O     0.03509   0.89504   0.27929   0.00000  Uiso   1.00
O355   O     0.22774   0.79513   0.16667   0.00000  Uiso   1.00
O356   O     0.22774   0.87154   0.16667   0.00000  Uiso   1.00
O357   O     0.10559   0.79513   0.16666   0.00000  Uiso   1.00
O358   O     0.16667   0.87155   0.09511   0.00000  Uiso   1.00
O359   O     0.16666   0.79512   0.23822   0.00000  Uiso   1.00
O360   O     0.16666   0.87155   0.23822   0.00000  Uiso   1.00
O361   O     0.16667   0.79512   0.09511   0.00000  Uiso   1.00
O362   O     0.03363   0.82498   0.03528   0.00000  Uiso   1.00
Zn363  Zn    0.16667   0.88437   0.16667   0.00000  Uiso   1.00
Zn364  Zn    0.16667   0.78229   0.16667   0.00000  Uiso   1.00
C365   C     0.42023   0.83317   0.16671   0.00000  Uiso   1.00
C366   C     0.35524   0.84650   0.21065   0.00000  Uiso   1.00
C367   C     0.62400   0.83402   0.16644   0.00000  Uiso   1.00
C368   C     0.37600   0.83265   0.16690   0.00000  Uiso   1.00
C369   C     0.52615   0.69112   0.19775   0.00000  Uiso   1.00
C370   C     0.47385   0.97554   0.13559   0.00000  Uiso   1.00
C371   C     0.47386   0.69052   0.13559   0.00000  Uiso   1.00
C372   C     0.52614   0.97615   0.19774   0.00000  Uiso   1.00
C373   C     0.37940   0.81182   0.07577   0.00000  Uiso   1.00
C374   C     0.62060   0.85485   0.25756   0.00000  Uiso   1.00
C375   C     0.62023   0.80411   0.07851   0.00000  Uiso   1.00
C376   C     0.57977   0.83350   0.16662   0.00000  Uiso   1.00
C377   C     0.37977   0.86256   0.25483   0.00000  Uiso   1.00
C378   C     0.49986   0.83330   0.07292   0.00000  Uiso   1.00
C379   C     0.50014   0.83337   0.26042   0.00000  Uiso   1.00
C380   C     0.49994   0.83328   0.02180   0.00000  Uiso   1.00
C381   C     0.50006   0.83339   0.31154   0.00000  Uiso   1.00
C382   C     0.35509   0.82054   0.12250   0.00000  Uiso   1.00
C383   C     0.64491   0.84612   0.21084   0.00000  Uiso   1.00
C384   C     0.64476   0.82016   0.12268   0.00000  Uiso   1.00
H385   H     0.40949   0.79533   0.07731   0.00000  Uiso   1.00
H386   H     0.41567   0.70576   0.11122   0.00000  Uiso   1.00
H387   H     0.58433   0.96091   0.22211   0.00000  Uiso   1.00
H388   H     0.54680   0.96072   0.26711   0.00000  Uiso   1.00
H389   H     0.59051   0.87133   0.25603   0.00000  Uiso   1.00
H390   H     0.59095   0.82016   0.06878   0.00000  Uiso   1.00
H391   H     0.40905   0.84651   0.26455   0.00000  Uiso   1.00
H392   H     0.58434   0.70747   0.22211   0.00000  Uiso   1.00
H393   H     0.54683   0.70723   0.26711   0.00000  Uiso   1.00
H394   H     0.45317   0.95943   0.06622   0.00000  Uiso   1.00
H395   H     0.41566   0.95920   0.11122   0.00000  Uiso   1.00
H396   H     0.45320   0.70595   0.06623   0.00000  Uiso   1.00
N397   N     0.50000   0.95240   0.16667   0.00000  Uiso   1.00
N398   N     0.50000   0.71427   0.16667   0.00000  Uiso   1.00
N399   N     0.55341   0.71614   0.23016   0.00000  Uiso   1.00
N400   N     0.44659   0.95052   0.10317   0.00000  Uiso   1.00
N401   N     0.44660   0.71490   0.10318   0.00000  Uiso   1.00
N402   N     0.55340   0.95176   0.23015   0.00000  Uiso   1.00
O403   O     0.43892   0.87154   0.16666   0.00000  Uiso   1.00
O404   O     0.63304   0.84168   0.29806   0.00000  Uiso   1.00
O405   O     0.63158   0.77162   0.05404   0.00000  Uiso   1.00
O406   O     0.36842   0.89504   0.27929   0.00000  Uiso   1.00
O407   O     0.56108   0.79513   0.16667   0.00000  Uiso   1.00
O408   O     0.56108   0.87154   0.16667   0.00000  Uiso   1.00
O409   O     0.43892   0.79513   0.16666   0.00000  Uiso   1.00
O410   O     0.50000   0.87155   0.09511   0.00000  Uiso   1.00
O411   O     0.50000   0.79512   0.23822   0.00000  Uiso   1.00
O412   O     0.50000   0.87155   0.23822   0.00000  Uiso   1.00
O413   O     0.50000   0.79512   0.09511   0.00000  Uiso   1.00
O414   O     0.36696   0.82498   0.03528   0.00000  Uiso   1.00
Zn415  Zn    0.50000   0.88437   0.16667   0.00000  Uiso   1.00
Zn416  Zn    0.50000   0.78229   0.16667   0.00000  Uiso   1.00
C417   C     0.75357   0.83317   0.16671   0.00000  Uiso   1.00
C418   C     0.68858   0.84650   0.21065   0.00000  Uiso   1.00
C419   C     0.95733   0.83402   0.16644   0.00000  Uiso   1.00
C420   C     0.70934   0.83265   0.16690   0.00000  Uiso   1.00
C421   C     0.85948   0.69112   0.19775   0.00000  Uiso   1.00
C422   C     0.80719   0.97554   0.13559   0.00000  Uiso   1.00
C423   C     0.80719   0.69052   0.13559   0.00000  Uiso   1.00
C424   C     0.85948   0.97615   0.19774   0.00000  Uiso   1.00
C425   C     0.71273   0.81182   0.07577   0.00000  Uiso   1.00
C426   C     0.95394   0.85485   0.25756   0.00000  Uiso   1.00
C427   C     0.95356   0.80411   0.07851   0.00000  Uiso   1.00
C428   C     0.91310   0.83350   0.16662   0.00000  Uiso   1.00
C429   C     0.71311   0.86256   0.25483   0.00000  Uiso   1.00
C430   C     0.83319   0.83330   0.07292   0.00000  Uiso   1.00
C431   C     0.83348   0.83337   0.26042   0.00000  Uiso   1.00
C432   C     0.83327   0.83328   0.02180   0.00000  Uiso   1.00
C433   C     0.83339   0.83339   0.31154   0.00000  Uiso   1.00
C434   C     0.68842   0.82054   0.12250   0.00000  Uiso   1.00
C435   C     0.97825   0.84612   0.21084   0.00000  Uiso   1.00
C436   C     0.97809   0.82016   0.12268   0.00000  Uiso   1.00
H437   H     0.74283   0.79533   0.07731   0.00000  Uiso   1.00
H438   H     0.74901   0.70576   0.11122   0.00000  Uiso   1.00
H439   H     0.91766   0.96091   0.22211   0.00000  Uiso   1.00
H440   H     0.88014   0.96072   0.26711   0.00000  Uiso   1.00
H441   H     0.92384   0.87133   0.25603   0.00000  Uiso   1.00
H442   H     0.92428   0.82016   0.06878   0.00000  Uiso   1.00
H443   H     0.74238   0.84651   0.26455   0.00000  Uiso   1.00
H444   H     0.91767   0.70747   0.22211   0.00000  Uiso   1.00
H445   H     0.88016   0.70723   0.26711   0.00000  Uiso   1.00
H446   H     0.78650   0.95943   0.06622   0.00000  Uiso   1.00
H447   H     0.74899   0.95920   0.11122   0.00000  Uiso   1.00
H448   H     0.78653   0.70595   0.06623   0.00000  Uiso   1.00
N449   N     0.83333   0.95240   0.16667   0.00000  Uiso   1.00
N450   N     0.83333   0.71427   0.16667   0.00000  Uiso   1.00
N451   N     0.88675   0.71614   0.23016   0.00000  Uiso   1.00
N452   N     0.77992   0.95052   0.10317   0.00000  Uiso   1.00
N453   N     0.77994   0.71490   0.10318   0.00000  Uiso   1.00
N454   N     0.88673   0.95176   0.23015   0.00000  Uiso   1.00
O455   O     0.77226   0.87154   0.16666   0.00000  Uiso   1.00
O456   O     0.96637   0.84168   0.29806   0.00000  Uiso   1.00
O457   O     0.96491   0.77162   0.05404   0.00000  Uiso   1.00
O458   O     0.70176   0.89504   0.27929   0.00000  Uiso   1.00
O459   O     0.89441   0.79513   0.16667   0.00000  Uiso   1.00
O460   O     0.89441   0.87154   0.16667   0.00000  Uiso   1.00
O461   O     0.77226   0.79513   0.16666   0.00000  Uiso   1.00
O462   O     0.83334   0.87155   0.09511   0.00000  Uiso   1.00
O463   O     0.83333   0.79512   0.23822   0.00000  Uiso   1.00
O464   O     0.83333   0.87155   0.23822   0.00000  Uiso   1.00
O465   O     0.83334   0.79512   0.09511   0.00000  Uiso   1.00
O466   O     0.70030   0.82498   0.03528   0.00000  Uiso   1.00
Zn467  Zn    0.83333   0.88437   0.16667   0.00000  Uiso   1.00
Zn468  Zn    0.83333   0.78229   0.16667   0.00000  Uiso   1.00
C469   C     0.08690   0.16650   0.50004   0.00000  Uiso   1.00
C470   C     0.02191   0.17984   0.54399   0.00000  Uiso   1.00
C471   C     0.29066   0.16735   0.49977   0.00000  Uiso   1.00
C472   C     0.04267   0.16598   0.50023   0.00000  Uiso   1.00
C473   C     0.19281   0.02446   0.53108   0.00000  Uiso   1.00
C474   C     0.14052   0.30888   0.46892   0.00000  Uiso   1.00
C475   C     0.14052   0.02385   0.46892   0.00000  Uiso   1.00
C476   C     0.19281   0.30948   0.53108   0.00000  Uiso   1.00
C477   C     0.04606   0.14515   0.40910   0.00000  Uiso   1.00
C478   C     0.28727   0.18818   0.59090   0.00000  Uiso   1.00
C479   C     0.28689   0.13744   0.41184   0.00000  Uiso   1.00
C480   C     0.24643   0.16683   0.49996   0.00000  Uiso   1.00
C481   C     0.04644   0.19589   0.58816   0.00000  Uiso   1.00
C482   C     0.16652   0.16663   0.40625   0.00000  Uiso   1.00
C483   C     0.16681   0.16670   0.59375   0.00000  Uiso   1.00
C484   C     0.16661   0.16661   0.35513   0.00000  Uiso   1.00
C485   C     0.16673   0.16672   0.64487   0.00000  Uiso   1.00
C486   C     0.02175   0.15388   0.45583   0.00000  Uiso   1.00
C487   C     0.31158   0.17946   0.54417   0.00000  Uiso   1.00
C488   C     0.31143   0.15350   0.45601   0.00000  Uiso   1.00
H489   H     0.07616   0.12867   0.41064   0.00000  Uiso   1.00
H490   H     0.08234   0.03909   0.44455   0.00000  Uiso   1.00
H491   H     0.25100   0.29424   0.55545   0.00000  Uiso   1.00
H492   H     0.21347   0.29405   0.60044   0.00000  Uiso   1.00
H493   H     0.25717   0.20467   0.58936   0.00000  Uiso   1.00
H494   H     0.25762   0.15349   0.40211   0.00000  Uiso   1.00
H495   H     0.07572   0.17984   0.59789   0.00000  Uiso   1.00
H496   H     0.25101   0.04080   0.55544   0.00000  Uiso   1.00
H497   H     0.21350   0.04057   0.60044   0.00000  Uiso   1.00
H498   H     0.11984   0.29277   0.39956   0.00000  Uiso   1.00
H499   H     0.08233   0.29253   0.44456   0.00000  Uiso   1.00
H500   H     0.11986   0.03928   0.39956   0.00000  Uiso   1.00
N501   N     0.16667   0.28573   0.50000   0.00000  Uiso   1.00
N502   N     0.16667   0.04760   0.50000   0.00000  Uiso   1.00
N503   N     0.22008   0.04948   0.56349   0.00000  Uiso   1.00
N504   N     0.11325   0.28386   0.43651   0.00000  Uiso   1.00
N505   N     0.11327   0.04824   0.43651   0.00000  Uiso   1.00
N506   N     0.22006   0.28509   0.56349   0.00000  Uiso   1.00
O507   O     0.10559   0.20487   0.50000   0.00000  Uiso   1.00
O508   O     0.29970   0.17502   0.63139   0.00000  Uiso   1.00
O509   O     0.29824   0.10496   0.38737   0.00000  Uiso   1.00
O510   O     0.03509   0.22838   0.61263   0.00000  Uiso   1.00
O511   O     0.22774   0.12846   0.50000   0.00000  Uiso   1.00
O512   O     0.22774   0.20487   0.50000   0.00000  Uiso   1.00
O513   O     0.10559   0.12846   0.50000   0.00000  Uiso   1.00
O514   O     0.16667   0.20488   0.42845   0.00000  Uiso   1.00
O515   O     0.16666   0.12845   0.57155   0.00000  Uiso   1.00
O516   O     0.16666   0.20488   0.57155   0.00000  Uiso   1.00
O517   O     0.16667   0.12845   0.42845   0.00000  Uiso   1.00
O518   O     0.03363   0.15832   0.36861   0.00000  Uiso   1.00
Zn519  Zn    0.16667   0.21771   0.50000   0.00000  Uiso   1.00
Zn520  Zn    0.16667   0.11563   0.50000   0.00000  Uiso   1.00
C521   C     0.42023   0.16650   0.50004   0.00000  Uiso   1.00
C522   C     0.35524   0.17984   0.54399   0.00000  Uiso   1.00
C523   C     0.62400   0.16735   0.49977   0.00000  Uiso   1.00
C524   C     0.37600   0.16598   0.50023   0.00000  Uiso   1.00
C525   C     0.52615   0.02446   0.53108   0.00000  Uiso   1.00
C526   C     0.47385   0.30888   0.46892   0.00000  Uiso   1.00
C527   C     0.47386   0.02385   0.46892   0.00000  Uiso   1.00
C528   C     0.52614   0.30948   0.53108   0.00000  Uiso   1.00
C529   C     0.37940   0.14515   0.40910   0.00000  Uiso   1.00
C530   C     0.62060   0.18818   0.59090   0.00000  Uiso   1.00
C531   C     0.62023   0.13744   0.41184   0.00000  Uiso   1.00
C532   C     0.57977   0.16683   0.49996   0.00000  Uiso   1.00
C533   C     0.37977   0.19589   0.58816   0.00000  Uiso   1.00
C534   C     0.49986   0.16663   0.40625   0.00000  Uiso   1.00
C535   C     0.50014   0.16670   0.59375   0.00000  Uiso   1.00
C536   C     0.49994   0.16661   0.35513   0.00000  Uiso   1.00
C537   C     0.50006   0.16672   0.64487   0.00000  Uiso   1.00
C538   C     0.35509   0.15388   0.45583   0.00000  Uiso   1.00
C539   C     0.64491   0.17946   0.54417   0.00000  Uiso   1.00
C540   C     0.64476   0.15350   0.45601   0.00000  Uiso   1.00
H541   H     0.40949   0.12867   0.41064   0.00000  Uiso   1.00
H542   H     0.41567   0.03909   0.44455   0.00000  Uiso   1.00
H543   H     0.58433   0.29424   0.55545   0.00000  Uiso   1.00
H544   H     0.54680   0.29405   0.60044   0.00000  Uiso   1.00
H545   H     0.59051   0.20467   0.58936   0.00000  Uiso   1.00
H546   H     0.59095   0.15349   0.40211   0.00000  Uiso   1.00
H547   H     0.40905   0.17984   0.59789   0.00000  Uiso   1.00
H548   H     0.58434   0.04080   0.55544   0.00000  Uiso   1.00
H549   H     0.54683   0.04057   0.60044   0.00000  Uiso   1.00
H550   H     0.45317   0.29277   0.39956   0.00000  Uiso   1.00
H551   H     0.41566   0.29253   0.44456   0.00000  Uiso   1.00
H552   H     0.45320   0.03928   0.39956   0.00000  Uiso   1.00
N553   N     0.50000   0.28573   0.50000   0.00000  Uiso   1.00
N554   N     0.50000   0.04760   0.50000   0.00000  Uiso   1.00
N555   N     0.55341   0.04948   0.56349   0.00000  Uiso   1.00
N556   N     0.44659   0.28386   0.43651   0.00000  Uiso   1.00
N557   N     0.44660   0.04824   0.43651   0.00000  Uiso   1.00
N558   N     0.55340   0.28509   0.56349   0.00000  Uiso   1.00
O559   O     0.43892   0.20487   0.50000   0.00000  Uiso   1.00
O560   O     0.63304   0.17502   0.63139   0.00000  Uiso   1.00
O561   O     0.63158   0.10496   0.38737   0.00000  Uiso   1.00
O562   O     0.36842   0.22838   0.61263   0.00000  Uiso   1.00
O563   O     0.56108   0.12846   0.50000   0.00000  Uiso   1.00
O564   O     0.56108   0.20487   0.50000   0.00000  Uiso   1.00
O565   O     0.43892   0.12846   0.50000   0.00000  Uiso   1.00
O566   O     0.50000   0.20488   0.42845   0.00000  Uiso   1.00
O567   O     0.50000   0.12845   0.57155   0.00000  Uiso   1.00
O568   O     0.50000   0.20488   0.57155   0.00000  Uiso   1.00
O569   O     0.50000   0.12845   0.42845   0.00000  Uiso   1.00
O570   O     0.36696   0.15832   0.36861   0.00000  Uiso   1.00
Zn571  Zn    0.50000   0.21771   0.50000   0.00000  Uiso   1.00
Zn572  Zn    0.50000   0.11563   0.50000   0.00000  Uiso   1.00
C573   C     0.75357   0.16650   0.50004   0.00000  Uiso   1.00
C574   C     0.68858   0.17984   0.54399   0.00000  Uiso   1.00
C575   C     0.95733   0.16735   0.49977   0.00000  Uiso   1.00
C576   C     0.70934   0.16598   0.50023   0.00000  Uiso   1.00
C577   C     0.85948   0.02446   0.53108   0.00000  Uiso   1.00
C578   C     0.80719   0.30888   0.46892   0.00000  Uiso   1.00
C579   C     0.80719   0.02385   0.46892   0.00000  Uiso   1.00
C580   C     0.85948   0.30948   0.53108   0.00000  Uiso   1.00
C581   C     0.71273   0.14515   0.40910   0.00000  Uiso   1.00
C582   C     0.95394   0.18818   0.59090   0.00000  Uiso   1.00
C583   C     0.95356   0.13744   0.41184   0.00000  Uiso   1.00
C584   C     0.91310   0.16683   0.49996   0.00000  Uiso   1.00
C585   C     0.71311   0.19589   0.58816   0.00000  Uiso   1.00
C586   C     0.83319   0.16663   0.40625   0.00000  Uiso   1.00
C587   C     0.83348   0.16670   0.59375   0.00000  Uiso   1.00
C588   C     0.83327   0.16661   0.35513   0.00000  Uiso   1.00
C589   C     0.83339   0.16672   0.64487   0.00000  Uiso   1.00
C590   C     0.68842   0.15388   0.45583   0.00000  Uiso   1.00
C591   C     0.97825   0.17946   0.54417   0.00000  Uiso   1.00
C592   C     0.97809   0.15350   0.45601   0.00000  Uiso   1.00
H593   H     0.74283   0.12867   0.41064   0.00000  Uiso   1.00
H594   H     0.74901   0.03909   0.44455   0.00000  Uiso   1.00
H595   H     0.91766   0.29424   0.55545   0.00000  Uiso   1.00
H596   H     0.88014   0.29405   0.60044   0.00000  Uiso   1.00
H597   H     0.92384   0.20467   0.58936   0.00000  Uiso   1.00
H598   H     0.92428   0.15349   0.40211   0.00000  Uiso   1.00
H599   H     0.74238   0.17984   0.59789   0.00000  Uiso   1.00
H600   H     0.91767   0.04080   0.55544   0.00000  Uiso   1.00
H601   H     0.88016   0.04057   0.60044   0.00000  Uiso   1.00
H602   H     0.78650   0.29277   0.39956   0.00000  Uiso   1.00
H603   H     0.74899   0.29253   0.44456   0.00000  Uiso   1.00
H604   H     0.78653   0.03928   0.39956   0.00000  Uiso   1.00
N605   N     0.83333   0.28573   0.50000   0.00000  Uiso   1.00
N606   N     0.83333   0.04760   0.50000   0.00000  Uiso   1.00
N607   N     0.88675   0.04948   0.56349   0.00000  Uiso   1.00
N608   N     0.77992   0.28386   0.43651   0.00000  Uiso   1.00
N609   N     0.77994   0.04824   0.43651   0.00000  Uiso   1.00
N610   N     0.88673   0.28509   0.56349   0.00000  Uiso   1.00
O611   O     0.77226   0.20487   0.50000   0.00000  Uiso   1.00
O612   O     0.96637   0.17502   0.63139   0.00000  Uiso   1.00
O613   O     0.96491   0.10496   0.38737   0.00000  Uiso   1.00
O614   O     0.70176   0.22838   0.61263   0.00000  Uiso   1.00
O615   O     0.89441   0.12846   0.50000   0.00000  Uiso   1.00
O616   O     0.89441   0.20487   0.50000   0.00000  Uiso   1.00
O617   O     0.77226   0.12846   0.50000   0.00000  Uiso   1.00
O618   O     0.83334   0.20488   0.42845   0.00000  Uiso   1.00
O619   O     0.83333   0.12845   0.57155   0.00000  Uiso   1.00
O620   O     0.83333   0.20488   0.57155   0.00000  Uiso   1.00
O621   O     0.83334   0.12845   0.42845   0.00000  Uiso   1.00
O622   O     0.70030   0.15832   0.36861   0.00000  Uiso   1.00
Zn623  Zn    0.83333   0.21771   0.50000   0.00000  Uiso   1.00
Zn624  Zn    0.83333   0.11563   0.50000   0.00000  Uiso   1.00
C625   C     0.08690   0.49983   0.50004   0.00000  Uiso   1.00
C626   C     0.02191   0.51317   0.54399   0.00000  Uiso   1.00
C627   C     0.29066   0.50068   0.49977   0.00000  Uiso   1.00
C628   C     0.04267   0.49932   0.50023   0.00000  Uiso   1.00
C629   C     0.19281   0.35779   0.53108   0.00000  Uiso   1.00
C630   C     0.14052   0.64221   0.46892   0.00000  Uiso   1.00
C631   C     0.14052   0.35718   0.46892   0.00000  Uiso   1.00
C632   C     0.19281   0.64281   0.53108   0.00000  Uiso   1.00
C633   C     0.04606   0.47849   0.40910   0.00000  Uiso   1.00
C634   C     0.28727   0.52151   0.59090   0.00000  Uiso   1.00
C635   C     0.28689   0.47077   0.41184   0.00000  Uiso   1.00
C636   C     0.24643   0.50017   0.49996   0.00000  Uiso   1.00
C637   C     0.04644   0.52923   0.58816   0.00000  Uiso   1.00
C638   C     0.16652   0.49996   0.40625   0.00000  Uiso   1.00
C639   C     0.16681   0.50004   0.59375   0.00000  Uiso   1.00
C640   C     0.16661   0.49995   0.35513   0.00000  Uiso   1.00
C641   C     0.16673   0.50005   0.64487   0.00000  Uiso   1.00
C642   C     0.02175   0.48721   0.45583   0.00000  Uiso   1.00
C643   C     0.31158   0.51279   0.54417   0.00000  Uiso   1.00
C644   C     0.31143   0.48683   0.45601   0.00000  Uiso   1.00
H645   H     0.07616   0.46200   0.41064   0.00000  Uiso   1.00
H646   H     0.08234   0.37243   0.44455   0.00000  Uiso   1.00
H647   H     0.25100   0.62757   0.55545   0.00000  Uiso   1.00
H648   H     0.21347   0.62739   0.60044   0.00000  Uiso   1.00
H649   H     0.25717   0.53800   0.58936   0.00000  Uiso   1.00
H650   H     0.25762   0.48682   0.40211   0.00000  Uiso   1.00
H651   H     0.07572   0.51318   0.59789   0.00000  Uiso   1.00
H652   H     0.25101   0.37413   0.55544   0.00000  Uiso   1.00
H653   H     0.21350   0.37390   0.60044   0.00000  Uiso   1.00
H654   H     0.11984   0.62610   0.39956   0.00000  Uiso   1.00
H655   H     0.08233   0.62587   0.44456   0.00000  Uiso   1.00
H656   H     0.11986   0.37261   0.39956   0.00000  Uiso   1.00
N657   N     0.16667   0.61907   0.50000   0.00000  Uiso   1.00
N658   N     0.16667   0.38093   0.50000   0.00000  Uiso   1.00
N659   N     0.22008   0.38281   0.56349   0.00000  Uiso   1.00
N660   N     0.11325   0.61719   0.43651   0.00000  Uiso   1.00
N661   N     0.11327   0.38157   0.43651   0.00000  Uiso   1.00
N662   N     0.22006   0.61843   0.56349   0.00000  Uiso   1.00
O663   O     0.10559   0.53821   0.50000   0.00000  Uiso   1.00
O664   O     0.29970   0.50835   0.63139   0.00000  Uiso   1.00
O665   O     0.29824   0.43829   0.38737   0.00000  Uiso   1.00
O666   O     0.03509   0.56171   0.61263   0.00000  Uiso   1.00
O667   O     0.22774   0.46179   0.50000   0.00000  Uiso   1.00
O668   O     0.22774   0.53821   0.50000   0.00000  Uiso   1.00
O669   O     0.10559   0.46179   0.50000   0.00000  Uiso   1.00
O670   O     0.16667   0.53821   0.42845   0.00000  Uiso   1.00
O671   O     0.16666   0.46179   0.57155   0.00000  Uiso   1.00
O672   O     0.16666   0.53821   0.57155   0.00000  Uiso   1.00
O673   O     0.16667   0.46179   0.42845   0.00000  Uiso   1.00
O674   O     0.03363   0.49165   0.36861   0.00000  Uiso   1.00
Zn675  Zn    0.16667   0.55104   0.50000   0.00000  Uiso   1.00
Zn676  Zn    0.16667   0.44896   0.50000   0.00000  Uiso   1.00
C677   C     0.42023   0.49983   0.50004   0.00000  Uiso   1.00
C678   C     0.35524   0.51317   0.54399   0.00000  Uiso   1.00
C679   C     0.62400   0.50068   0.49977   0.00000  Uiso   1.00
C680   C     0.37600   0.49932   0.50023   0.00000  Uiso   1.00
C681   C     0.52615   0.35779   0.53108   0.00000  Uiso   1.00
C682   C     0.47385   0.64221   0.46892   0.00000  Uiso   1.00
C683   C     0.47386   0.35718   0.46892   0.00000  Uiso   1.00
C684   C     0.52614   0.64281   0.53108   0.00000  Uiso   1.00
C685   C     0.37940   0.47849   0.40910   0.00000  Uiso   1.00
C686   C     0.62060   0.52151   0.59090   0.00000  Uiso   1.00
C687   C     0.62023   0.47077   0.41184   0.00000  Uiso   1.00
C688   C     0.57977   0.50017   0.49996   0.00000  Uiso   1.00
C689   C     0.37977   0.52923   0.58816   0.00000  Uiso   1.00
C690   C     0.49986   0.49996   0.40625   0.00000  Uiso   1.00
C691   C     0.50014   0.50004   0.59375   0.00000  Uiso   1.00
C692   C     0.49994   0.49995   0.35513   0.00000  Uiso   1.00
C693   C     0.50006   0.50005   0.64487   0.00000  Uiso   1.00
C694   C     0.35509   0.48721   0.45583   0.00000  Uiso   1.00
C695   C     0.64491   0.51279   0.54417   0.00000  Uiso   1.00
C696   C     0.64476   0.48683   0.45601   0.00000  Uiso   1.00
H697   H     0.40949   0.46200   0.41064   0.00000  Uiso   1.00
H698   H     0.41567   0.37243   0.44455   0.00000  Uiso   1.00
H699   H     0.58433   0.62757   0.55545   0.00000  Uiso   1.00
H700   H     0.54680   0.62739   0.60044   0.00000  Uiso   1.00
H701   H     0.59051   0.53800   0.58936   0.00000  Uiso   1.00
H702   H     0.59095   0.48682   0.40211   0.00000  Uiso   1.00
H703   H     0.40905   0.51318   0.59789   0.00000  Uiso   1.00
H704   H     0.58434   0.37413   0.55544   0.00000  Uiso   1.00
H705   H     0.54683   0.37390   0.60044   0.00000  Uiso   1.00
H706   H     0.45317   0.62610   0.39956   0.00000  Uiso   1.00
H707   H     0.41566   0.62587   0.44456   0.00000  Uiso   1.00
H708   H     0.45320   0.37261   0.39956   0.00000  Uiso   1.00
N709   N     0.50000   0.61907   0.50000   0.00000  Uiso   1.00
N710   N     0.50000   0.38093   0.50000   0.00000  Uiso   1.00
N711   N     0.55341   0.38281   0.56349   0.00000  Uiso   1.00
N712   N     0.44659   0.61719   0.43651   0.00000  Uiso   1.00
N713   N     0.44660   0.38157   0.43651   0.00000  Uiso   1.00
N714   N     0.55340   0.61843   0.56349   0.00000  Uiso   1.00
O715   O     0.43892   0.53821   0.50000   0.00000  Uiso   1.00
O716   O     0.63304   0.50835   0.63139   0.00000  Uiso   1.00
O717   O     0.63158   0.43829   0.38737   0.00000  Uiso   1.00
O718   O     0.36842   0.56171   0.61263   0.00000  Uiso   1.00
O719   O     0.56108   0.46179   0.50000   0.00000  Uiso   1.00
O720   O     0.56108   0.53821   0.50000   0.00000  Uiso   1.00
O721   O     0.43892   0.46179   0.50000   0.00000  Uiso   1.00
O722   O     0.50000   0.53821   0.42845   0.00000  Uiso   1.00
O723   O     0.50000   0.46179   0.57155   0.00000  Uiso   1.00
O724   O     0.50000   0.53821   0.57155   0.00000  Uiso   1.00
O725   O     0.50000   0.46179   0.42845   0.00000  Uiso   1.00
O726   O     0.36696   0.49165   0.36861   0.00000  Uiso   1.00
Zn727  Zn    0.50000   0.55104   0.50000   0.00000  Uiso   1.00
Zn728  Zn    0.50000   0.44896   0.50000   0.00000  Uiso   1.00
C729   C     0.75357   0.49983   0.50004   0.00000  Uiso   1.00
C730   C     0.68858   0.51317   0.54399   0.00000  Uiso   1.00
C731   C     0.95733   0.50068   0.49977   0.00000  Uiso   1.00
C732   C     0.70934   0.49932   0.50023   0.00000  Uiso   1.00
C733   C     0.85948   0.35779   0.53108   0.00000  Uiso   1.00
C734   C     0.80719   0.64221   0.46892   0.00000  Uiso   1.00
C735   C     0.80719   0.35718   0.46892   0.00000  Uiso   1.00
C736   C     0.85948   0.64281   0.53108   0.00000  Uiso   1.00
C737   C     0.71273   0.47849   0.40910   0.00000  Uiso   1.00
C738   C     0.95394   0.52151   0.59090   0.00000  Uiso   1.00
C739   C     0.95356   0.47077   0.41184   0.00000  Uiso   1.00
C740   C     0.91310   0.50017   0.49996   0.00000  Uiso   1.00
C741   C     0.71311   0.52923   0.58816   0.00000  Uiso   1.00
C742   C     0.83319   0.49996   0.40625   0.00000  Uiso   1.00
C743   C     0.83348   0.50004   0.59375   0.00000  Uiso   1.00
C744   C     0.83327   0.49995   0.35513   0.00000  Uiso   1.00
C745   C     0.83339   0.50005   0.64487   0.00000  Uiso   1.00
C746   C     0.68842   0.48721   0.45583   0.00000  Uiso   1.00
C747   C     0.97825   0.51279   0.54417   0.00000  Uiso   1.00
C748   C     0.97809   0.48683   0.45601   0.00000  Uiso   1.00
H749   H     0.74283   0.46200   0.41064   0.00000  Uiso   1.00
H750   H     0.74901   0.37243   0.44455   0.00000  Uiso   1.00
H751   H     0.91766   0.62757   0.55545   0.00000  Uiso   1.00
H752   H     0.88014   0.62739   0.60044   0.00000  Uiso   1.00
H753   H     0.92384   0.53800   0.58936   0.00000  Uiso   1.00
H754   H     0.92428   0.48682   0.40211   0.00000  Uiso   1.00
H755   H     0.74238   0.51318   0.59789   0.00000  Uiso   1.00
H756   H     0.91767   0.37413   0.55544   0.00000  Uiso   1.00
H757   H     0.88016   0.37390   0.60044   0.00000  Uiso   1.00
H758   H     0.78650   0.62610   0.39956   0.00000  Uiso   1.00
H759   H     0.74899   0.62587   0.44456   0.00000  Uiso   1.00
H760   H     0.78653   0.37261   0.39956   0.00000  Uiso   1.00
N761   N     0.83333   0.61907   0.50000   0.00000  Uiso   1.00
N762   N     0.83333   0.38093   0.50000   0.00000  Uiso   1.00
N763   N     0.88675   0.38281   0.56349   0.00000  Uiso   1.00
N764   N     0.77992   0.61719   0.43651   0.00000  Uiso   1.00
N765   N     0.77994   0.38157   0.43651   0.00000  Uiso   1.00
N766   N     0.88673   0.61843   0.56349   0.00000  Uiso   1.00
O767   O     0.77226   0.53821   0.50000   0.00000  Uiso   1.00
O768   O     0.96637   0.50835   0.63139   0.00000  Uiso   1.00
O769   O     0.96491   0.43829   0.38737   0.00000  Uiso   1.00
O770   O     0.70176   0.56171   0.61263   0.00000  Uiso   1.00
O771   O     0.89441   0.46179   0.50000   0.00000  Uiso   1.00
O772   O     0.89441   0.53821   0.50000   0.00000  Uiso   1.00
O773   O     0.77226   0.46179   0.50000   0.00000  Uiso   1.00
O774   O     0.83334   0.53821   0.42845   0.00000  Uiso   1.00
O775   O     0.83333   0.46179   0.57155   0.00000  Uiso   1.00
O776   O     0.83333   0.53821   0.57155   0.00000  Uiso   1.00
O777   O     0.83334   0.46179   0.42845   0.00000  Uiso   1.00
O778   O     0.70030   0.49165   0.36861   0.00000  Uiso   1.00
Zn779  Zn    0.83333   0.55104   0.50000   0.00000  Uiso   1.00
Zn780  Zn    0.83333   0.44896   0.50000   0.00000  Uiso   1.00
C781   C     0.08690   0.83317   0.50004   0.00000  Uiso   1.00
C782   C     0.02191   0.84650   0.54399   0.00000  Uiso   1.00
C783   C     0.29066   0.83402   0.49977   0.00000  Uiso   1.00
C784   C     0.04267   0.83265   0.50023   0.00000  Uiso   1.00
C785   C     0.19281   0.69112   0.53108   0.00000  Uiso   1.00
C786   C     0.14052   0.97554   0.46892   0.00000  Uiso   1.00
C787   C     0.14052   0.69052   0.46892   0.00000  Uiso   1.00
C788   C     0.19281   0.97615   0.53108   0.00000  Uiso   1.00
C789   C     0.04606   0.81182   0.40910   0.00000  Uiso   1.00
C790   C     0.28727   0.85485   0.59090   0.00000  Uiso   1.00
C791   C     0.28689   0.80411   0.41184   0.00000  Uiso   1.00
C792   C     0.24643   0.83350   0.49996   0.00000  Uiso   1.00
C793   C     0.04644   0.86256   0.58816   0.00000  Uiso   1.00
C794   C     0.16652   0.83330   0.40625   0.00000  Uiso   1.00
C795   C     0.16681   0.83337   0.59375   0.00000  Uiso   1.00
C796   C     0.16661   0.83328   0.35513   0.00000  Uiso   1.00
C797   C     0.16673   0.83339   0.64487   0.00000  Uiso   1.00
C798   C     0.02175   0.82054   0.45583   0.00000  Uiso   1.00
C799   C     0.31158   0.84612   0.54417   0.00000  Uiso   1.00
C800   C     0.31143   0.82016   0.45601   0.00000  Uiso   1.00
H801   H     0.07616   0.79533   0.41064   0.00000  Uiso   1.00
H802   H     0.08234   0.70576   0.44455   0.00000  Uiso   1.00
H803   H     0.25100   0.96091   0.55545   0.00000  Uiso   1.00
H804   H     0.21347   0.96072   0.60044   0.00000  Uiso   1.00
H805   H     0.25717   0.87133   0.58936   0.00000  Uiso   1.00
H806   H     0.25762   0.82016   0.40211   0.00000  Uiso   1.00
H807   H     0.07572   0.84651   0.59789   0.00000  Uiso   1.00
H808   H     0.25101   0.70747   0.55544   0.00000  Uiso   1.00
H809   H     0.21350   0.70723   0.60044   0.00000  Uiso   1.00
H810   H     0.11984   0.95943   0.39956   0.00000  Uiso   1.00
H811   H     0.08233   0.95920   0.44456   0.00000  Uiso   1.00
H812   H     0.11986   0.70595   0.39956   0.00000  Uiso   1.00
N813   N     0.16667   0.95240   0.50000   0.00000  Uiso   1.00
N814   N     0.16667   0.71427   0.50000   0.00000  Uiso   1.00
N815   N     0.22008   0.71614   0.56349   0.00000  Uiso   1.00
N816   N     0.11325   0.95052   0.43651   0.00000  Uiso   1.00
N817   N     0.11327   0.71490   0.43651   0.00000  Uiso   1.00
N818   N     0.22006   0.95176   0.56349   0.00000  Uiso   1.00
O819   O     0.10559   0.87154   0.50000   0.00000  Uiso   1.00
O820   O     0.29970   0.84168   0.63139   0.00000  Uiso   1.00
O821   O     0.29824   0.77162   0.38737   0.00000  Uiso   1.00
O822   O     0.03509   0.89504   0.61263   0.00000  Uiso   1.00
O823   O     0.22774   0.79513   0.50000   0.00000  Uiso   1.00
O824   O     0.22774   0.87154   0.50000   0.00000  Uiso   1.00
O825   O     0.10559   0.79513   0.50000   0.00000  Uiso   1.00
O826   O     0.16667   0.87155   0.42845   0.00000  Uiso   1.00
O827   O     0.16666   0.79512   0.57155   0.00000  Uiso   1.00
O828   O     0.16666   0.87155   0.57155   0.00000  Uiso   1.00
O829   O     0.16667   0.79512   0.42845   0.00000  Uiso   1.00
O830   O     0.03363   0.82498   0.36861   0.00000  Uiso   1.00
Zn831  Zn    0.16667   0.88437   0.50000   0.00000  Uiso   1.00
Zn832  Zn    0.16667   0.78229   0.50000   0.00000  Uiso   1.00
C833   C     0.42023   0.83317   0.50004   0.00000  Uiso   1.00
C834   C     0.35524   0.84650   0.54399   0.00000  Uiso   1.00
C835   C     0.62400   0.83402   0.49977   0.00000  Uiso   1.00
C836   C     0.37600   0.83265   0.50023   0.00000  Uiso   1.00
C837   C     0.52615   0.69112   0.53108   0.00000  Uiso   1.00
C838   C     0.47385   0.97554   0.46892   0.00000  Uiso   1.00
C839   C     0.47386   0.69052   0.46892   0.00000  Uiso   1.00
C840   C     0.52614   0.97615   0.53108   0.00000  Uiso   1.00
C841   C     0.37940   0.81182   0.40910   0.00000  Uiso   1.00
C842   C     0.62060   0.85485   0.59090   0.00000  Uiso   1.00
C843   C     0.62023   0.80411   0.41184   0.00000  Uiso   1.00
C844   C     0.57977   0.83350   0.49996   0.00000  Uiso   1.00
C845   C     0.37977   0.86256   0.58816   0.00000  Uiso   1.00
C846   C     0.49986   0.83330   0.40625   0.00000  Uiso   1.00
C847   C     0.50014   0.83337   0.59375   0.00000  Uiso   1.00
C848   C     0.49994   0.83328   0.35513   0.00000  Uiso   1.00
C849   C     0.50006   0.83339   0.64487   0.00000  Uiso   1.00
C850   C     0.35509   0.82054   0.45583   0.00000  Uiso   1.00
C851   C     0.64491   0.84612   0.54417   0.00000  Uiso   1.00
C852   C     0.64476   0.82016   0.45601   0.00000  Uiso   1.00
H853   H     0.40949   0.79533   0.41064   0.00000  Uiso   1.00
H854   H     0.41567   0.70576   0.44455   0.00000  Uiso   1.00
H855   H     0.58433   0.96091   0.55545   0.00000  Uiso   1.00
H856   H     0.54680   0.96072   0.60044   0.00000  Uiso   1.00
H857   H     0.59051   0.87133   0.58936   0.00000  Uiso   1.00
H858   H     0.59095   0.82016   0.40211   0.00000  Uiso   1.00
H859   H     0.40905   0.84651   0.59789   0.00000  Uiso   1.00
H860   H     0.58434   0.70747   0.55544   0.00000  Uiso   1.00
H861   H     0.54683   0.70723   0.60044   0.00000  Uiso   1.00
H862   H     0.45317   0.95943   0.39956   0.00000  Uiso   1.00
H863   H     0.41566   0.95920   0.44456   0.00000  Uiso   1.00
H864   H     0.45320   0.70595   0.39956   0.00000  Uiso   1.00
N865   N     0.50000   0.95240   0.50000   0.00000  Uiso   1.00
N866   N     0.50000   0.71427   0.50000   0.00000  Uiso   1.00
N867   N     0.55341   0.71614   0.56349   0.00000  Uiso   1.00
N868   N     0.44659   0.95052   0.43651   0.00000  Uiso   1.00
N869   N     0.44660   0.71490   0.43651   0.00000  Uiso   1.00
N870   N     0.55340   0.95176   0.56349   0.00000  Uiso   1.00
O871   O     0.43892   0.87154   0.50000   0.00000  Uiso   1.00
O872   O     0.63304   0.84168   0.63139   0.00000  Uiso   1.00
O873   O     0.63158   0.77162   0.38737   0.00000  Uiso   1.00
O874   O     0.36842   0.89504   0.61263   0.00000  Uiso   1.00
O875   O     0.56108   0.79513   0.50000   0.00000  Uiso   1.00
O876   O     0.56108   0.87154   0.50000   0.00000  Uiso   1.00
O877   O     0.43892   0.79513   0.50000   0.00000  Uiso   1.00
O878   O     0.50000   0.87155   0.42845   0.00000  Uiso   1.00
O879   O     0.50000   0.79512   0.57155   0.00000  Uiso   1.00
O880   O     0.50000   0.87155   0.57155   0.00000  Uiso   1.00
O881   O     0.50000   0.79512   0.42845   0.00000  Uiso   1.00
O882   O     0.36696   0.82498   0.36861   0.00000  Uiso   1.00
Zn883  Zn    0.50000   0.88437   0.50000   0.00000  Uiso   1.00
Zn884  Zn    0.50000   0.78229   0.50000   0.00000  Uiso   1.00
C885   C     0.75357   0.83317   0.50004   0.00000  Uiso   1.00
C886   C     0.68858   0.84650   0.54399   0.00000  Uiso   1.00
C887   C     0.95733   0.83402   0.49977   0.00000  Uiso   1.00
C888   C     0.70934   0.83265   0.50023   0.00000  Uiso   1.00
C889   C     0.85948   0.69112   0.53108   0.00000  Uiso   1.00
C890   C     0.80719   0.97554   0.46892   0.00000  Uiso   1.00
C891   C     0.80719   0.69052   0.46892   0.00000  Uiso   1.00
C892   C     0.85948   0.97615   0.53108   0.00000  Uiso   1.00
C893   C     0.71273   0.81182   0.40910   0.00000  Uiso   1.00
C894   C     0.95394   0.85485   0.59090   0.00000  Uiso   1.00
C895   C     0.95356   0.80411   0.41184   0.00000  Uiso   1.00
C896   C     0.91310   0.83350   0.49996   0.00000  Uiso   1.00
C897   C     0.71311   0.86256   0.58816   0.00000  Uiso   1.00
C898   C     0.83319   0.83330   0.40625   0.00000  Uiso   1.00
C899   C     0.83348   0.83337   0.59375   0.00000  Uiso   1.00
C900   C     0.83327   0.83328   0.35513   0.00000  Uiso   1.00
C901   C     0.83339   0.83339   0.64487   0.00000  Uiso   1.00
C902   C     0.68842   0.82054   0.45583   0.00000  Uiso   1.00
C903   C     0.97825   0.84612   0.54417   0.00000  Uiso   1.00
C904   C     0.97809   0.82016   0.45601   0.00000  Uiso   1.00
H905   H     0.74283   0.79533   0.41064   0.00000  Uiso   1.00
H906   H     0.74901   0.70576   0.44455   0.00000  Uiso   1.00
H907   H     0.91766   0.96091   0.55545   0.00000  Uiso   1.00
H908   H     0.88014   0.96072   0.60044   0.00000  Uiso   1.00
H909   H     0.92384   0.87133   0.58936   0.00000  Uiso   1.00
H910   H     0.92428   0.82016   0.40211   0.00000  Uiso   1.00
H911   H     0.74238   0.84651   0.59789   0.00000  Uiso   1.00
H912   H     0.91767   0.70747   0.55544   0.00000  Uiso   1.00
H913   H     0.88016   0.70723   0.60044   0.00000  Uiso   1.00
H914   H     0.78650   0.95943   0.39956   0.00000  Uiso   1.00
H915   H     0.74899   0.95920   0.44456   0.00000  Uiso   1.00
H916   H     0.78653   0.70595   0.39956   0.00000  Uiso   1.00
N917   N     0.83333   0.95240   0.50000   0.00000  Uiso   1.00
N918   N     0.83333   0.71427   0.50000   0.00000  Uiso   1.00
N919   N     0.88675   0.71614   0.56349   0.00000  Uiso   1.00
N920   N     0.77992   0.95052   0.43651   0.00000  Uiso   1.00
N921   N     0.77994   0.71490   0.43651   0.00000  Uiso   1.00
N922   N     0.88673   0.95176   0.56349   0.00000  Uiso   1.00
O923   O     0.77226   0.87154   0.50000   0.00000  Uiso   1.00
O924   O     0.96637   0.84168   0.63139   0.00000  Uiso   1.00
O925   O     0.96491   0.77162   0.38737   0.00000  Uiso   1.00
O926   O     0.70176   0.89504   0.61263   0.00000  Uiso   1.00
O927   O     0.89441   0.79513   0.50000   0.00000  Uiso   1.00
O928   O     0.89441   0.87154   0.50000   0.00000  Uiso   1.00
O929   O     0.77226   0.79513   0.50000   0.00000  Uiso   1.00
O930   O     0.83334   0.87155   0.42845   0.00000  Uiso   1.00
O931   O     0.83333   0.79512   0.57155   0.00000  Uiso   1.00
O932   O     0.83333   0.87155   0.57155   0.00000  Uiso   1.00
O933   O     0.83334   0.79512   0.42845   0.00000  Uiso   1.00
O934   O     0.70030   0.82498   0.36861   0.00000  Uiso   1.00
Zn935  Zn    0.83333   0.88437   0.50000   0.00000  Uiso   1.00
Zn936  Zn    0.83333   0.78229   0.50000   0.00000  Uiso   1.00
C937   C     0.08690   0.16650   0.83338   0.00000  Uiso   1.00
C938   C     0.02191   0.17984   0.87732   0.00000  Uiso   1.00
C939   C     0.29066   0.16735   0.83310   0.00000  Uiso   1.00
C940   C     0.04267   0.16598   0.83356   0.00000  Uiso   1.00
C941   C     0.19281   0.02446   0.86441   0.00000  Uiso   1.00
C942   C     0.14052   0.30888   0.80225   0.00000  Uiso   1.00
C943   C     0.14052   0.02385   0.80226   0.00000  Uiso   1.00
C944   C     0.19281   0.30948   0.86441   0.00000  Uiso   1.00
C945   C     0.04606   0.14515   0.74244   0.00000  Uiso   1.00
C946   C     0.28727   0.18818   0.92423   0.00000  Uiso   1.00
C947   C     0.28689   0.13744   0.74517   0.00000  Uiso   1.00
C948   C     0.24643   0.16683   0.83329   0.00000  Uiso   1.00
C949   C     0.04644   0.19589   0.92149   0.00000  Uiso   1.00
C950   C     0.16652   0.16663   0.73958   0.00000  Uiso   1.00
C951   C     0.16681   0.16670   0.92708   0.00000  Uiso   1.00
C952   C     0.16661   0.16661   0.68846   0.00000  Uiso   1.00
C953   C     0.16673   0.16672   0.97820   0.00000  Uiso   1.00
C954   C     0.02175   0.15388   0.78916   0.00000  Uiso   1.00
C955   C     0.31158   0.17946   0.87750   0.00000  Uiso   1.00
C956   C     0.31143   0.15350   0.78934   0.00000  Uiso   1.00
H957   H     0.07616   0.12867   0.74397   0.00000  Uiso   1.00
H958   H     0.08234   0.03909   0.77789   0.00000  Uiso   1.00
H959   H     0.25100   0.29424   0.88878   0.00000  Uiso   1.00
H960   H     0.21347   0.29405   0.93377   0.00000  Uiso   1.00
H961   H     0.25717   0.20467   0.92269   0.00000  Uiso   1.00
H962   H     0.25762   0.15349   0.73545   0.00000  Uiso   1.00
H963   H     0.07572   0.17984   0.93122   0.00000  Uiso   1.00
H964   H     0.25101   0.04080   0.88877   0.00000  Uiso   1.00
H965   H     0.21350   0.04057   0.93378   0.00000  Uiso   1.00
H966   H     0.11984   0.29277   0.73289   0.00000  Uiso   1.00
H967   H     0.08233   0.29253   0.77789   0.00000  Uiso   1.00
H968   H     0.11986   0.03928   0.73289   0.00000  Uiso   1.00
N969   N     0.16667   0.28573   0.83333   0.00000  Uiso   1.00
N970   N     0.16667   0.04760   0.83333   0.00000  Uiso   1.00
N971   N     0.22008   0.04948   0.89683   0.00000  Uiso   1.00
N972   N     0.11325   0.28386   0.76984   0.00000  Uiso   1.00
N973   N     0.11327   0.04824   0.76985   0.00000  Uiso   1.00
N974   N     0.22006   0.28509   0.89682   0.00000  Uiso   1.00
O975   O     0.10559   0.20487   0.83333   0.00000  Uiso   1.00
O976   O     0.29970   0.17502   0.96472   0.00000  Uiso   1.00
O977   O     0.29824   0.10496   0.72071   0.00000  Uiso   1.00
O978   O     0.03509   0.22838   0.94596   0.00000  Uiso   1.00
O979   O     0.22774   0.12846   0.83334   0.00000  Uiso   1.00
O980   O     0.22774   0.20487   0.83334   0.00000  Uiso   1.00
O981   O     0.10559   0.12846   0.83333   0.00000  Uiso   1.00
O982   O     0.16667   0.20488   0.76178   0.00000  Uiso   1.00
O983   O     0.16666   0.12845   0.90489   0.00000  Uiso   1.00
O984   O     0.16666   0.20488   0.90489   0.00000  Uiso   1.00
O985   O     0.16667   0.12845   0.76178   0.00000  Uiso   1.00
O986   O     0.03363   0.15832   0.70194   0.00000  Uiso   1.00
Zn987  Zn    0.16667   0.21771   0.83333   0.00000  Uiso   1.00
Zn988  Zn    0.16667   0.11563   0.83333   0.00000  Uiso   1.00
C989   C     0.42023   0.16650   0.83338   0.00000  Uiso   1.00
C990   C     0.35524   0.17984   0.87732   0.00000  Uiso   1.00
C991   C     0.62400   0.16735   0.83310   0.00000  Uiso   1.00
C992   C     0.37600   0.16598   0.83356   0.00000  Uiso   1.00
C993   C     0.52615   0.02446   0.86441   0.00000  Uiso   1.00
C994   C     0.47385   0.30888   0.80225   0.00000  Uiso   1.00
C995   C     0.47386   0.02385   0.80226   0.00000  Uiso   1.00
C996   C     0.52614   0.30948   0.86441   0.00000  Uiso   1.00
C997   C     0.37940   0.14515   0.74244   0.00000  Uiso   1.00
C998   C     0.62060   0.18818   0.92423   0.00000  Uiso   1.00
C999   C     0.62023   0.13744   0.74517   0.00000  Uiso   1.00
C1000  C     0.57977   0.16683   0.83329   0.00000  Uiso   1.00
C1001  C     0.37977   0.19589   0.92149   0.00000  Uiso   1.00
C1002  C     0.49986   0.16663   0.73958   0.00000  Uiso   1.00
C1003  C     0.50014   0.16670   0.92708   0.00000  Uiso   1.00
C1004  C     0.49994   0.16661   0.68846   0.00000  Uiso   1.00
C1005  C     0.50006   0.16672   0.97820   0.00000  Uiso   1.00
C1006  C     0.35509   0.15388   0.78916   0.00000  Uiso   1.00
C1007  C     0.64491   0.17946   0.87750   0.00000  Uiso   1.00
C1008  C     0.64476   0.15350   0.78934   0.00000  Uiso   1.00
H1009  H     0.40949   0.12867   0.74397   0.00000  Uiso   1.00
H1010  H     0.41567   0.03909   0.77789   0.00000  Uiso   1.00
H1011  H     0.58433   0.29424   0.88878   0.00000  Uiso   1.00
H1012  H     0.54680   0.29405   0.93377   0.00000  Uiso   1.00
H1013  H     0.59051   0.20467   0.92269   0.00000  Uiso   1.00
H1014  H     0.59095   0.15349   0.73545   0.00000  Uiso   1.00
H1015  H     0.40905   0.17984   0.93122   0.00000  Uiso   1.00
H1016  H     0.58434   0.04080   0.88877   0.00000  Uiso   1.00
H1017  H     0.54683   0.04057   0.93378   0.00000  Uiso   1.00
H1018  H     0.45317   0.29277   0.73289   0.00000  Uiso   1.00
H1019  H     0.41566   0.29253   0.77789   0.00000  Uiso   1.00
H1020  H     0.45320   0.03928   0.73289   0.00000  Uiso   1.00
N1021  N     0.50000   0.28573   0.83333   0.00000  Uiso   1.00
N1022  N     0.50000   0.04760   0.83333   0.00000  Uiso   1.00
N1023  N     0.55341   0.04948   0.89683   0.00000  Uiso   1.00
N1024  N     0.44659   0.28386   0.76984   0.00000  Uiso   1.00
N1025  N     0.44660   0.04824   0.76985   0.00000  Uiso   1.00
N1026  N     0.55340   0.28509   0.89682   0.00000  Uiso   1.00
O1027  O     0.43892   0.20487   0.83333   0.00000  Uiso   1.00
O1028  O     0.63304   0.17502   0.96472   0.00000  Uiso   1.00
O1029  O     0.63158   0.10496   0.72071   0.00000  Uiso   1.00
O1030  O     0.36842   0.22838   0.94596   0.00000  Uiso   1.00
O1031  O     0.56108   0.12846   0.83334   0.00000  Uiso   1.00
O1032  O     0.56108   0.20487   0.83334   0.00000  Uiso   1.00
O1033  O     0.43892   0.12846   0.83333   0.00000  Uiso   1.00
O1034  O     0.50000   0.20488   0.76178   0.00000  Uiso   1.00
O1035  O     0.50000   0.12845   0.90489   0.00000  Uiso   1.00
O1036  O     0.50000   0.20488   0.90489   0.00000  Uiso   1.00
O1037  O     0.50000   0.12845   0.76178   0.00000  Uiso   1.00
O1038  O     0.36696   0.15832   0.70194   0.00000  Uiso   1.00
Zn1039 Zn    0.50000   0.21771   0.83333   0.00000  Uiso   1.00
Zn1040 Zn    0.50000   0.11563   0.83333   0.00000  Uiso   1.00
C1041  C     0.75357   0.16650   0.83338   0.00000  Uiso   1.00
C1042  C     0.68858   0.17984   0.87732   0.00000  Uiso   1.00
C1043  C     0.95733   0.16735   0.83310   0.00000  Uiso   1.00
C1044  C     0.70934   0.16598   0.83356   0.00000  Uiso   1.00
C1045  C     0.85948   0.02446   0.86441   0.00000  Uiso   1.00
C1046  C     0.80719   0.30888   0.80225   0.00000  Uiso   1.00
C1047  C     0.80719   0.02385   0.80226   0.00000  Uiso   1.00
C1048  C     0.85948   0.30948   0.86441   0.00000  Uiso   1.00
C1049  C     0.71273   0.14515   0.74244   0.00000  Uiso   1.00
C1050  C     0.95394   0.18818   0.92423   0.00000  Uiso   1.00
C1051  C     0.95356   0.13744   0.74517   0.00000  Uiso   1.00
C1052  C     0.91310   0.16683   0.83329   0.00000  Uiso   1.00
C1053  C     0.71311   0.19589   0.92149   0.00000  Uiso   1.00
C1054  C     0.83319   0.16663   0.73958   0.00000  Uiso   1.00
C1055  C     0.83348   0.16670   0.92708   0.00000  Uiso   1.00
C1056  C     0.83327   0.16661   0.68846   0.00000  Uiso   1.00
C1057  C     0.83339   0.16672   0.97820   0.00000  Uiso   1.00
C1058  C     0.68842   0.15388   0.78916   0.00000  Uiso   1.00
C1059  C     0.97825   0.17946   0.87750   0.00000  Uiso   1.00
C1060  C     0.97809   0.15350   0.78934   0.00000  Uiso   1.00
H1061  H     0.74283   0.12867   0.74397   0.00000  Uiso   1.00
H1062  H     0.74901   0.03909   0.77789   0.00000  Uiso   1.00
H1063  H     0.91766   0.29424   0.88878   0.00000  Uiso   1.00
H1064  H     0.88014   0.29405   0.93377   0.00000  Uiso   1.00
H1065  H     0.92384   0.20467   0.92269   0.00000  Uiso   1.00
H1066  H     0.92428   0.15349   0.73545   0.00000  Uiso   1.00
H1067  H     0.74238   0.17984   0.93122   0.00000  Uiso   1.00
H1068  H     0.91767   0.04080   0.88877   0.00000  Uiso   1.00
H1069  H     0.88016   0.04057   0.93378   0.00000  Uiso   1.00
H1070  H     0.78650   0.29277   0.73289   0.00000  Uiso   1.00
H1071  H     0.74899   0.29253   0.77789   0.00000  Uiso   1.00
H1072  H     0.78653   0.03928   0.73289   0.00000  Uiso   1.00
N1073  N     0.83333   0.28573   0.83333   0.00000  Uiso   1.00
N1074  N     0.83333   0.04760   0.83333   0.00000  Uiso   1.00
N1075  N     0.88675   0.04948   0.89683   0.00000  Uiso   1.00
N1076  N     0.77992   0.28386   0.76984   0.00000  Uiso   1.00
N1077  N     0.77994   0.04824   0.76985   0.00000  Uiso   1.00
N1078  N     0.88673   0.28509   0.89682   0.00000  Uiso   1.00
O1079  O     0.77226   0.20487   0.83333   0.00000  Uiso   1.00
O1080  O     0.96637   0.17502   0.96472   0.00000  Uiso   1.00
O1081  O     0.96491   0.10496   0.72071   0.00000  Uiso   1.00
O1082  O     0.70176   0.22838   0.94596   0.00000  Uiso   1.00
O1083  O     0.89441   0.12846   0.83334   0.00000  Uiso   1.00
O1084  O     0.89441   0.20487   0.83334   0.00000  Uiso   1.00
O1085  O     0.77226   0.12846   0.83333   0.00000  Uiso   1.00
O1086  O     0.83334   0.20488   0.76178   0.00000  Uiso   1.00
O1087  O     0.83333   0.12845   0.90489   0.00000  Uiso   1.00
O1088  O     0.83333   0.20488   0.90489   0.00000  Uiso   1.00
O1089  O     0.83334   0.12845   0.76178   0.00000  Uiso   1.00
O1090  O     0.70030   0.15832   0.70194   0.00000  Uiso   1.00
Zn1091 Zn    0.83333   0.21771   0.83333   0.00000  Uiso   1.00
Zn1092 Zn    0.83333   0.11563   0.83333   0.00000  Uiso   1.00
C1093  C     0.08690   0.49983   0.83338   0.00000  Uiso   1.00
C1094  C     0.02191   0.51317   0.87732   0.00000  Uiso   1.00
C1095  C     0.29066   0.50068   0.83310   0.00000  Uiso   1.00
C1096  C     0.04267   0.49932   0.83356   0.00000  Uiso   1.00
C1097  C     0.19281   0.35779   0.86441   0.00000  Uiso   1.00
C1098  C     0.14052   0.64221   0.80225   0.00000  Uiso   1.00
C1099  C     0.14052   0.35718   0.80226   0.00000  Uiso   1.00
C1100  C     0.19281   0.64281   0.86441   0.00000  Uiso   1.00
C1101  C     0.04606   0.47849   0.74244   0.00000  Uiso   1.00
C1102  C     0.28727   0.52151   0.92423   0.00000  Uiso   1.00
C1103  C     0.28689   0.47077   0.74517   0.00000  Uiso   1.00
C1104  C     0.24643   0.50017   0.83329   0.00000  Uiso   1.00
C1105  C     0.04644   0.52923   0.92149   0.00000  Uiso   1.00
C1106  C     0.16652   0.49996   0.73958   0.00000  Uiso   1.00
C1107  C     0.16681   0.50004   0.92708   0.00000  Uiso   1.00
C1108  C     0.16661   0.49995   0.68846   0.00000  Uiso   1.00
C1109  C     0.16673   0.50005   0.97820   0.00000  Uiso   1.00
C1110  C     0.02175   0.48721   0.78916   0.00000  Uiso   1.00
C1111  C     0.31158   0.51279   0.87750   0.00000  Uiso   1.00
C1112  C     0.31143   0.48683   0.78934   0.00000  Uiso   1.00
H1113  H     0.07616   0.46200   0.74397   0.00000  Uiso   1.00
H1114  H     0.08234   0.37243   0.77789   0.00000  Uiso   1.00
H1115  H     0.25100   0.62757   0.88878   0.00000  Uiso   1.00
H1116  H     0.21347   0.62739   0.93377   0.00000  Uiso   1.00
H1117  H     0.25717   0.53800   0.92269   0.00000  Uiso   1.00
H1118  H     0.25762   0.48682   0.73545   0.00000  Uiso   1.00
H1119  H     0.07572   0.51318   0.93122   0.00000  Uiso   1.00
H1120  H     0.25101   0.37413   0.88877   0.00000  Uiso   1.00
H1121  H     0.21350   0.37390   0.93378   0.00000  Uiso   1.00
H1122  H     0.11984   0.62610   0.73289   0.00000  Uiso   1.00
H1123  H     0.08233   0.62587   0.77789   0.00000  Uiso   1.00
H1124  H     0.11986   0.37261   0.73289   0.00000  Uiso   1.00
N1125  N     0.16667   0.61907   0.83333   0.00000  Uiso   1.00
N1126  N     0.16667   0.38093   0.83333   0.00000  Uiso   1.00
N1127  N     0.22008   0.38281   0.89683   0.00000  Uiso   1.00
N1128  N     0.11325   0.61719   0.76984   0.00000  Uiso   1.00
N1129  N     0.11327   0.38157   0.76985   0.00000  Uiso   1.00
N1130  N     0.22006   0.61843   0.89682   0.00000  Uiso   1.00
O1131  O     0.10559   0.53821   0.83333   0.00000  Uiso   1.00
O1132  O     0.29970   0.50835   0.96472   0.00000  Uiso   1.00
O1133  O     0.29824   0.43829   0.72071   0.00000  Uiso   1.00
O1134  O     0.03509   0.56171   0.94596   0.00000  Uiso   1.00
O1135  O     0.22774   0.46179   0.83334   0.00000  Uiso   1.00
O1136  O     0.22774   0.53821   0.83334   0.00000  Uiso   1.00
O1137  O     0.10559   0.46179   0.83333   0.00000  Uiso   1.00
O1138  O     0.16667   0.53821   0.76178   0.00000  Uiso   1.00
O1139  O     0.16666   0.46179   0.90489   0.00000  Uiso   1.00
O1140  O     0.16666   0.53821   0.90489   0.00000  Uiso   1.00
O1141  O     0.16667   0.46179   0.76178   0.00000  Uiso   1.00
O1142  O     0.03363   0.49165   0.70194   0.00000  Uiso   1.00
Zn1143 Zn    0.16667   0.55104   0.83333   0.00000  Uiso   1.00
Zn1144 Zn    0.16667   0.44896   0.83333   0.00000  Uiso   1.00
C1145  C     0.42023   0.49983   0.83338   0.00000  Uiso   1.00
C1146  C     0.35524   0.51317   0.87732   0.00000  Uiso   1.00
C1147  C     0.62400   0.50068   0.83310   0.00000  Uiso   1.00
C1148  C     0.37600   0.49932   0.83356   0.00000  Uiso   1.00
C1149  C     0.52615   0.35779   0.86441   0.00000  Uiso   1.00
C1150  C     0.47385   0.64221   0.80225   0.00000  Uiso   1.00
C1151  C     0.47386   0.35718   0.80226   0.00000  Uiso   1.00
C1152  C     0.52614   0.64281   0.86441   0.00000  Uiso   1.00
C1153  C     0.37940   0.47849   0.74244   0.00000  Uiso   1.00
C1154  C     0.62060   0.52151   0.92423   0.00000  Uiso   1.00
C1155  C     0.62023   0.47077   0.74517   0.00000  Uiso   1.00
C1156  C     0.57977   0.50017   0.83329   0.00000  Uiso   1.00
C1157  C     0.37977   0.52923   0.92149   0.00000  Uiso   1.00
C1158  C     0.49986   0.49996   0.73958   0.00000  Uiso   1.00
C1159  C     0.50014   0.50004   0.92708   0.00000  Uiso   1.00
C1160  C     0.49994   0.49995   0.68846   0.00000  Uiso   1.00
C1161  C     0.50006   0.50005   0.97820   0.00000  Uiso   1.00
C1162  C     0.35509   0.48721   0.78916   0.00000  Uiso   1.00
C1163  C     0.64491   0.51279   0.87750   0.00000  Uiso   1.00
C1164  C     0.64476   0.48683   0.78934   0.00000  Uiso   1.00
H1165  H     0.40949   0.46200   0.74397   0.00000  Uiso   1.00
H1166  H     0.41567   0.37243   0.77789   0.00000  Uiso   1.00
H1167  H     0.58433   0.62757   0.88878   0.00000  Uiso   1.00
H1168  H     0.54680   0.62739   0.93377   0.00000  Uiso   1.00
H1169  H     0.59051   0.53800   0.92269   0.00000  Uiso   1.00
H1170  H     0.59095   0.48682   0.73545   0.00000  Uiso   1.00
H1171  H     0.40905   0.51318   0.93122   0.00000  Uiso   1.00
H1172  H     0.58434   0.37413   0.88877   0.00000  Uiso   1.00
H1173  H     0.54683   0.37390   0.93378   0.00000  Uiso   1.00
H1174  H     0.45317   0.62610   0.73289   0.00000  Uiso   1.00
H1175  H     0.41566   0.62587   0.77789   0.00000  Uiso   1.00
H1176  H     0.45320   0.37261   0.73289   0.00000  Uiso   1.00
N1177  N     0.50000   0.61907   0.83333   0.00000  Uiso   1.00
N1178  N     0.50000   0.38093   0.83333   0.00000  Uiso   1.00
N1179  N     0.55341   0.38281   0.89683   0.00000  Uiso   1.00
N1180  N     0.44659   0.61719   0.76984   0.00000  Uiso   1.00
N1181  N     0.44660   0.38157   0.76985   0.00000  Uiso   1.00
N1182  N     0.55340   0.61843   0.89682   0.00000  Uiso   1.00
O1183  O     0.43892   0.53821   0.83333   0.00000  Uiso   1.00
O1184  O     0.63304   0.50835   0.96472   0.00000  Uiso   1.00
O1185  O     0.63158   0.43829   0.72071   0.00000  Uiso   1.00
O1186  O     0.36842   0.56171   0.94596   0.00000  Uiso   1.00
O1187  O     0.56108   0.46179   0.83334   0.00000  Uiso   1.00
O1188  O     0.56108   0.53821   0.83334   0.00000  Uiso   1.00
O1189  O     0.43892   0.46179   0.83333   0.00000  Uiso   1.00
O1190  O     0.50000   0.53821   0.76178   0.00000  Uiso   1.00
O1191  O     0.50000   0.46179   0.90489   0.00000  Uiso   1.00
O1192  O     0.50000   0.53821   0.90489   0.00000  Uiso   1.00
O1193  O     0.50000   0.46179   0.76178   0.00000  Uiso   1.00
O1194  O     0.36696   0.49165   0.70194   0.00000  Uiso   1.00
Zn1195 Zn    0.50000   0.55104   0.83333   0.00000  Uiso   1.00
Zn1196 Zn    0.50000   0.44896   0.83333   0.00000  Uiso   1.00
C1197  C     0.75357   0.49983   0.83338   0.00000  Uiso   1.00
C1198  C     0.68858   0.51317   0.87732   0.00000  Uiso   1.00
C1199  C     0.95733   0.50068   0.83310   0.00000  Uiso   1.00
C1200  C     0.70934   0.49932   0.83356   0.00000  Uiso   1.00
C1201  C     0.85948   0.35779   0.86441   0.00000  Uiso   1.00
C1202  C     0.80719   0.64221   0.80225   0.00000  Uiso   1.00
C1203  C     0.80719   0.35718   0.80226   0.00000  Uiso   1.00
C1204  C     0.85948   0.64281   0.86441   0.00000  Uiso   1.00
C1205  C     0.71273   0.47849   0.74244   0.00000  Uiso   1.00
C1206  C     0.95394   0.52151   0.92423   0.00000  Uiso   1.00
C1207  C     0.95356   0.47077   0.74517   0.00000  Uiso   1.00
C1208  C     0.91310   0.50017   0.83329   0.00000  Uiso   1.00
C1209  C     0.71311   0.52923   0.92149   0.00000  Uiso   1.00
C1210  C     0.83319   0.49996   0.73958   0.00000  Uiso   1.00
C1211  C     0.83348   0.50004   0.92708   0.00000  Uiso   1.00
C1212  C     0.83327   0.49995   0.68846   0.00000  Uiso   1.00
C1213  C     0.83339   0.50005   0.97820   0.00000  Uiso   1.00
C1214  C     0.68842   0.48721   0.78916   0.00000  Uiso   1.00
C1215  C     0.97825   0.51279   0.87750   0.00000  Uiso   1.00
C1216  C     0.97809   0.48683   0.78934   0.00000  Uiso   1.00
H1217  H     0.74283   0.46200   0.74397   0.00000  Uiso   1.00
H1218  H     0.74901   0.37243   0.77789   0.00000  Uiso   1.00
H1219  H     0.91766   0.62757   0.88878   0.00000  Uiso   1.00
H1220  H     0.88014   0.62739   0.93377   0.00000  Uiso   1.00
H1221  H     0.92384   0.53800   0.92269   0.00000  Uiso   1.00
H1222  H     0.92428   0.48682   0.73545   0.00000  Uiso   1.00
H1223  H     0.74238   0.51318   0.93122   0.00000  Uiso   1.00
H1224  H     0.91767   0.37413   0.88877   0.00000  Uiso   1.00
H1225  H     0.88016   0.37390   0.93378   0.00000  Uiso   1.00
H1226  H     0.78650   0.62610   0.73289   0.00000  Uiso   1.00
H1227  H     0.74899   0.62587   0.77789   0.00000  Uiso   1.00
H1228  H     0.78653   0.37261   0.73289   0.00000  Uiso   1.00
N1229  N     0.83333   0.61907   0.83333   0.00000  Uiso   1.00
N1230  N     0.83333   0.38093   0.83333   0.00000  Uiso   1.00
N1231  N     0.88675   0.38281   0.89683   0.00000  Uiso   1.00
N1232  N     0.77992   0.61719   0.76984   0.00000  Uiso   1.00
N1233  N     0.77994   0.38157   0.76985   0.00000  Uiso   1.00
N1234  N     0.88673   0.61843   0.89682   0.00000  Uiso   1.00
O1235  O     0.77226   0.53821   0.83333   0.00000  Uiso   1.00
O1236  O     0.96637   0.50835   0.96472   0.00000  Uiso   1.00
O1237  O     0.96491   0.43829   0.72071   0.00000  Uiso   1.00
O1238  O     0.70176   0.56171   0.94596   0.00000  Uiso   1.00
O1239  O     0.89441   0.46179   0.83334   0.00000  Uiso   1.00
O1240  O     0.89441   0.53821   0.83334   0.00000  Uiso   1.00
O1241  O     0.77226   0.46179   0.83333   0.00000  Uiso   1.00
O1242  O     0.83334   0.53821   0.76178   0.00000  Uiso   1.00
O1243  O     0.83333   0.46179   0.90489   0.00000  Uiso   1.00
O1244  O     0.83333   0.53821   0.90489   0.00000  Uiso   1.00
O1245  O     0.83334   0.46179   0.76178   0.00000  Uiso   1.00
O1246  O     0.70030   0.49165   0.70194   0.00000  Uiso   1.00
Zn1247 Zn    0.83333   0.55104   0.83333   0.00000  Uiso   1.00
Zn1248 Zn    0.83333   0.44896   0.83333   0.00000  Uiso   1.00
C1249  C     0.08690   0.83317   0.83338   0.00000  Uiso   1.00
C1250  C     0.02191   0.84650   0.87732   0.00000  Uiso   1.00
C1251  C     0.29066   0.83402   0.83310   0.00000  Uiso   1.00
C1252  C     0.04267   0.83265   0.83356   0.00000  Uiso   1.00
C1253  C     0.19281   0.69112   0.86441   0.00000  Uiso   1.00
C1254  C     0.14052   0.97554   0.80225   0.00000  Uiso   1.00
C1255  C     0.14052   0.69052   0.80226   0.00000  Uiso   1.00
C1256  C     0.19281   0.97615   0.86441   0.00000  Uiso   1.00
C1257  C     0.04606   0.81182   0.74244   0.00000  Uiso   1.00
C1258  C     0.28727   0.85485   0.92423   0.00000  Uiso   1.00
C1259  C     0.28689   0.80411   0.74517   0.00000  Uiso   1.00
C1260  C     0.24643   0.83350   0.83329   0.00000  Uiso   1.00
C1261  C     0.04644   0.86256   0.92149   0.00000  Uiso   1.00
C1262  C     0.16652   0.83330   0.73958   0.00000  Uiso   1.00
C1263  C     0.16681   0.83337   0.92708   0.00000  Uiso   1.00
C1264  C     0.16661   0.83328   0.68846   0.00000  Uiso   1.00
C1265  C     0.16673   0.83339   0.97820   0.00000  Uiso   1.00
C1266  C     0.02175   0.82054   0.78916   0.00000  Uiso   1.00
C1267  C     0.31158   0.84612   0.87750   0.00000  Uiso   1.00
C1268  C     0.31143   0.82016   0.78934   0.00000  Uiso   1.00
H1269  H     0.07616   0.79533   0.74397   0.00000  Uiso   1.00
H1270  H     0.08234   0.70576   0.77789   0.00000  Uiso   1.00
H1271  H     0.25100   0.96091   0.88878   0.00000  Uiso   1.00
H1272  H     0.21347   0.96072   0.93377   0.00000  Uiso   1.00
H1273  H     0.25717   0.87133   0.92269   0.00000  Uiso   1.00
H1274  H     0.25762   0.82016   0.73545   0.00000  Uiso   1.00
H1275  H     0.07572   0.84651   0.93122   0.00000  Uiso   1.00
H1276  H     0.25101   0.70747   0.88877   0.00000  Uiso   1.00
H1277  H     0.21350   0.70723   0.93378   0.00000  Uiso   1.00
H1278  H     0.11984   0.95943   0.73289   0.00000  Uiso   1.00
H1279  H     0.08233   0.95920   0.77789   0.00000  Uiso   1.00
H1280  H     0.11986   0.70595   0.73289   0.00000  Uiso   1.00
N1281  N     0.16667   0.95240   0.83333   0.00000  Uiso   1.00
N1282  N     0.16667   0.71427   0.83333   0.00000  Uiso   1.00
N1283  N     0.22008   0.71614   0.89683   0.00000  Uiso   1.00
N1284  N     0.11325   0.95052   0.76984   0.00000  Uiso   1.00
N1285  N     0.11327   0.71490   0.76985   0.00000  Uiso   1.00
N1286  N     0.22006   0.95176   0.89682   0.00000  Uiso   1.00
O1287  O     0.10559   0.87154   0.83333   0.00000  Uiso   1.00
O1288  O     0.29970   0.84168   0.96472   0.00000  Uiso   1.00
O1289  O     0.29824   0.77162   0.72071   0.00000  Uiso   1.00
O1290  O     0.03509   0.89504   0.94596   0.00000  Uiso   1.00
O1291  O     0.22774   0.79513   0.83334   0.00000  Uiso   1.00
O1292  O     0.22774   0.87154   0.83334   0.00000  Uiso   1.00
O1293  O     0.10559   0.79513   0.83333   0.00000  Uiso   1.00
O1294  O     0.16667   0.87155   0.76178   0.00000  Uiso   1.00
O1295  O     0.16666   0.79512   0.90489   0.00000  Uiso   1.00
O1296  O     0.16666   0.87155   0.90489   0.00000  Uiso   1.00
O1297  O     0.16667   0.79512   0.76178   0.00000  Uiso   1.00
O1298  O     0.03363   0.82498   0.70194   0.00000  Uiso   1.00
Zn1299 Zn    0.16667   0.88437   0.83333   0.00000  Uiso   1.00
Zn1300 Zn    0.16667   0.78229   0.83333   0.00000  Uiso   1.00
C1301  C     0.42023   0.83317   0.83338   0.00000  Uiso   1.00
C1302  C     0.35524   0.84650   0.87732   0.00000  Uiso   1.00
C1303  C     0.62400   0.83402   0.83310   0.00000  Uiso   1.00
C1304  C     0.37600   0.83265   0.83356   0.00000  Uiso   1.00
C1305  C     0.52615   0.69112   0.86441   0.00000  Uiso   1.00
C1306  C     0.47385   0.97554   0.80225   0.00000  Uiso   1.00
C1307  C     0.47386   0.69052   0.80226   0.00000  Uiso   1.00
C1308  C     0.52614   0.97615   0.86441   0.00000  Uiso   1.00
C1309  C     0.37940   0.81182   0.74244   0.00000  Uiso   1.00
C1310  C     0.62060   0.85485   0.92423   0.00000  Uiso   1.00
C1311  C     0.62023   0.80411   0.74517   0.00000  Uiso   1.00
C1312  C     0.57977   0.83350   0.83329   0.00000  Uiso   1.00
C1313  C     0.37977   0.86256   0.92149   0.00000  Uiso   1.00
C1314  C     0.49986   0.83330   0.73958   0.00000  Uiso   1.00
C1315  C     0.50014   0.83337   0.92708   0.00000  Uiso   1.00
C1316  C     0.49994   0.83328   0.68846   0.00000  Uiso   1.00
C1317  C     0.50006   0.83339   0.97820   0.00000  Uiso   1.00
C1318  C     0.35509   0.82054   0.78916   0.00000  Uiso   1.00
C1319  C     0.64491   0.84612   0.87750   0.00000  Uiso   1.00
C1320  C     0.64476   0.82016   0.78934   0.00000  Uiso   1.00
H1321  H     0.40949   0.79533   0.74397   0.00000  Uiso   1.00
H1322  H     0.41567   0.70576   0.77789   0.00000  Uiso   1.00
H1323  H     0.58433   0.96091   0.88878   0.00000  Uiso   1.00
H1324  H     0.54680   0.96072   0.93377   0.00000  Uiso   1.00
H1325  H     0.59051   0.87133   0.92269   0.00000  Uiso   1.00
H1326  H     0.59095   0.82016   0.73545   0.00000  Uiso   1.00
H1327  H     0.40905   0.84651   0.93122   0.00000  Uiso   1.00
H1328  H     0.58434   0.70747   0.88877   0.00000  Uiso   1.00
H1329  H     0.54683   0.70723   0.93378   0.00000  Uiso   1.00
H1330  H     0.45317   0.95943   0.73289   0.00000  Uiso   1.00
H1331  H     0.41566   0.95920   0.77789   0.00000  Uiso   1.00
H1332  H     0.45320   0.70595   0.73289   0.00000  Uiso   1.00
N1333  N     0.50000   0.95240   0.83333   0.00000  Uiso   1.00
N1334  N     0.50000   0.71427   0.83333   0.00000  Uiso   1.00
N1335  N     0.55341   0.71614   0.89683   0.00000  Uiso   1.00
N1336  N     0.44659   0.95052   0.76984   0.00000  Uiso   1.00
N1337  N     0.44660   0.71490   0.76985   0.00000  Uiso   1.00
N1338  N     0.55340   0.95176   0.89682   0.00000  Uiso   1.00
O1339  O     0.43892   0.87154   0.83333   0.00000  Uiso   1.00
O1340  O     0.63304   0.84168   0.96472   0.00000  Uiso   1.00
O1341  O     0.63158   0.77162   0.72071   0.00000  Uiso   1.00
O1342  O     0.36842   0.89504   0.94596   0.00000  Uiso   1.00
O1343  O     0.56108   0.79513   0.83334   0.00000  Uiso   1.00
O1344  O     0.56108   0.87154   0.83334   0.00000  Uiso   1.00
O1345  O     0.43892   0.79513   0.83333   0.00000  Uiso   1.00
O1346  O     0.50000   0.87155   0.76178   0.00000  Uiso   1.00
O1347  O     0.50000   0.79512   0.90489   0.00000  Uiso   1.00
O1348  O     0.50000   0.87155   0.90489   0.00000  Uiso   1.00
O1349  O     0.50000   0.79512   0.76178   0.00000  Uiso   1.00
O1350  O     0.36696   0.82498   0.70194   0.00000  Uiso   1.00
Zn1351 Zn    0.50000   0.88437   0.83333   0.00000  Uiso   1.00
Zn1352 Zn    0.50000   0.78229   0.83333   0.00000  Uiso   1.00
C1353  C     0.75357   0.83317   0.83338   0.00000  Uiso   1.00
C1354  C     0.68858   0.84650   0.87732   0.00000  Uiso   1.00
C1355  C     0.95733   0.83402   0.83310   0.00000  Uiso   1.00
C1356  C     0.70934   0.83265   0.83356   0.00000  Uiso   1.00
C1357  C     0.85948   0.69112   0.86441   0.00000  Uiso   1.00
C1358  C     0.80719   0.97554   0.80225   0.00000  Uiso   1.00
C1359  C     0.80719   0.69052   0.80226   0.00000  Uiso   1.00
C1360  C     0.85948   0.97615   0.86441   0.00000  Uiso   1.00
C1361  C     0.71273   0.81182   0.74244   0.00000  Uiso   1.00
C1362  C     0.95394   0.85485   0.92423   0.00000  Uiso   1.00
C1363  C     0.95356   0.80411   0.74517   0.00000  Uiso   1.00
C1364  C     0.91310   0.83350   0.83329   0.00000  Uiso   1.00
C1365  C     0.71311   0.86256   0.92149   0.00000  Uiso   1.00
C1366  C     0.83319   0.83330   0.73958   0.00000  Uiso   1.00
C1367  C     0.83348   0.83337   0.92708   0.00000  Uiso   1.00
C1368  C     0.83327   0.83328   0.68846   0.00000  Uiso   1.00
C1369  C     0.83339   0.83339   0.97820   0.00000  Uiso   1.00
C1370  C     0.68842   0.82054   0.78916   0.00000  Uiso   1.00
C1371  C     0.97825   0.84612   0.87750   0.00000  Uiso   1.00
C1372  C     0.97809   0.82016   0.78934   0.00000  Uiso   1.00
H1373  H     0.74283   0.79533   0.74397   0.00000  Uiso   1.00
H1374  H     0.74901   0.70576   0.77789   0.00000  Uiso   1.00
H1375  H     0.91766   0.96091   0.88878   0.00000  Uiso   1.00
H1376  H     0.88014   0.96072   0.93377   0.00000  Uiso   1.00
H1377  H     0.92384   0.87133   0.92269   0.00000  Uiso   1.00
H1378  H     0.92428   0.82016   0.73545   0.00000  Uiso   1.00
H1379  H     0.74238   0.84651   0.93122   0.00000  Uiso   1.00
H1380  H     0.91767   0.70747   0.88877   0.00000  Uiso   1.00
H1381  H     0.88016   0.70723   0.93378   0.00000  Uiso   1.00
H1382  H     0.78650   0.95943   0.73289   0.00000  Uiso   1.00
H1383  H     0.74899   0.95920   0.77789   0.00000  Uiso   1.00
H1384  H     0.78653   0.70595   0.73289   0.00000  Uiso   1.00
N1385  N     0.83333   0.95240   0.83333   0.00000  Uiso   1.00
N1386  N     0.83333   0.71427   0.83333   0.00000  Uiso   1.00
N1387  N     0.88675   0.71614   0.89683   0.00000  Uiso   1.00
N1388  N     0.77992   0.95052   0.76984   0.00000  Uiso   1.00
N1389  N     0.77994   0.71490   0.76985   0.00000  Uiso   1.00
N1390  N     0.88673   0.95176   0.89682   0.00000  Uiso   1.00
O1391  O     0.77226   0.87154   0.83333   0.00000  Uiso   1.00
O1392  O     0.96637   0.84168   0.96472   0.00000  Uiso   1.00
O1393  O     0.96491   0.77162   0.72071   0.00000  Uiso   1.00
O1394  O     0.70176   0.89504   0.94596   0.00000  Uiso   1.00
O1395  O     0.89441   0.79513   0.83334   0.00000  Uiso   1.00
O1396  O     0.89441   0.87154   0.83334   0.00000  Uiso   1.00
O1397  O     0.77226   0.79513   0.83333   0.00000  Uiso   1.00
O1398  O     0.83334   0.87155   0.76178   0.00000  Uiso   1.00
O1399  O     0.83333   0.79512   0.90489   0.00000  Uiso   1.00
O1400  O     0.83333   0.87155   0.90489   0.00000  Uiso   1.00
O1401  O     0.83334   0.79512   0.76178   0.00000  Uiso   1.00
O1402  O     0.70030   0.82498   0.70194   0.00000  Uiso   1.00
Zn1403 Zn    0.83333   0.88437   0.83333   0.00000  Uiso   1.00
Zn1404 Zn    0.83333   0.78229   0.83333   0.00000  Uiso   1.00
loop_
_geom_bond_atom_site_label_1
_geom_bond_atom_site_label_2
_geom_bond_distance
_geom_bond_site_symmetry_2
_ccdc_geom_bond_type
C1     C4      1.412   .     S
C1     O45     1.281   .     A
C1     O39     1.282   .     A
C2     C4      1.407   .     A
C2     C13     1.493   .     S
C2     C123    1.394   1_455 S
C3     C19     1.407   .     A
C3     C20     1.407   .     A
C3     C12     1.412   .     S
C4     C18     1.407   .     A
C5     N34     1.368   .     A
C5     N35     1.431   .     S
C5     C320    1.434   1_545 S
C6     N33     1.368   .     A
C6     N36     1.431   .     S
C6     C163    1.434   .     S
C7     N37     1.430   .     S
C7     N34     1.368   .     A
C7     C318    1.434   1_545 S
C8     N38     1.430   .     S
C8     N33     1.368   .     A
C8     C161    1.434   .     S
C9     H21     1.083   .     S
C9     C18     1.495   .     S
C9     O50     1.220   .     D
C10    C19     1.495   .     S
C10    H25     1.083   .     S
C10    O40     1.220   .     D
C11    O41     1.221   .     D
C11    C20     1.493   .     S
C11    H26     1.084   .     S
C12    O44     1.281   .     A
C12    O43     1.282   .     A
C13    O42     1.221   .     D
C13    H27     1.084   .     S
C14    C16     1.368   .     S
C14    O49     1.281   .     A
C14    O46     1.280   .     A
C15    O47     1.280   .     A
C15    O48     1.281   .     A
C15    C17     1.368   .     S
C16    C953    1.166   1_554 S
C17    C484    1.166   .     S
C18    C124    1.394   1_455 S
C19    C54     1.394   .     S
C20    C70     1.394   .     S
H22    N37     1.045   .     S
H23    N38     1.045   .     S
H24    N38     1.045   .     S
H28    N35     1.045   .     S
H29    N35     1.045   .     S
H30    N36     1.045   .     S
H31    N36     1.045   .     S
H32    N37     1.045   .     S
N33    Zn51    2.019   .     S
N34    Zn52    2.019   .     S
O39    Zn51    1.984   .     S
O43    Zn52    1.984   .     S
O44    Zn51    1.990   .     S
O45    Zn52    1.990   .     S
O46    Zn51    1.951   .     S
O47    Zn52    1.951   .     S
O48    Zn51    1.953   .     S
O49    Zn52    1.953   .     S
C53    C56     1.412   .     S
C53    O97     1.281   .     A
C53    O91     1.282   .     A
C54    C56     1.407   .     A
C54    C65     1.493   .     S
C55    C71     1.407   .     A
C55    C72     1.407   .     A
C55    C64     1.412   .     S
C56    C70     1.407   .     A
C57    N86     1.368   .     A
C57    N87     1.431   .     S
C57    C372    1.434   1_545 S
C58    N85     1.368   .     A
C58    N88     1.431   .     S
C58    C215    1.434   .     S
C59    N89     1.430   .     S
C59    N86     1.368   .     A
C59    C370    1.434   1_545 S
C60    N90     1.430   .     S
C60    N85     1.368   .     A
C60    C213    1.434   .     S
C61    H73     1.083   .     S
C61    C70     1.495   .     S
C61    O102    1.220   .     D
C62    C71     1.495   .     S
C62    H77     1.083   .     S
C62    O92     1.220   .     D
C63    O93     1.221   .     D
C63    C72     1.493   .     S
C63    H78     1.084   .     S
C64    O96     1.281   .     A
C64    O95     1.282   .     A
C65    O94     1.221   .     D
C65    H79     1.084   .     S
C66    C68     1.368   .     S
C66    O101    1.281   .     A
C66    O98     1.280   .     A
C67    O99     1.280   .     A
C67    O100    1.281   .     A
C67    C69     1.368   .     S
C68    C1005   1.166   1_554 S
C69    C536    1.166   .     S
C71    C106    1.394   .     S
C72    C122    1.394   .     S
H74    N89     1.045   .     S
H75    N90     1.045   .     S
H76    N90     1.045   .     S
H80    N87     1.045   .     S
H81    N87     1.045   .     S
H82    N88     1.045   .     S
H83    N88     1.045   .     S
H84    N89     1.045   .     S
N85    Zn103   2.019   .     S
N86    Zn104   2.019   .     S
O91    Zn103   1.984   .     S
O95    Zn104   1.984   .     S
O96    Zn103   1.990   .     S
O97    Zn104   1.990   .     S
O98    Zn103   1.951   .     S
O99    Zn104   1.951   .     S
O100   Zn103   1.953   .     S
O101   Zn104   1.953   .     S
C105   C108    1.412   .     S
C105   O149    1.281   .     A
C105   O143    1.282   .     A
C106   C108    1.407   .     A
C106   C117    1.493   .     S
C107   C123    1.407   .     A
C107   C124    1.407   .     A
C107   C116    1.412   .     S
C108   C122    1.407   .     A
C109   N138    1.368   .     A
C109   N139    1.431   .     S
C109   C424    1.434   1_545 S
C110   N137    1.368   .     A
C110   N140    1.431   .     S
C110   C267    1.434   .     S
C111   N141    1.430   .     S
C111   N138    1.368   .     A
C111   C422    1.434   1_545 S
C112   N142    1.430   .     S
C112   N137    1.368   .     A
C112   C265    1.434   .     S
C113   H125    1.083   .     S
C113   C122    1.495   .     S
C113   O154    1.220   .     D
C114   C123    1.495   .     S
C114   H129    1.083   .     S
C114   O144    1.220   .     D
C115   O145    1.221   .     D
C115   C124    1.493   .     S
C115   H130    1.084   .     S
C116   O148    1.281   .     A
C116   O147    1.282   .     A
C117   O146    1.221   .     D
C117   H131    1.084   .     S
C118   C120    1.368   .     S
C118   O153    1.281   .     A
C118   O150    1.280   .     A
C119   O151    1.280   .     A
C119   O152    1.281   .     A
C119   C121    1.368   .     S
C120   C1057   1.166   1_554 S
C121   C588    1.166   .     S
C123   C2      1.394   1_655 S
C124   C18     1.394   1_655 S
H126   N141    1.045   .     S
H127   N142    1.045   .     S
H128   N142    1.045   .     S
H132   N139    1.045   .     S
H133   N139    1.045   .     S
H134   N140    1.045   .     S
H135   N140    1.045   .     S
H136   N141    1.045   .     S
N137   Zn155   2.019   .     S
N138   Zn156   2.019   .     S
O143   Zn155   1.984   .     S
O147   Zn156   1.984   .     S
O148   Zn155   1.990   .     S
O149   Zn156   1.990   .     S
O150   Zn155   1.951   .     S
O151   Zn156   1.951   .     S
O152   Zn155   1.953   .     S
O153   Zn156   1.953   .     S
C157   C160    1.412   .     S
C157   O201    1.281   .     A
C157   O195    1.282   .     A
C158   C160    1.407   .     A
C158   C169    1.493   .     S
C158   C279    1.394   1_455 S
C159   C175    1.407   .     A
C159   C176    1.407   .     A
C159   C168    1.412   .     S
C160   C174    1.407   .     A
C161   N190    1.368   .     A
C161   N191    1.431   .     S
C162   N189    1.368   .     A
C162   N192    1.431   .     S
C162   C319    1.434   .     S
C163   N193    1.430   .     S
C163   N190    1.368   .     A
C164   N194    1.430   .     S
C164   N189    1.368   .     A
C164   C317    1.434   .     S
C165   H177    1.083   .     S
C165   C174    1.495   .     S
C165   O206    1.220   .     D
C166   C175    1.495   .     S
C166   H181    1.083   .     S
C166   O196    1.220   .     D
C167   O197    1.221   .     D
C167   C176    1.493   .     S
C167   H182    1.084   .     S
C168   O200    1.281   .     A
C168   O199    1.282   .     A
C169   O198    1.221   .     D
C169   H183    1.084   .     S
C170   C172    1.368   .     S
C170   O205    1.281   .     A
C170   O202    1.280   .     A
C171   O203    1.280   .     A
C171   O204    1.281   .     A
C171   C173    1.368   .     S
C172   C1109   1.166   1_554 S
C173   C640    1.166   .     S
C174   C280    1.394   1_455 S
C175   C210    1.394   .     S
C176   C226    1.394   .     S
H178   N193    1.045   .     S
H179   N194    1.045   .     S
H180   N194    1.045   .     S
H184   N191    1.045   .     S
H185   N191    1.045   .     S
H186   N192    1.045   .     S
H187   N192    1.045   .     S
H188   N193    1.045   .     S
N189   Zn207   2.019   .     S
N190   Zn208   2.019   .     S
O195   Zn207   1.984   .     S
O199   Zn208   1.984   .     S
O200   Zn207   1.990   .     S
O201   Zn208   1.990   .     S
O202   Zn207   1.951   .     S
O203   Zn208   1.951   .     S
O204   Zn207   1.953   .     S
O205   Zn208   1.953   .     S
C209   C212    1.412   .     S
C209   O253    1.281   .     A
C209   O247    1.282   .     A
C210   C212    1.407   .     A
C210   C221    1.493   .     S
C211   C227    1.407   .     A
C211   C228    1.407   .     A
C211   C220    1.412   .     S
C212   C226    1.407   .     A
C213   N242    1.368   .     A
C213   N243    1.431   .     S
C214   N241    1.368   .     A
C214   N244    1.431   .     S
C214   C371    1.434   .     S
C215   N245    1.430   .     S
C215   N242    1.368   .     A
C216   N246    1.430   .     S
C216   N241    1.368   .     A
C216   C369    1.434   .     S
C217   H229    1.083   .     S
C217   C226    1.495   .     S
C217   O258    1.220   .     D
C218   C227    1.495   .     S
C218   H233    1.083   .     S
C218   O248    1.220   .     D
C219   O249    1.221   .     D
C219   C228    1.493   .     S
C219   H234    1.084   .     S
C220   O252    1.281   .     A
C220   O251    1.282   .     A
C221   O250    1.221   .     D
C221   H235    1.084   .     S
C222   C224    1.368   .     S
C222   O257    1.281   .     A
C222   O254    1.280   .     A
C223   O255    1.280   .     A
C223   O256    1.281   .     A
C223   C225    1.368   .     S
C224   C1161   1.166   1_554 S
C225   C692    1.166   .     S
C227   C262    1.394   .     S
C228   C278    1.394   .     S
H230   N245    1.045   .     S
H231   N246    1.045   .     S
H232   N246    1.045   .     S
H236   N243    1.045   .     S
H237   N243    1.045   .     S
H238   N244    1.045   .     S
H239   N244    1.045   .     S
H240   N245    1.045   .     S
N241   Zn259   2.019   .     S
N242   Zn260   2.019   .     S
O247   Zn259   1.984   .     S
O251   Zn260   1.984   .     S
O252   Zn259   1.990   .     S
O253   Zn260   1.990   .     S
O254   Zn259   1.951   .     S
O255   Zn260   1.951   .     S
O256   Zn259   1.953   .     S
O257   Zn260   1.953   .     S
C261   C264    1.412   .     S
C261   O305    1.281   .     A
C261   O299    1.282   .     A
C262   C264    1.407   .     A
C262   C273    1.493   .     S
C263   C279    1.407   .     A
C263   C280    1.407   .     A
C263   C272    1.412   .     S
C264   C278    1.407   .     A
C265   N294    1.368   .     A
C265   N295    1.431   .     S
C266   N293    1.368   .     A
C266   N296    1.431   .     S
C266   C423    1.434   .     S
C267   N297    1.430   .     S
C267   N294    1.368   .     A
C268   N298    1.430   .     S
C268   N293    1.368   .     A
C268   C421    1.434   .     S
C269   H281    1.083   .     S
C269   C278    1.495   .     S
C269   O310    1.220   .     D
C270   C279    1.495   .     S
C270   H285    1.083   .     S
C270   O300    1.220   .     D
C271   O301    1.221   .     D
C271   C280    1.493   .     S
C271   H286    1.084   .     S
C272   O304    1.281   .     A
C272   O303    1.282   .     A
C273   O302    1.221   .     D
C273   H287    1.084   .     S
C274   C276    1.368   .     S
C274   O309    1.281   .     A
C274   O306    1.280   .     A
C275   O307    1.280   .     A
C275   O308    1.281   .     A
C275   C277    1.368   .     S
C276   C1213   1.166   1_554 S
C277   C744    1.166   .     S
C279   C158    1.394   1_655 S
C280   C174    1.394   1_655 S
H282   N297    1.045   .     S
H283   N298    1.045   .     S
H284   N298    1.045   .     S
H288   N295    1.045   .     S
H289   N295    1.045   .     S
H290   N296    1.045   .     S
H291   N296    1.045   .     S
H292   N297    1.045   .     S
N293   Zn311   2.019   .     S
N294   Zn312   2.019   .     S
O299   Zn311   1.984   .     S
O303   Zn312   1.984   .     S
O304   Zn311   1.990   .     S
O305   Zn312   1.990   .     S
O306   Zn311   1.951   .     S
O307   Zn312   1.951   .     S
O308   Zn311   1.953   .     S
O309   Zn312   1.953   .     S
C313   C316    1.412   .     S
C313   O357    1.281   .     A
C313   O351    1.282   .     A
C314   C316    1.407   .     A
C314   C325    1.493   .     S
C314   C435    1.394   1_455 S
C315   C331    1.407   .     A
C315   C332    1.407   .     A
C315   C324    1.412   .     S
C316   C330    1.407   .     A
C317   N346    1.368   .     A
C317   N347    1.431   .     S
C318   N345    1.368   .     A
C318   N348    1.431   .     S
C318   C7      1.434   1_565 S
C319   N349    1.430   .     S
C319   N346    1.368   .     A
C320   N350    1.430   .     S
C320   N345    1.368   .     A
C320   C5      1.434   1_565 S
C321   H333    1.083   .     S
C321   C330    1.495   .     S
C321   O362    1.220   .     D
C322   C331    1.495   .     S
C322   H337    1.083   .     S
C322   O352    1.220   .     D
C323   O353    1.221   .     D
C323   C332    1.493   .     S
C323   H338    1.084   .     S
C324   O356    1.281   .     A
C324   O355    1.282   .     A
C325   O354    1.221   .     D
C325   H339    1.084   .     S
C326   C328    1.368   .     S
C326   O361    1.281   .     A
C326   O358    1.280   .     A
C327   O359    1.280   .     A
C327   O360    1.281   .     A
C327   C329    1.368   .     S
C328   C1265   1.166   1_554 S
C329   C796    1.166   .     S
C330   C436    1.394   1_455 S
C331   C366    1.394   .     S
C332   C382    1.394   .     S
H334   N349    1.045   .     S
H335   N350    1.045   .     S
H336   N350    1.045   .     S
H340   N347    1.045   .     S
H341   N347    1.045   .     S
H342   N348    1.045   .     S
H343   N348    1.045   .     S
H344   N349    1.045   .     S
N345   Zn363   2.019   .     S
N346   Zn364   2.019   .     S
O351   Zn363   1.984   .     S
O355   Zn364   1.984   .     S
O356   Zn363   1.990   .     S
O357   Zn364   1.990   .     S
O358   Zn363   1.951   .     S
O359   Zn364   1.951   .     S
O360   Zn363   1.953   .     S
O361   Zn364   1.953   .     S
C365   C368    1.412   .     S
C365   O409    1.281   .     A
C365   O403    1.282   .     A
C366   C368    1.407   .     A
C366   C377    1.493   .     S
C367   C383    1.407   .     A
C367   C384    1.407   .     A
C367   C376    1.412   .     S
C368   C382    1.407   .     A
C369   N398    1.368   .     A
C369   N399    1.431   .     S
C370   N397    1.368   .     A
C370   N400    1.431   .     S
C370   C59     1.434   1_565 S
C371   N401    1.430   .     S
C371   N398    1.368   .     A
C372   N402    1.430   .     S
C372   N397    1.368   .     A
C372   C57     1.434   1_565 S
C373   H385    1.083   .     S
C373   C382    1.495   .     S
C373   O414    1.220   .     D
C374   C383    1.495   .     S
C374   H389    1.083   .     S
C374   O404    1.220   .     D
C375   O405    1.221   .     D
C375   C384    1.493   .     S
C375   H390    1.084   .     S
C376   O408    1.281   .     A
C376   O407    1.282   .     A
C377   O406    1.221   .     D
C377   H391    1.084   .     S
C378   C380    1.368   .     S
C378   O413    1.281   .     A
C378   O410    1.280   .     A
C379   O411    1.280   .     A
C379   O412    1.281   .     A
C379   C381    1.368   .     S
C380   C1317   1.166   1_554 S
C381   C848    1.166   .     S
C383   C418    1.394   .     S
C384   C434    1.394   .     S
H386   N401    1.045   .     S
H387   N402    1.045   .     S
H388   N402    1.045   .     S
H392   N399    1.045   .     S
H393   N399    1.045   .     S
H394   N400    1.045   .     S
H395   N400    1.045   .     S
H396   N401    1.045   .     S
N397   Zn415   2.019   .     S
N398   Zn416   2.019   .     S
O403   Zn415   1.984   .     S
O407   Zn416   1.984   .     S
O408   Zn415   1.990   .     S
O409   Zn416   1.990   .     S
O410   Zn415   1.951   .     S
O411   Zn416   1.951   .     S
O412   Zn415   1.953   .     S
O413   Zn416   1.953   .     S
C417   C420    1.412   .     S
C417   O461    1.281   .     A
C417   O455    1.282   .     A
C418   C420    1.407   .     A
C418   C429    1.493   .     S
C419   C435    1.407   .     A
C419   C436    1.407   .     A
C419   C428    1.412   .     S
C420   C434    1.407   .     A
C421   N450    1.368   .     A
C421   N451    1.431   .     S
C422   N449    1.368   .     A
C422   N452    1.431   .     S
C422   C111    1.434   1_565 S
C423   N453    1.430   .     S
C423   N450    1.368   .     A
C424   N454    1.430   .     S
C424   N449    1.368   .     A
C424   C109    1.434   1_565 S
C425   H437    1.083   .     S
C425   C434    1.495   .     S
C425   O466    1.220   .     D
C426   C435    1.495   .     S
C426   H441    1.083   .     S
C426   O456    1.220   .     D
C427   O457    1.221   .     D
C427   C436    1.493   .     S
C427   H442    1.084   .     S
C428   O460    1.281   .     A
C428   O459    1.282   .     A
C429   O458    1.221   .     D
C429   H443    1.084   .     S
C430   C432    1.368   .     S
C430   O465    1.281   .     A
C430   O462    1.280   .     A
C431   O463    1.280   .     A
C431   O464    1.281   .     A
C431   C433    1.368   .     S
C432   C1369   1.166   1_554 S
C433   C900    1.166   .     S
C435   C314    1.394   1_655 S
C436   C330    1.394   1_655 S
H438   N453    1.045   .     S
H439   N454    1.045   .     S
H440   N454    1.045   .     S
H444   N451    1.045   .     S
H445   N451    1.045   .     S
H446   N452    1.045   .     S
H447   N452    1.045   .     S
H448   N453    1.045   .     S
N449   Zn467   2.019   .     S
N450   Zn468   2.019   .     S
O455   Zn467   1.984   .     S
O459   Zn468   1.984   .     S
O460   Zn467   1.990   .     S
O461   Zn468   1.990   .     S
O462   Zn467   1.951   .     S
O463   Zn468   1.951   .     S
O464   Zn467   1.953   .     S
O465   Zn468   1.953   .     S
C469   C472    1.412   .     S
C469   O513    1.281   .     A
C469   O507    1.282   .     A
C470   C472    1.407   .     A
C470   C481    1.493   .     S
C470   C591    1.394   1_455 S
C471   C487    1.407   .     A
C471   C488    1.407   .     A
C471   C480    1.412   .     S
C472   C486    1.407   .     A
C473   N502    1.368   .     A
C473   N503    1.431   .     S
C473   C788    1.434   1_545 S
C474   N501    1.368   .     A
C474   N504    1.431   .     S
C474   C631    1.434   .     S
C475   N505    1.430   .     S
C475   N502    1.368   .     A
C475   C786    1.434   1_545 S
C476   N506    1.430   .     S
C476   N501    1.368   .     A
C476   C629    1.434   .     S
C477   H489    1.083   .     S
C477   C486    1.495   .     S
C477   O518    1.220   .     D
C478   C487    1.495   .     S
C478   H493    1.083   .     S
C478   O508    1.220   .     D
C479   O509    1.221   .     D
C479   C488    1.493   .     S
C479   H494    1.084   .     S
C480   O512    1.281   .     A
C480   O511    1.282   .     A
C481   O510    1.221   .     D
C481   H495    1.084   .     S
C482   C484    1.368   .     S
C482   O517    1.281   .     A
C482   O514    1.280   .     A
C483   O515    1.280   .     A
C483   O516    1.281   .     A
C483   C485    1.368   .     S
C485   C952    1.166   .     S
C486   C592    1.394   1_455 S
C487   C522    1.394   .     S
C488   C538    1.394   .     S
H490   N505    1.045   .     S
H491   N506    1.045   .     S
H492   N506    1.045   .     S
H496   N503    1.045   .     S
H497   N503    1.045   .     S
H498   N504    1.045   .     S
H499   N504    1.045   .     S
H500   N505    1.045   .     S
N501   Zn519   2.019   .     S
N502   Zn520   2.019   .     S
O507   Zn519   1.984   .     S
O511   Zn520   1.984   .     S
O512   Zn519   1.990   .     S
O513   Zn520   1.990   .     S
O514   Zn519   1.951   .     S
O515   Zn520   1.951   .     S
O516   Zn519   1.953   .     S
O517   Zn520   1.953   .     S
C521   C524    1.412   .     S
C521   O565    1.281   .     A
C521   O559    1.282   .     A
C522   C524    1.407   .     A
C522   C533    1.493   .     S
C523   C539    1.407   .     A
C523   C540    1.407   .     A
C523   C532    1.412   .     S
C524   C538    1.407   .     A
C525   N554    1.368   .     A
C525   N555    1.431   .     S
C525   C840    1.434   1_545 S
C526   N553    1.368   .     A
C526   N556    1.431   .     S
C526   C683    1.434   .     S
C527   N557    1.430   .     S
C527   N554    1.368   .     A
C527   C838    1.434   1_545 S
C528   N558    1.430   .     S
C528   N553    1.368   .     A
C528   C681    1.434   .     S
C529   H541    1.083   .     S
C529   C538    1.495   .     S
C529   O570    1.220   .     D
C530   C539    1.495   .     S
C530   H545    1.083   .     S
C530   O560    1.220   .     D
C531   O561    1.221   .     D
C531   C540    1.493   .     S
C531   H546    1.084   .     S
C532   O564    1.281   .     A
C532   O563    1.282   .     A
C533   O562    1.221   .     D
C533   H547    1.084   .     S
C534   C536    1.368   .     S
C534   O569    1.281   .     A
C534   O566    1.280   .     A
C535   O567    1.280   .     A
C535   O568    1.281   .     A
C535   C537    1.368   .     S
C537   C1004   1.166   .     S
C539   C574    1.394   .     S
C540   C590    1.394   .     S
H542   N557    1.045   .     S
H543   N558    1.045   .     S
H544   N558    1.045   .     S
H548   N555    1.045   .     S
H549   N555    1.045   .     S
H550   N556    1.045   .     S
H551   N556    1.045   .     S
H552   N557    1.045   .     S
N553   Zn571   2.019   .     S
N554   Zn572   2.019   .     S
O559   Zn571   1.984   .     S
O563   Zn572   1.984   .     S
O564   Zn571   1.990   .     S
O565   Zn572   1.990   .     S
O566   Zn571   1.951   .     S
O567   Zn572   1.951   .     S
O568   Zn571   1.953   .     S
O569   Zn572   1.953   .     S
C573   C576    1.412   .     S
C573   O617    1.281   .     A
C573   O611    1.282   .     A
C574   C576    1.407   .     A
C574   C585    1.493   .     S
C575   C591    1.407   .     A
C575   C592    1.407   .     A
C575   C584    1.412   .     S
C576   C590    1.407   .     A
C577   N606    1.368   .     A
C577   N607    1.431   .     S
C577   C892    1.434   1_545 S
C578   N605    1.368   .     A
C578   N608    1.431   .     S
C578   C735    1.434   .     S
C579   N609    1.430   .     S
C579   N606    1.368   .     A
C579   C890    1.434   1_545 S
C580   N610    1.430   .     S
C580   N605    1.368   .     A
C580   C733    1.434   .     S
C581   H593    1.083   .     S
C581   C590    1.495   .     S
C581   O622    1.220   .     D
C582   C591    1.495   .     S
C582   H597    1.083   .     S
C582   O612    1.220   .     D
C583   O613    1.221   .     D
C583   C592    1.493   .     S
C583   H598    1.084   .     S
C584   O616    1.281   .     A
C584   O615    1.282   .     A
C585   O614    1.221   .     D
C585   H599    1.084   .     S
C586   C588    1.368   .     S
C586   O621    1.281   .     A
C586   O618    1.280   .     A
C587   O619    1.280   .     A
C587   O620    1.281   .     A
C587   C589    1.368   .     S
C589   C1056   1.166   .     S
C591   C470    1.394   1_655 S
C592   C486    1.394   1_655 S
H594   N609    1.045   .     S
H595   N610    1.045   .     S
H596   N610    1.045   .     S
H600   N607    1.045   .     S
H601   N607    1.045   .     S
H602   N608    1.045   .     S
H603   N608    1.045   .     S
H604   N609    1.045   .     S
N605   Zn623   2.019   .     S
N606   Zn624   2.019   .     S
O611   Zn623   1.984   .     S
O615   Zn624   1.984   .     S
O616   Zn623   1.990   .     S
O617   Zn624   1.990   .     S
O618   Zn623   1.951   .     S
O619   Zn624   1.951   .     S
O620   Zn623   1.953   .     S
O621   Zn624   1.953   .     S
C625   C628    1.412   .     S
C625   O669    1.281   .     A
C625   O663    1.282   .     A
C626   C628    1.407   .     A
C626   C637    1.493   .     S
C626   C747    1.394   1_455 S
C627   C643    1.407   .     A
C627   C644    1.407   .     A
C627   C636    1.412   .     S
C628   C642    1.407   .     A
C629   N658    1.368   .     A
C629   N659    1.431   .     S
C630   N657    1.368   .     A
C630   N660    1.431   .     S
C630   C787    1.434   .     S
C631   N661    1.430   .     S
C631   N658    1.368   .     A
C632   N662    1.430   .     S
C632   N657    1.368   .     A
C632   C785    1.434   .     S
C633   H645    1.083   .     S
C633   C642    1.495   .     S
C633   O674    1.220   .     D
C634   C643    1.495   .     S
C634   H649    1.083   .     S
C634   O664    1.220   .     D
C635   O665    1.221   .     D
C635   C644    1.493   .     S
C635   H650    1.084   .     S
C636   O668    1.281   .     A
C636   O667    1.282   .     A
C637   O666    1.221   .     D
C637   H651    1.084   .     S
C638   C640    1.368   .     S
C638   O673    1.281   .     A
C638   O670    1.280   .     A
C639   O671    1.280   .     A
C639   O672    1.281   .     A
C639   C641    1.368   .     S
C641   C1108   1.166   .     S
C642   C748    1.394   1_455 S
C643   C678    1.394   .     S
C644   C694    1.394   .     S
H646   N661    1.045   .     S
H647   N662    1.045   .     S
H648   N662    1.045   .     S
H652   N659    1.045   .     S
H653   N659    1.045   .     S
H654   N660    1.045   .     S
H655   N660    1.045   .     S
H656   N661    1.045   .     S
N657   Zn675   2.019   .     S
N658   Zn676   2.019   .     S
O663   Zn675   1.984   .     S
O667   Zn676   1.984   .     S
O668   Zn675   1.990   .     S
O669   Zn676   1.990   .     S
O670   Zn675   1.951   .     S
O671   Zn676   1.951   .     S
O672   Zn675   1.953   .     S
O673   Zn676   1.953   .     S
C677   C680    1.412   .     S
C677   O721    1.281   .     A
C677   O715    1.282   .     A
C678   C680    1.407   .     A
C678   C689    1.493   .     S
C679   C695    1.407   .     A
C679   C696    1.407   .     A
C679   C688    1.412   .     S
C680   C694    1.407   .     A
C681   N710    1.368   .     A
C681   N711    1.431   .     S
C682   N709    1.368   .     A
C682   N712    1.431   .     S
C682   C839    1.434   .     S
C683   N713    1.430   .     S
C683   N710    1.368   .     A
C684   N714    1.430   .     S
C684   N709    1.368   .     A
C684   C837    1.434   .     S
C685   H697    1.083   .     S
C685   C694    1.495   .     S
C685   O726    1.220   .     D
C686   C695    1.495   .     S
C686   H701    1.083   .     S
C686   O716    1.220   .     D
C687   O717    1.221   .     D
C687   C696    1.493   .     S
C687   H702    1.084   .     S
C688   O720    1.281   .     A
C688   O719    1.282   .     A
C689   O718    1.221   .     D
C689   H703    1.084   .     S
C690   C692    1.368   .     S
C690   O725    1.281   .     A
C690   O722    1.280   .     A
C691   O723    1.280   .     A
C691   O724    1.281   .     A
C691   C693    1.368   .     S
C693   C1160   1.166   .     S
C695   C730    1.394   .     S
C696   C746    1.394   .     S
H698   N713    1.045   .     S
H699   N714    1.045   .     S
H700   N714    1.045   .     S
H704   N711    1.045   .     S
H705   N711    1.045   .     S
H706   N712    1.045   .     S
H707   N712    1.045   .     S
H708   N713    1.045   .     S
N709   Zn727   2.019   .     S
N710   Zn728   2.019   .     S
O715   Zn727   1.984   .     S
O719   Zn728   1.984   .     S
O720   Zn727   1.990   .     S
O721   Zn728   1.990   .     S
O722   Zn727   1.951   .     S
O723   Zn728   1.951   .     S
O724   Zn727   1.953   .     S
O725   Zn728   1.953   .     S
C729   C732    1.412   .     S
C729   O773    1.281   .     A
C729   O767    1.282   .     A
C730   C732    1.407   .     A
C730   C741    1.493   .     S
C731   C747    1.407   .     A
C731   C748    1.407   .     A
C731   C740    1.412   .     S
C732   C746    1.407   .     A
C733   N762    1.368   .     A
C733   N763    1.431   .     S
C734   N761    1.368   .     A
C734   N764    1.431   .     S
C734   C891    1.434   .     S
C735   N765    1.430   .     S
C735   N762    1.368   .     A
C736   N766    1.430   .     S
C736   N761    1.368   .     A
C736   C889    1.434   .     S
C737   H749    1.083   .     S
C737   C746    1.495   .     S
C737   O778    1.220   .     D
C738   C747    1.495   .     S
C738   H753    1.083   .     S
C738   O768    1.220   .     D
C739   O769    1.221   .     D
C739   C748    1.493   .     S
C739   H754    1.084   .     S
C740   O772    1.281   .     A
C740   O771    1.282   .     A
C741   O770    1.221   .     D
C741   H755    1.084   .     S
C742   C744    1.368   .     S
C742   O777    1.281   .     A
C742   O774    1.280   .     A
C743   O775    1.280   .     A
C743   O776    1.281   .     A
C743   C745    1.368   .     S
C745   C1212   1.166   .     S
C747   C626    1.394   1_655 S
C748   C642    1.394   1_655 S
H750   N765    1.045   .     S
H751   N766    1.045   .     S
H752   N766    1.045   .     S
H756   N763    1.045   .     S
H757   N763    1.045   .     S
H758   N764    1.045   .     S
H759   N764    1.045   .     S
H760   N765    1.045   .     S
N761   Zn779   2.019   .     S
N762   Zn780   2.019   .     S
O767   Zn779   1.984   .     S
O771   Zn780   1.984   .     S
O772   Zn779   1.990   .     S
O773   Zn780   1.990   .     S
O774   Zn779   1.951   .     S
O775   Zn780   1.951   .     S
O776   Zn779   1.953   .     S
O777   Zn780   1.953   .     S
C781   C784    1.412   .     S
C781   O825    1.281   .     A
C781   O819    1.282   .     A
C782   C784    1.407   .     A
C782   C793    1.493   .     S
C782   C903    1.394   1_455 S
C783   C799    1.407   .     A
C783   C800    1.407   .     A
C783   C792    1.412   .     S
C784   C798    1.407   .     A
C785   N814    1.368   .     A
C785   N815    1.431   .     S
C786   N813    1.368   .     A
C786   N816    1.431   .     S
C786   C475    1.434   1_565 S
C787   N817    1.430   .     S
C787   N814    1.368   .     A
C788   N818    1.430   .     S
C788   N813    1.368   .     A
C788   C473    1.434   1_565 S
C789   H801    1.083   .     S
C789   C798    1.495   .     S
C789   O830    1.220   .     D
C790   C799    1.495   .     S
C790   H805    1.083   .     S
C790   O820    1.220   .     D
C791   O821    1.221   .     D
C791   C800    1.493   .     S
C791   H806    1.084   .     S
C792   O824    1.281   .     A
C792   O823    1.282   .     A
C793   O822    1.221   .     D
C793   H807    1.084   .     S
C794   C796    1.368   .     S
C794   O829    1.281   .     A
C794   O826    1.280   .     A
C795   O827    1.280   .     A
C795   O828    1.281   .     A
C795   C797    1.368   .     S
C797   C1264   1.166   .     S
C798   C904    1.394   1_455 S
C799   C834    1.394   .     S
C800   C850    1.394   .     S
H802   N817    1.045   .     S
H803   N818    1.045   .     S
H804   N818    1.045   .     S
H808   N815    1.045   .     S
H809   N815    1.045   .     S
H810   N816    1.045   .     S
H811   N816    1.045   .     S
H812   N817    1.045   .     S
N813   Zn831   2.019   .     S
N814   Zn832   2.019   .     S
O819   Zn831   1.984   .     S
O823   Zn832   1.984   .     S
O824   Zn831   1.990   .     S
O825   Zn832   1.990   .     S
O826   Zn831   1.951   .     S
O827   Zn832   1.951   .     S
O828   Zn831   1.953   .     S
O829   Zn832   1.953   .     S
C833   C836    1.412   .     S
C833   O877    1.281   .     A
C833   O871    1.282   .     A
C834   C836    1.407   .     A
C834   C845    1.493   .     S
C835   C851    1.407   .     A
C835   C852    1.407   .     A
C835   C844    1.412   .     S
C836   C850    1.407   .     A
C837   N866    1.368   .     A
C837   N867    1.431   .     S
C838   N865    1.368   .     A
C838   N868    1.431   .     S
C838   C527    1.434   1_565 S
C839   N869    1.430   .     S
C839   N866    1.368   .     A
C840   N870    1.430   .     S
C840   N865    1.368   .     A
C840   C525    1.434   1_565 S
C841   H853    1.083   .     S
C841   C850    1.495   .     S
C841   O882    1.220   .     D
C842   C851    1.495   .     S
C842   H857    1.083   .     S
C842   O872    1.220   .     D
C843   O873    1.221   .     D
C843   C852    1.493   .     S
C843   H858    1.084   .     S
C844   O876    1.281   .     A
C844   O875    1.282   .     A
C845   O874    1.221   .     D
C845   H859    1.084   .     S
C846   C848    1.368   .     S
C846   O881    1.281   .     A
C846   O878    1.280   .     A
C847   O879    1.280   .     A
C847   O880    1.281   .     A
C847   C849    1.368   .     S
C849   C1316   1.166   .     S
C851   C886    1.394   .     S
C852   C902    1.394   .     S
H854   N869    1.045   .     S
H855   N870    1.045   .     S
H856   N870    1.045   .     S
H860   N867    1.045   .     S
H861   N867    1.045   .     S
H862   N868    1.045   .     S
H863   N868    1.045   .     S
H864   N869    1.045   .     S
N865   Zn883   2.019   .     S
N866   Zn884   2.019   .     S
O871   Zn883   1.984   .     S
O875   Zn884   1.984   .     S
O876   Zn883   1.990   .     S
O877   Zn884   1.990   .     S
O878   Zn883   1.951   .     S
O879   Zn884   1.951   .     S
O880   Zn883   1.953   .     S
O881   Zn884   1.953   .     S
C885   C888    1.412   .     S
C885   O929    1.281   .     A
C885   O923    1.282   .     A
C886   C888    1.407   .     A
C886   C897    1.493   .     S
C887   C903    1.407   .     A
C887   C904    1.407   .     A
C887   C896    1.412   .     S
C888   C902    1.407   .     A
C889   N918    1.368   .     A
C889   N919    1.431   .     S
C890   N917    1.368   .     A
C890   N920    1.431   .     S
C890   C579    1.434   1_565 S
C891   N921    1.430   .     S
C891   N918    1.368   .     A
C892   N922    1.430   .     S
C892   N917    1.368   .     A
C892   C577    1.434   1_565 S
C893   H905    1.083   .     S
C893   C902    1.495   .     S
C893   O934    1.220   .     D
C894   C903    1.495   .     S
C894   H909    1.083   .     S
C894   O924    1.220   .     D
C895   O925    1.221   .     D
C895   C904    1.493   .     S
C895   H910    1.084   .     S
C896   O928    1.281   .     A
C896   O927    1.282   .     A
C897   O926    1.221   .     D
C897   H911    1.084   .     S
C898   C900    1.368   .     S
C898   O933    1.281   .     A
C898   O930    1.280   .     A
C899   O931    1.280   .     A
C899   O932    1.281   .     A
C899   C901    1.368   .     S
C901   C1368   1.166   .     S
C903   C782    1.394   1_655 S
C904   C798    1.394   1_655 S
H906   N921    1.045   .     S
H907   N922    1.045   .     S
H908   N922    1.045   .     S
H912   N919    1.045   .     S
H913   N919    1.045   .     S
H914   N920    1.045   .     S
H915   N920    1.045   .     S
H916   N921    1.045   .     S
N917   Zn935   2.019   .     S
N918   Zn936   2.019   .     S
O923   Zn935   1.984   .     S
O927   Zn936   1.984   .     S
O928   Zn935   1.990   .     S
O929   Zn936   1.990   .     S
O930   Zn935   1.951   .     S
O931   Zn936   1.951   .     S
O932   Zn935   1.953   .     S
O933   Zn936   1.953   .     S
C937   C940    1.412   .     S
C937   O981    1.281   .     A
C937   O975    1.282   .     A
C938   C940    1.407   .     A
C938   C949    1.493   .     S
C938   C1059   1.394   1_455 S
C939   C955    1.407   .     A
C939   C956    1.407   .     A
C939   C948    1.412   .     S
C940   C954    1.407   .     A
C941   N970    1.368   .     A
C941   N971    1.431   .     S
C941   C1256   1.434   1_545 S
C942   N969    1.368   .     A
C942   N972    1.431   .     S
C942   C1099   1.434   .     S
C943   N973    1.430   .     S
C943   N970    1.368   .     A
C943   C1254   1.434   1_545 S
C944   N974    1.430   .     S
C944   N969    1.368   .     A
C944   C1097   1.434   .     S
C945   H957    1.083   .     S
C945   C954    1.495   .     S
C945   O986    1.220   .     D
C946   C955    1.495   .     S
C946   H961    1.083   .     S
C946   O976    1.220   .     D
C947   O977    1.221   .     D
C947   C956    1.493   .     S
C947   H962    1.084   .     S
C948   O980    1.281   .     A
C948   O979    1.282   .     A
C949   O978    1.221   .     D
C949   H963    1.084   .     S
C950   C952    1.368   .     S
C950   O985    1.281   .     A
C950   O982    1.280   .     A
C951   O983    1.280   .     A
C951   O984    1.281   .     A
C951   C953    1.368   .     S
C953   C16     1.166   1_556 S
C954   C1060   1.394   1_455 S
C955   C990    1.394   .     S
C956   C1006   1.394   .     S
H958   N973    1.045   .     S
H959   N974    1.045   .     S
H960   N974    1.045   .     S
H964   N971    1.045   .     S
H965   N971    1.045   .     S
H966   N972    1.045   .     S
H967   N972    1.045   .     S
H968   N973    1.045   .     S
N969   Zn987   2.019   .     S
N970   Zn988   2.019   .     S
O975   Zn987   1.984   .     S
O979   Zn988   1.984   .     S
O980   Zn987   1.990   .     S
O981   Zn988   1.990   .     S
O982   Zn987   1.951   .     S
O983   Zn988   1.951   .     S
O984   Zn987   1.953   .     S
O985   Zn988   1.953   .     S
C989   C992    1.412   .     S
C989   O1033   1.281   .     A
C989   O1027   1.282   .     A
C990   C992    1.407   .     A
C990   C1001   1.493   .     S
C991   C1007   1.407   .     A
C991   C1008   1.407   .     A
C991   C1000   1.412   .     S
C992   C1006   1.407   .     A
C993   N1022   1.368   .     A
C993   N1023   1.431   .     S
C993   C1308   1.434   1_545 S
C994   N1021   1.368   .     A
C994   N1024   1.431   .     S
C994   C1151   1.434   .     S
C995   N1025   1.430   .     S
C995   N1022   1.368   .     A
C995   C1306   1.434   1_545 S
C996   N1026   1.430   .     S
C996   N1021   1.368   .     A
C996   C1149   1.434   .     S
C997   H1009   1.083   .     S
C997   C1006   1.495   .     S
C997   O1038   1.220   .     D
C998   C1007   1.495   .     S
C998   H1013   1.083   .     S
C998   O1028   1.220   .     D
C999   O1029   1.221   .     D
C999   C1008   1.493   .     S
C999   H1014   1.084   .     S
C1000  O1032   1.281   .     A
C1000  O1031   1.282   .     A
C1001  O1030   1.221   .     D
C1001  H1015   1.084   .     S
C1002  C1004   1.368   .     S
C1002  O1037   1.281   .     A
C1002  O1034   1.280   .     A
C1003  O1035   1.280   .     A
C1003  O1036   1.281   .     A
C1003  C1005   1.368   .     S
C1005  C68     1.166   1_556 S
C1007  C1042   1.394   .     S
C1008  C1058   1.394   .     S
H1010  N1025   1.045   .     S
H1011  N1026   1.045   .     S
H1012  N1026   1.045   .     S
H1016  N1023   1.045   .     S
H1017  N1023   1.045   .     S
H1018  N1024   1.045   .     S
H1019  N1024   1.045   .     S
H1020  N1025   1.045   .     S
N1021  Zn1039  2.019   .     S
N1022  Zn1040  2.019   .     S
O1027  Zn1039  1.984   .     S
O1031  Zn1040  1.984   .     S
O1032  Zn1039  1.990   .     S
O1033  Zn1040  1.990   .     S
O1034  Zn1039  1.951   .     S
O1035  Zn1040  1.951   .     S
O1036  Zn1039  1.953   .     S
O1037  Zn1040  1.953   .     S
C1041  C1044   1.412   .     S
C1041  O1085   1.281   .     A
C1041  O1079   1.282   .     A
C1042  C1044   1.407   .     A
C1042  C1053   1.493   .     S
C1043  C1059   1.407   .     A
C1043  C1060   1.407   .     A
C1043  C1052   1.412   .     S
C1044  C1058   1.407   .     A
C1045  N1074   1.368   .     A
C1045  N1075   1.431   .     S
C1045  C1360   1.434   1_545 S
C1046  N1073   1.368   .     A
C1046  N1076   1.431   .     S
C1046  C1203   1.434   .     S
C1047  N1077   1.430   .     S
C1047  N1074   1.368   .     A
C1047  C1358   1.434   1_545 S
C1048  N1078   1.430   .     S
C1048  N1073   1.368   .     A
C1048  C1201   1.434   .     S
C1049  H1061   1.083   .     S
C1049  C1058   1.495   .     S
C1049  O1090   1.220   .     D
C1050  C1059   1.495   .     S
C1050  H1065   1.083   .     S
C1050  O1080   1.220   .     D
C1051  O1081   1.221   .     D
C1051  C1060   1.493   .     S
C1051  H1066   1.084   .     S
C1052  O1084   1.281   .     A
C1052  O1083   1.282   .     A
C1053  O1082   1.221   .     D
C1053  H1067   1.084   .     S
C1054  C1056   1.368   .     S
C1054  O1089   1.281   .     A
C1054  O1086   1.280   .     A
C1055  O1087   1.280   .     A
C1055  O1088   1.281   .     A
C1055  C1057   1.368   .     S
C1057  C120    1.166   1_556 S
C1059  C938    1.394   1_655 S
C1060  C954    1.394   1_655 S
H1062  N1077   1.045   .     S
H1063  N1078   1.045   .     S
H1064  N1078   1.045   .     S
H1068  N1075   1.045   .     S
H1069  N1075   1.045   .     S
H1070  N1076   1.045   .     S
H1071  N1076   1.045   .     S
H1072  N1077   1.045   .     S
N1073  Zn1091  2.019   .     S
N1074  Zn1092  2.019   .     S
O1079  Zn1091  1.984   .     S
O1083  Zn1092  1.984   .     S
O1084  Zn1091  1.990   .     S
O1085  Zn1092  1.990   .     S
O1086  Zn1091  1.951   .     S
O1087  Zn1092  1.951   .     S
O1088  Zn1091  1.953   .     S
O1089  Zn1092  1.953   .     S
C1093  C1096   1.412   .     S
C1093  O1137   1.281   .     A
C1093  O1131   1.282   .     A
C1094  C1096   1.407   .     A
C1094  C1105   1.493   .     S
C1094  C1215   1.394   1_455 S
C1095  C1111   1.407   .     A
C1095  C1112   1.407   .     A
C1095  C1104   1.412   .     S
C1096  C1110   1.407   .     A
C1097  N1126   1.368   .     A
C1097  N1127   1.431   .     S
C1098  N1125   1.368   .     A
C1098  N1128   1.431   .     S
C1098  C1255   1.434   .     S
C1099  N1129   1.430   .     S
C1099  N1126   1.368   .     A
C1100  N1130   1.430   .     S
C1100  N1125   1.368   .     A
C1100  C1253   1.434   .     S
C1101  H1113   1.083   .     S
C1101  C1110   1.495   .     S
C1101  O1142   1.220   .     D
C1102  C1111   1.495   .     S
C1102  H1117   1.083   .     S
C1102  O1132   1.220   .     D
C1103  O1133   1.221   .     D
C1103  C1112   1.493   .     S
C1103  H1118   1.084   .     S
C1104  O1136   1.281   .     A
C1104  O1135   1.282   .     A
C1105  O1134   1.221   .     D
C1105  H1119   1.084   .     S
C1106  C1108   1.368   .     S
C1106  O1141   1.281   .     A
C1106  O1138   1.280   .     A
C1107  O1139   1.280   .     A
C1107  O1140   1.281   .     A
C1107  C1109   1.368   .     S
C1109  C172    1.166   1_556 S
C1110  C1216   1.394   1_455 S
C1111  C1146   1.394   .     S
C1112  C1162   1.394   .     S
H1114  N1129   1.045   .     S
H1115  N1130   1.045   .     S
H1116  N1130   1.045   .     S
H1120  N1127   1.045   .     S
H1121  N1127   1.045   .     S
H1122  N1128   1.045   .     S
H1123  N1128   1.045   .     S
H1124  N1129   1.045   .     S
N1125  Zn1143  2.019   .     S
N1126  Zn1144  2.019   .     S
O1131  Zn1143  1.984   .     S
O1135  Zn1144  1.984   .     S
O1136  Zn1143  1.990   .     S
O1137  Zn1144  1.990   .     S
O1138  Zn1143  1.951   .     S
O1139  Zn1144  1.951   .     S
O1140  Zn1143  1.953   .     S
O1141  Zn1144  1.953   .     S
C1145  C1148   1.412   .     S
C1145  O1189   1.281   .     A
C1145  O1183   1.282   .     A
C1146  C1148   1.407   .     A
C1146  C1157   1.493   .     S
C1147  C1163   1.407   .     A
C1147  C1164   1.407   .     A
C1147  C1156   1.412   .     S
C1148  C1162   1.407   .     A
C1149  N1178   1.368   .     A
C1149  N1179   1.431   .     S
C1150  N1177   1.368   .     A
C1150  N1180   1.431   .     S
C1150  C1307   1.434   .     S
C1151  N1181   1.430   .     S
C1151  N1178   1.368   .     A
C1152  N1182   1.430   .     S
C1152  N1177   1.368   .     A
C1152  C1305   1.434   .     S
C1153  H1165   1.083   .     S
C1153  C1162   1.495   .     S
C1153  O1194   1.220   .     D
C1154  C1163   1.495   .     S
C1154  H1169   1.083   .     S
C1154  O1184   1.220   .     D
C1155  O1185   1.221   .     D
C1155  C1164   1.493   .     S
C1155  H1170   1.084   .     S
C1156  O1188   1.281   .     A
C1156  O1187   1.282   .     A
C1157  O1186   1.221   .     D
C1157  H1171   1.084   .     S
C1158  C1160   1.368   .     S
C1158  O1193   1.281   .     A
C1158  O1190   1.280   .     A
C1159  O1191   1.280   .     A
C1159  O1192   1.281   .     A
C1159  C1161   1.368   .     S
C1161  C224    1.166   1_556 S
C1163  C1198   1.394   .     S
C1164  C1214   1.394   .     S
H1166  N1181   1.045   .     S
H1167  N1182   1.045   .     S
H1168  N1182   1.045   .     S
H1172  N1179   1.045   .     S
H1173  N1179   1.045   .     S
H1174  N1180   1.045   .     S
H1175  N1180   1.045   .     S
H1176  N1181   1.045   .     S
N1177  Zn1195  2.019   .     S
N1178  Zn1196  2.019   .     S
O1183  Zn1195  1.984   .     S
O1187  Zn1196  1.984   .     S
O1188  Zn1195  1.990   .     S
O1189  Zn1196  1.990   .     S
O1190  Zn1195  1.951   .     S
O1191  Zn1196  1.951   .     S
O1192  Zn1195  1.953   .     S
O1193  Zn1196  1.953   .     S
C1197  C1200   1.412   .     S
C1197  O1241   1.281   .     A
C1197  O1235   1.282   .     A
C1198  C1200   1.407   .     A
C1198  C1209   1.493   .     S
C1199  C1215   1.407   .     A
C1199  C1216   1.407   .     A
C1199  C1208   1.412   .     S
C1200  C1214   1.407   .     A
C1201  N1230   1.368   .     A
C1201  N1231   1.431   .     S
C1202  N1229   1.368   .     A
C1202  N1232   1.431   .     S
C1202  C1359   1.434   .     S
C1203  N1233   1.430   .     S
C1203  N1230   1.368   .     A
C1204  N1234   1.430   .     S
C1204  N1229   1.368   .     A
C1204  C1357   1.434   .     S
C1205  H1217   1.083   .     S
C1205  C1214   1.495   .     S
C1205  O1246   1.220   .     D
C1206  C1215   1.495   .     S
C1206  H1221   1.083   .     S
C1206  O1236   1.220   .     D
C1207  O1237   1.221   .     D
C1207  C1216   1.493   .     S
C1207  H1222   1.084   .     S
C1208  O1240   1.281   .     A
C1208  O1239   1.282   .     A
C1209  O1238   1.221   .     D
C1209  H1223   1.084   .     S
C1210  C1212   1.368   .     S
C1210  O1245   1.281   .     A
C1210  O1242   1.280   .     A
C1211  O1243   1.280   .     A
C1211  O1244   1.281   .     A
C1211  C1213   1.368   .     S
C1213  C276    1.166   1_556 S
C1215  C1094   1.394   1_655 S
C1216  C1110   1.394   1_655 S
H1218  N1233   1.045   .     S
H1219  N1234   1.045   .     S
H1220  N1234   1.045   .     S
H1224  N1231   1.045   .     S
H1225  N1231   1.045   .     S
H1226  N1232   1.045   .     S
H1227  N1232   1.045   .     S
H1228  N1233   1.045   .     S
N1229  Zn1247  2.019   .     S
N1230  Zn1248  2.019   .     S
O1235  Zn1247  1.984   .     S
O1239  Zn1248  1.984   .     S
O1240  Zn1247  1.990   .     S
O1241  Zn1248  1.990   .     S
O1242  Zn1247  1.951   .     S
O1243  Zn1248  1.951   .     S
O1244  Zn1247  1.953   .     S
O1245  Zn1248  1.953   .     S
C1249  C1252   1.412   .     S
C1249  O1293   1.281   .     A
C1249  O1287   1.282   .     A
C1250  C1252   1.407   .     A
C1250  C1261   1.493   .     S
C1250  C1371   1.394   1_455 S
C1251  C1267   1.407   .     A
C1251  C1268   1.407   .     A
C1251  C1260   1.412   .     S
C1252  C1266   1.407   .     A
C1253  N1282   1.368   .     A
C1253  N1283   1.431   .     S
C1254  N1281   1.368   .     A
C1254  N1284   1.431   .     S
C1254  C943    1.434   1_565 S
C1255  N1285   1.430   .     S
C1255  N1282   1.368   .     A
C1256  N1286   1.430   .     S
C1256  N1281   1.368   .     A
C1256  C941    1.434   1_565 S
C1257  H1269   1.083   .     S
C1257  C1266   1.495   .     S
C1257  O1298   1.220   .     D
C1258  C1267   1.495   .     S
C1258  H1273   1.083   .     S
C1258  O1288   1.220   .     D
C1259  O1289   1.221   .     D
C1259  C1268   1.493   .     S
C1259  H1274   1.084   .     S
C1260  O1292   1.281   .     A
C1260  O1291   1.282   .     A
C1261  O1290   1.221   .     D
C1261  H1275   1.084   .     S
C1262  C1264   1.368   .     S
C1262  O1297   1.281   .     A
C1262  O1294   1.280   .     A
C1263  O1295   1.280   .     A
C1263  O1296   1.281   .     A
C1263  C1265   1.368   .     S
C1265  C328    1.166   1_556 S
C1266  C1372   1.394   1_455 S
C1267  C1302   1.394   .     S
C1268  C1318   1.394   .     S
H1270  N1285   1.045   .     S
H1271  N1286   1.045   .     S
H1272  N1286   1.045   .     S
H1276  N1283   1.045   .     S
H1277  N1283   1.045   .     S
H1278  N1284   1.045   .     S
H1279  N1284   1.045   .     S
H1280  N1285   1.045   .     S
N1281  Zn1299  2.019   .     S
N1282  Zn1300  2.019   .     S
O1287  Zn1299  1.984   .     S
O1291  Zn1300  1.984   .     S
O1292  Zn1299  1.990   .     S
O1293  Zn1300  1.990   .     S
O1294  Zn1299  1.951   .     S
O1295  Zn1300  1.951   .     S
O1296  Zn1299  1.953   .     S
O1297  Zn1300  1.953   .     S
C1301  C1304   1.412   .     S
C1301  O1345   1.281   .     A
C1301  O1339   1.282   .     A
C1302  C1304   1.407   .     A
C1302  C1313   1.493   .     S
C1303  C1319   1.407   .     A
C1303  C1320   1.407   .     A
C1303  C1312   1.412   .     S
C1304  C1318   1.407   .     A
C1305  N1334   1.368   .     A
C1305  N1335   1.431   .     S
C1306  N1333   1.368   .     A
C1306  N1336   1.431   .     S
C1306  C995    1.434   1_565 S
C1307  N1337   1.430   .     S
C1307  N1334   1.368   .     A
C1308  N1338   1.430   .     S
C1308  N1333   1.368   .     A
C1308  C993    1.434   1_565 S
C1309  H1321   1.083   .     S
C1309  C1318   1.495   .     S
C1309  O1350   1.220   .     D
C1310  C1319   1.495   .     S
C1310  H1325   1.083   .     S
C1310  O1340   1.220   .     D
C1311  O1341   1.221   .     D
C1311  C1320   1.493   .     S
C1311  H1326   1.084   .     S
C1312  O1344   1.281   .     A
C1312  O1343   1.282   .     A
C1313  O1342   1.221   .     D
C1313  H1327   1.084   .     S
C1314  C1316   1.368   .     S
C1314  O1349   1.281   .     A
C1314  O1346   1.280   .     A
C1315  O1347   1.280   .     A
C1315  O1348   1.281   .     A
C1315  C1317   1.368   .     S
C1317  C380    1.166   1_556 S
C1319  C1354   1.394   .     S
C1320  C1370   1.394   .     S
H1322  N1337   1.045   .     S
H1323  N1338   1.045   .     S
H1324  N1338   1.045   .     S
H1328  N1335   1.045   .     S
H1329  N1335   1.045   .     S
H1330  N1336   1.045   .     S
H1331  N1336   1.045   .     S
H1332  N1337   1.045   .     S
N1333  Zn1351  2.019   .     S
N1334  Zn1352  2.019   .     S
O1339  Zn1351  1.984   .     S
O1343  Zn1352  1.984   .     S
O1344  Zn1351  1.990   .     S
O1345  Zn1352  1.990   .     S
O1346  Zn1351  1.951   .     S
O1347  Zn1352  1.951   .     S
O1348  Zn1351  1.953   .     S
O1349  Zn1352  1.953   .     S
C1353  C1356   1.412   .     S
C1353  O1397   1.281   .     A
C1353  O1391   1.282   .     A
C1354  C1356   1.407   .     A
C1354  C1365   1.493   .     S
C1355  C1371   1.407   .     A
C1355  C1372   1.407   .     A
C1355  C1364   1.412   .     S
C1356  C1370   1.407   .     A
C1357  N1386   1.368   .     A
C1357  N1387   1.431   .     S
C1358  N1385   1.368   .     A
C1358  N1388   1.431   .     S
C1358  C1047   1.434   1_565 S
C1359  N1389   1.430   .     S
C1359  N1386   1.368   .     A
C1360  N1390   1.430   .     S
C1360  N1385   1.368   .     A
C1360  C1045   1.434   1_565 S
C1361  H1373   1.083   .     S
C1361  C1370   1.495   .     S
C1361  O1402   1.220   .     D
C1362  C1371   1.495   .     S
C1362  H1377   1.083   .     S
C1362  O1392   1.220   .     D
C1363  O1393   1.221   .     D
C1363  C1372   1.493   .     S
C1363  H1378   1.084   .     S
C1364  O1396   1.281   .     A
C1364  O1395   1.282   .     A
C1365  O1394   1.221   .     D
C1365  H1379   1.084   .     S
C1366  C1368   1.368   .     S
C1366  O1401   1.281   .     A
C1366  O1398   1.280   .     A
C1367  O1399   1.280   .     A
C1367  O1400   1.281   .     A
C1367  C1369   1.368   .     S
C1369  C432    1.166   1_556 S
C1371  C1250   1.394   1_655 S
C1372  C1266   1.394   1_655 S
H1374  N1389   1.045   .     S
H1375  N1390   1.045   .     S
H1376  N1390   1.045   .     S
H1380  N1387   1.045   .     S
H1381  N1387   1.045   .     S
H1382  N1388   1.045   .     S
H1383  N1388   1.045   .     S
H1384  N1389   1.045   .     S
N1385  Zn1403  2.019   .     S
N1386  Zn1404  2.019   .     S
O1391  Zn1403  1.984   .     S
O1395  Zn1404  1.984   .     S
O1396  Zn1403  1.990   .     S
O1397  Zn1404  1.990   .     S
O1398  Zn1403  1.951   .     S
O1399  Zn1404  1.951   .     S
O1400  Zn1403  1.953   .     S
O1401  Zn1404  1.953   .     S
