data_str_m2_o1_o18_pcu_sym.139
_audit_creation_date              2020-01-03
_audit_creation_method            'Materials Studio'
_symmetry_space_group_name_H-M    'P1'
_symmetry_Int_Tables_number       1
_symmetry_cell_setting            triclinic
loop_
_symmetry_equiv_pos_as_xyz
  x,y,z
_cell_length_a                    28.5646
_cell_length_b                    32.5014
_cell_length_c                    30.8045
_cell_angle_alpha                 89.8848
_cell_angle_beta                  74.0808
_cell_angle_gamma                 90.0013
loop_
_atom_site_label
_atom_site_type_symbol
_atom_site_fract_x
_atom_site_fract_y
_atom_site_fract_z
_atom_site_U_iso_or_equiv
_atom_site_adp_type
_atom_site_occupancy
C1     C     0.33331   0.08736   0.25004   0.00000  Uiso   1.00
C2     C     0.00002   0.24597   0.24998   0.00000  Uiso   1.00
C3     C     0.18776   0.21184   0.04185   0.00000  Uiso   1.00
C4     C     0.13482   0.18049   0.44925   0.00000  Uiso   1.00
C5     C     0.23658   0.21725   0.01808   0.00000  Uiso   1.00
C6     C     0.08619   0.17454   0.47290   0.00000  Uiso   1.00
C7     C     0.29071   0.02127   0.25026   0.00000  Uiso   1.00
C8     C     0.04261   0.31205   0.24978   0.00000  Uiso   1.00
C9     C     0.29073   0.31204   0.25022   0.00000  Uiso   1.00
C10    C     0.04259   0.02129   0.24983   0.00000  Uiso   1.00
C11    C     0.00001   0.29059   0.24999   0.00000  Uiso   1.00
C12    C     0.33331   0.04274   0.25005   0.00000  Uiso   1.00
C13    C     0.18252   0.14312   0.28013   0.00000  Uiso   1.00
C14    C     0.15080   0.19026   0.21991   0.00000  Uiso   1.00
C15    C     0.13292   0.14315   0.28014   0.00000  Uiso   1.00
C16    C     0.20040   0.19022   0.21989   0.00000  Uiso   1.00
C17    C     0.30592   0.16776   0.33623   0.00000  Uiso   1.00
C18    C     0.02739   0.16678   0.16370   0.00000  Uiso   1.00
C19    C     0.29042   0.17574   0.38496   0.00000  Uiso   1.00
C20    C     0.04218   0.16894   0.11412   0.00000  Uiso   1.00
C21    C     0.30365   0.20817   0.45118   0.00000  Uiso   1.00
C22    C     0.02282   0.16617   0.04254   0.00000  Uiso   1.00
C23    C     0.32163   0.19480   0.40674   0.00000  Uiso   1.00
C24    C     0.00795   0.16452   0.08947   0.00000  Uiso   1.00
C25    C     0.24152   0.16978   0.40823   0.00000  Uiso   1.00
C26    C     0.09105   0.17631   0.09130   0.00000  Uiso   1.00
C27    C     0.22158   0.18675   0.45126   0.00000  Uiso   1.00
C28    C     0.10605   0.18205   0.04424   0.00000  Uiso   1.00
C29    C     0.25403   0.20386   0.47372   0.00000  Uiso   1.00
C30    C     0.07167   0.17418   0.01979   0.00000  Uiso   1.00
C31    C     0.17071   0.18583   0.47311   0.00000  Uiso   1.00
C32    C     0.15484   0.19271   0.02062   0.00000  Uiso   1.00
Cu33   Cu    0.04689   0.16667   0.25000   0.00000  Uiso   1.00
Cu34   Cu    0.28645   0.16666   0.25000   0.00000  Uiso   1.00
H35    H     0.26104   0.23198   0.03470   0.00000  Uiso   1.00
H36    H     0.05970   0.16968   0.45413   0.00000  Uiso   1.00
H37    H     0.11730   0.17572   0.11060   0.00000  Uiso   1.00
H38    H     0.21972   0.15124   0.39224   0.00000  Uiso   1.00
H39    H     0.30329   0.15875   0.10633   0.00000  Uiso   1.00
H40    H     0.02617   0.20024   0.38916   0.00000  Uiso   1.00
H41    H     0.32829   0.22275   0.46765   0.00000  Uiso   1.00
H42    H     0.32946   0.16099   0.02402   0.00000  Uiso   1.00
H43    H     0.25739   0.03728   0.25046   0.00000  Uiso   1.00
H44    H     0.07593   0.29605   0.24958   0.00000  Uiso   1.00
H45    H     0.25742   0.29603   0.25038   0.00000  Uiso   1.00
H46    H     0.07590   0.03730   0.24967   0.00000  Uiso   1.00
H47    H     0.19403   0.12417   0.30422   0.00000  Uiso   1.00
H48    H     0.13927   0.20925   0.19586   0.00000  Uiso   1.00
H49    H     0.10709   0.12428   0.30425   0.00000  Uiso   1.00
H50    H     0.22623   0.20912   0.19580   0.00000  Uiso   1.00
N51    N     0.11736   0.16668   0.24999   0.00000  Uiso   1.00
N52    N     0.21597   0.16666   0.25001   0.00000  Uiso   1.00
O53    O     0.03958   0.10655   0.25000   0.00000  Uiso   1.00
O54    O     0.29375   0.22678   0.25000   0.00000  Uiso   1.00
O55    O     0.29372   0.10654   0.25000   0.00000  Uiso   1.00
O56    O     0.03961   0.22679   0.24999   0.00000  Uiso   1.00
O57    O     0.01852   0.16668   0.31491   0.00000  Uiso   1.00
O58    O     0.31481   0.16666   0.18508   0.00000  Uiso   1.00
O59    O     0.27267   0.16667   0.31492   0.00000  Uiso   1.00
O60    O     0.06067   0.16667   0.18508   0.00000  Uiso   1.00
N61    N     0.17118   0.23041   0.08557   0.00000  Uiso   1.00
H62    H     0.17835   0.26198   0.08217   0.00000  Uiso   1.00
H63    H     0.19147   0.21819   0.10610   0.00000  Uiso   1.00
N64    N     0.14603   0.18594   0.40127   0.00000  Uiso   1.00
H65    H     0.12603   0.21099   0.39468   0.00000  Uiso   1.00
H66    H     0.13447   0.15974   0.38746   0.00000  Uiso   1.00
C67    C     0.66664   0.08736   0.25004   0.00000  Uiso   1.00
C68    C     0.33335   0.24597   0.24998   0.00000  Uiso   1.00
C69    C     0.52109   0.21184   0.04185   0.00000  Uiso   1.00
C70    C     0.46816   0.18049   0.44925   0.00000  Uiso   1.00
C71    C     0.56991   0.21725   0.01808   0.00000  Uiso   1.00
C72    C     0.41952   0.17454   0.47290   0.00000  Uiso   1.00
C73    C     0.62404   0.02127   0.25026   0.00000  Uiso   1.00
C74    C     0.37594   0.31205   0.24978   0.00000  Uiso   1.00
C75    C     0.62406   0.31204   0.25022   0.00000  Uiso   1.00
C76    C     0.37593   0.02129   0.24983   0.00000  Uiso   1.00
C77    C     0.33334   0.29059   0.24999   0.00000  Uiso   1.00
C78    C     0.66665   0.04274   0.25005   0.00000  Uiso   1.00
C79    C     0.51586   0.14312   0.28013   0.00000  Uiso   1.00
C80    C     0.48413   0.19026   0.21991   0.00000  Uiso   1.00
C81    C     0.46626   0.14315   0.28014   0.00000  Uiso   1.00
C82    C     0.53374   0.19022   0.21989   0.00000  Uiso   1.00
C83    C     0.63925   0.16776   0.33623   0.00000  Uiso   1.00
C84    C     0.36072   0.16678   0.16370   0.00000  Uiso   1.00
C85    C     0.62375   0.17574   0.38496   0.00000  Uiso   1.00
C86    C     0.37552   0.16894   0.11412   0.00000  Uiso   1.00
C87    C     0.63698   0.20817   0.45118   0.00000  Uiso   1.00
C88    C     0.35615   0.16617   0.04254   0.00000  Uiso   1.00
C89    C     0.65496   0.19480   0.40674   0.00000  Uiso   1.00
C90    C     0.34128   0.16452   0.08947   0.00000  Uiso   1.00
C91    C     0.57485   0.16978   0.40823   0.00000  Uiso   1.00
C92    C     0.42438   0.17631   0.09130   0.00000  Uiso   1.00
C93    C     0.55492   0.18675   0.45126   0.00000  Uiso   1.00
C94    C     0.43938   0.18205   0.04424   0.00000  Uiso   1.00
C95    C     0.58736   0.20386   0.47372   0.00000  Uiso   1.00
C96    C     0.40500   0.17418   0.01979   0.00000  Uiso   1.00
C97    C     0.50404   0.18583   0.47311   0.00000  Uiso   1.00
C98    C     0.48818   0.19271   0.02062   0.00000  Uiso   1.00
Cu99   Cu    0.38022   0.16667   0.25000   0.00000  Uiso   1.00
Cu100  Cu    0.61978   0.16666   0.25000   0.00000  Uiso   1.00
H101   H     0.59437   0.23198   0.03470   0.00000  Uiso   1.00
H102   H     0.39304   0.16968   0.45413   0.00000  Uiso   1.00
H103   H     0.45064   0.17572   0.11060   0.00000  Uiso   1.00
H104   H     0.55305   0.15124   0.39224   0.00000  Uiso   1.00
H105   H     0.63663   0.15875   0.10633   0.00000  Uiso   1.00
H106   H     0.35950   0.20024   0.38916   0.00000  Uiso   1.00
H107   H     0.66162   0.22275   0.46765   0.00000  Uiso   1.00
H108   H     0.66279   0.16099   0.02402   0.00000  Uiso   1.00
H109   H     0.59072   0.03728   0.25046   0.00000  Uiso   1.00
H110   H     0.40927   0.29605   0.24958   0.00000  Uiso   1.00
H111   H     0.59075   0.29603   0.25038   0.00000  Uiso   1.00
H112   H     0.40923   0.03730   0.24967   0.00000  Uiso   1.00
H113   H     0.52736   0.12417   0.30422   0.00000  Uiso   1.00
H114   H     0.47260   0.20925   0.19586   0.00000  Uiso   1.00
H115   H     0.44042   0.12428   0.30425   0.00000  Uiso   1.00
H116   H     0.55957   0.20912   0.19580   0.00000  Uiso   1.00
N117   N     0.45069   0.16668   0.24999   0.00000  Uiso   1.00
N118   N     0.54931   0.16666   0.25001   0.00000  Uiso   1.00
O119   O     0.37291   0.10655   0.25000   0.00000  Uiso   1.00
O120   O     0.62709   0.22678   0.25000   0.00000  Uiso   1.00
O121   O     0.62706   0.10654   0.25000   0.00000  Uiso   1.00
O122   O     0.37294   0.22679   0.24999   0.00000  Uiso   1.00
O123   O     0.35186   0.16668   0.31491   0.00000  Uiso   1.00
O124   O     0.64814   0.16666   0.18508   0.00000  Uiso   1.00
O125   O     0.60600   0.16667   0.31492   0.00000  Uiso   1.00
O126   O     0.39400   0.16667   0.18508   0.00000  Uiso   1.00
N127   N     0.50451   0.23041   0.08557   0.00000  Uiso   1.00
H128   H     0.51168   0.26198   0.08217   0.00000  Uiso   1.00
H129   H     0.52480   0.21819   0.10610   0.00000  Uiso   1.00
N130   N     0.47937   0.18594   0.40127   0.00000  Uiso   1.00
H131   H     0.45936   0.21099   0.39468   0.00000  Uiso   1.00
H132   H     0.46780   0.15974   0.38746   0.00000  Uiso   1.00
C133   C     0.99998   0.08736   0.25004   0.00000  Uiso   1.00
C134   C     0.66669   0.24597   0.24998   0.00000  Uiso   1.00
C135   C     0.85443   0.21184   0.04185   0.00000  Uiso   1.00
C136   C     0.80149   0.18049   0.44925   0.00000  Uiso   1.00
C137   C     0.90324   0.21725   0.01808   0.00000  Uiso   1.00
C138   C     0.75285   0.17454   0.47290   0.00000  Uiso   1.00
C139   C     0.95738   0.02127   0.25026   0.00000  Uiso   1.00
C140   C     0.70928   0.31205   0.24978   0.00000  Uiso   1.00
C141   C     0.95740   0.31204   0.25022   0.00000  Uiso   1.00
C142   C     0.70926   0.02129   0.24983   0.00000  Uiso   1.00
C143   C     0.66668   0.29059   0.24999   0.00000  Uiso   1.00
C144   C     0.99998   0.04274   0.25005   0.00000  Uiso   1.00
C145   C     0.84919   0.14312   0.28013   0.00000  Uiso   1.00
C146   C     0.81747   0.19026   0.21991   0.00000  Uiso   1.00
C147   C     0.79959   0.14315   0.28014   0.00000  Uiso   1.00
C148   C     0.86707   0.19022   0.21989   0.00000  Uiso   1.00
C149   C     0.97258   0.16776   0.33623   0.00000  Uiso   1.00
C150   C     0.69405   0.16678   0.16370   0.00000  Uiso   1.00
C151   C     0.95709   0.17574   0.38496   0.00000  Uiso   1.00
C152   C     0.70885   0.16894   0.11412   0.00000  Uiso   1.00
C153   C     0.97031   0.20817   0.45118   0.00000  Uiso   1.00
C154   C     0.68949   0.16617   0.04254   0.00000  Uiso   1.00
C155   C     0.98830   0.19480   0.40674   0.00000  Uiso   1.00
C156   C     0.67462   0.16452   0.08947   0.00000  Uiso   1.00
C157   C     0.90818   0.16978   0.40823   0.00000  Uiso   1.00
C158   C     0.75771   0.17631   0.09130   0.00000  Uiso   1.00
C159   C     0.88825   0.18675   0.45126   0.00000  Uiso   1.00
C160   C     0.77272   0.18205   0.04424   0.00000  Uiso   1.00
C161   C     0.92069   0.20386   0.47372   0.00000  Uiso   1.00
C162   C     0.73833   0.17418   0.01979   0.00000  Uiso   1.00
C163   C     0.83737   0.18583   0.47311   0.00000  Uiso   1.00
C164   C     0.82151   0.19271   0.02062   0.00000  Uiso   1.00
Cu165  Cu    0.71355   0.16667   0.25000   0.00000  Uiso   1.00
Cu166  Cu    0.95311   0.16666   0.25000   0.00000  Uiso   1.00
H167   H     0.92771   0.23198   0.03470   0.00000  Uiso   1.00
H168   H     0.72637   0.16968   0.45413   0.00000  Uiso   1.00
H169   H     0.78397   0.17572   0.11060   0.00000  Uiso   1.00
H170   H     0.88638   0.15124   0.39224   0.00000  Uiso   1.00
H171   H     0.96996   0.15875   0.10633   0.00000  Uiso   1.00
H172   H     0.69284   0.20024   0.38916   0.00000  Uiso   1.00
H173   H     0.99495   0.22275   0.46765   0.00000  Uiso   1.00
H174   H     0.99613   0.16099   0.02402   0.00000  Uiso   1.00
H175   H     0.92405   0.03728   0.25046   0.00000  Uiso   1.00
H176   H     0.74260   0.29605   0.24958   0.00000  Uiso   1.00
H177   H     0.92409   0.29603   0.25038   0.00000  Uiso   1.00
H178   H     0.74257   0.03730   0.24967   0.00000  Uiso   1.00
H179   H     0.86070   0.12417   0.30422   0.00000  Uiso   1.00
H180   H     0.80594   0.20925   0.19586   0.00000  Uiso   1.00
H181   H     0.77375   0.12428   0.30425   0.00000  Uiso   1.00
H182   H     0.89290   0.20912   0.19580   0.00000  Uiso   1.00
N183   N     0.78403   0.16668   0.24999   0.00000  Uiso   1.00
N184   N     0.88264   0.16666   0.25001   0.00000  Uiso   1.00
O185   O     0.70625   0.10655   0.25000   0.00000  Uiso   1.00
O186   O     0.96042   0.22678   0.25000   0.00000  Uiso   1.00
O187   O     0.96039   0.10654   0.25000   0.00000  Uiso   1.00
O188   O     0.70628   0.22679   0.24999   0.00000  Uiso   1.00
O189   O     0.68519   0.16668   0.31491   0.00000  Uiso   1.00
O190   O     0.98148   0.16666   0.18508   0.00000  Uiso   1.00
O191   O     0.93933   0.16667   0.31492   0.00000  Uiso   1.00
O192   O     0.72733   0.16667   0.18508   0.00000  Uiso   1.00
N193   N     0.83784   0.23041   0.08557   0.00000  Uiso   1.00
H194   H     0.84502   0.26198   0.08217   0.00000  Uiso   1.00
H195   H     0.85814   0.21819   0.10610   0.00000  Uiso   1.00
N196   N     0.81270   0.18594   0.40127   0.00000  Uiso   1.00
H197   H     0.79269   0.21099   0.39468   0.00000  Uiso   1.00
H198   H     0.80114   0.15974   0.38746   0.00000  Uiso   1.00
C199   C     0.33331   0.42069   0.25004   0.00000  Uiso   1.00
C200   C     0.00002   0.57931   0.24998   0.00000  Uiso   1.00
C201   C     0.18776   0.54518   0.04185   0.00000  Uiso   1.00
C202   C     0.13482   0.51383   0.44925   0.00000  Uiso   1.00
C203   C     0.23658   0.55058   0.01808   0.00000  Uiso   1.00
C204   C     0.08619   0.50787   0.47290   0.00000  Uiso   1.00
C205   C     0.29071   0.35461   0.25026   0.00000  Uiso   1.00
C206   C     0.04261   0.64538   0.24978   0.00000  Uiso   1.00
C207   C     0.29073   0.64537   0.25022   0.00000  Uiso   1.00
C208   C     0.04259   0.35462   0.24983   0.00000  Uiso   1.00
C209   C     0.00001   0.62392   0.24999   0.00000  Uiso   1.00
C210   C     0.33331   0.37607   0.25005   0.00000  Uiso   1.00
C211   C     0.18252   0.47645   0.28013   0.00000  Uiso   1.00
C212   C     0.15080   0.52359   0.21991   0.00000  Uiso   1.00
C213   C     0.13292   0.47649   0.28014   0.00000  Uiso   1.00
C214   C     0.20040   0.52355   0.21989   0.00000  Uiso   1.00
C215   C     0.30592   0.50109   0.33623   0.00000  Uiso   1.00
C216   C     0.02739   0.50012   0.16370   0.00000  Uiso   1.00
C217   C     0.29042   0.50907   0.38496   0.00000  Uiso   1.00
C218   C     0.04218   0.50227   0.11412   0.00000  Uiso   1.00
C219   C     0.30365   0.54150   0.45118   0.00000  Uiso   1.00
C220   C     0.02282   0.49950   0.04254   0.00000  Uiso   1.00
C221   C     0.32163   0.52813   0.40674   0.00000  Uiso   1.00
C222   C     0.00795   0.49786   0.08947   0.00000  Uiso   1.00
C223   C     0.24152   0.50311   0.40823   0.00000  Uiso   1.00
C224   C     0.09105   0.50964   0.09130   0.00000  Uiso   1.00
C225   C     0.22158   0.52008   0.45126   0.00000  Uiso   1.00
C226   C     0.10605   0.51538   0.04424   0.00000  Uiso   1.00
C227   C     0.25403   0.53719   0.47372   0.00000  Uiso   1.00
C228   C     0.07167   0.50752   0.01979   0.00000  Uiso   1.00
C229   C     0.17071   0.51916   0.47311   0.00000  Uiso   1.00
C230   C     0.15484   0.52604   0.02062   0.00000  Uiso   1.00
Cu231  Cu    0.04689   0.50001   0.25000   0.00000  Uiso   1.00
Cu232  Cu    0.28645   0.49999   0.25000   0.00000  Uiso   1.00
H233   H     0.26104   0.56531   0.03470   0.00000  Uiso   1.00
H234   H     0.05970   0.50301   0.45413   0.00000  Uiso   1.00
H235   H     0.11730   0.50905   0.11060   0.00000  Uiso   1.00
H236   H     0.21972   0.48457   0.39224   0.00000  Uiso   1.00
H237   H     0.30329   0.49208   0.10633   0.00000  Uiso   1.00
H238   H     0.02617   0.53357   0.38916   0.00000  Uiso   1.00
H239   H     0.32829   0.55608   0.46765   0.00000  Uiso   1.00
H240   H     0.32946   0.49432   0.02402   0.00000  Uiso   1.00
H241   H     0.25739   0.37061   0.25046   0.00000  Uiso   1.00
H242   H     0.07593   0.62938   0.24958   0.00000  Uiso   1.00
H243   H     0.25742   0.62936   0.25038   0.00000  Uiso   1.00
H244   H     0.07590   0.37063   0.24967   0.00000  Uiso   1.00
H245   H     0.19403   0.45750   0.30422   0.00000  Uiso   1.00
H246   H     0.13927   0.54258   0.19586   0.00000  Uiso   1.00
H247   H     0.10709   0.45761   0.30425   0.00000  Uiso   1.00
H248   H     0.22623   0.54246   0.19580   0.00000  Uiso   1.00
N249   N     0.11736   0.50001   0.24999   0.00000  Uiso   1.00
N250   N     0.21597   0.49999   0.25001   0.00000  Uiso   1.00
O251   O     0.03958   0.43989   0.25000   0.00000  Uiso   1.00
O252   O     0.29375   0.56011   0.25000   0.00000  Uiso   1.00
O253   O     0.29372   0.43988   0.25000   0.00000  Uiso   1.00
O254   O     0.03961   0.56012   0.24999   0.00000  Uiso   1.00
O255   O     0.01852   0.50001   0.31491   0.00000  Uiso   1.00
O256   O     0.31481   0.49999   0.18508   0.00000  Uiso   1.00
O257   O     0.27267   0.50000   0.31492   0.00000  Uiso   1.00
O258   O     0.06067   0.50000   0.18508   0.00000  Uiso   1.00
N259   N     0.17118   0.56375   0.08557   0.00000  Uiso   1.00
H260   H     0.17835   0.59532   0.08217   0.00000  Uiso   1.00
H261   H     0.19147   0.55152   0.10610   0.00000  Uiso   1.00
N262   N     0.14603   0.51928   0.40127   0.00000  Uiso   1.00
H263   H     0.12603   0.54433   0.39468   0.00000  Uiso   1.00
H264   H     0.13447   0.49307   0.38746   0.00000  Uiso   1.00
C265   C     0.66664   0.42069   0.25004   0.00000  Uiso   1.00
C266   C     0.33335   0.57931   0.24998   0.00000  Uiso   1.00
C267   C     0.52109   0.54518   0.04185   0.00000  Uiso   1.00
C268   C     0.46816   0.51383   0.44925   0.00000  Uiso   1.00
C269   C     0.56991   0.55058   0.01808   0.00000  Uiso   1.00
C270   C     0.41952   0.50787   0.47290   0.00000  Uiso   1.00
C271   C     0.62404   0.35461   0.25026   0.00000  Uiso   1.00
C272   C     0.37594   0.64538   0.24978   0.00000  Uiso   1.00
C273   C     0.62406   0.64537   0.25022   0.00000  Uiso   1.00
C274   C     0.37593   0.35462   0.24983   0.00000  Uiso   1.00
C275   C     0.33334   0.62392   0.24999   0.00000  Uiso   1.00
C276   C     0.66665   0.37607   0.25005   0.00000  Uiso   1.00
C277   C     0.51586   0.47645   0.28013   0.00000  Uiso   1.00
C278   C     0.48413   0.52359   0.21991   0.00000  Uiso   1.00
C279   C     0.46626   0.47649   0.28014   0.00000  Uiso   1.00
C280   C     0.53374   0.52355   0.21989   0.00000  Uiso   1.00
C281   C     0.63925   0.50109   0.33623   0.00000  Uiso   1.00
C282   C     0.36072   0.50012   0.16370   0.00000  Uiso   1.00
C283   C     0.62375   0.50907   0.38496   0.00000  Uiso   1.00
C284   C     0.37552   0.50227   0.11412   0.00000  Uiso   1.00
C285   C     0.63698   0.54150   0.45118   0.00000  Uiso   1.00
C286   C     0.35615   0.49950   0.04254   0.00000  Uiso   1.00
C287   C     0.65496   0.52813   0.40674   0.00000  Uiso   1.00
C288   C     0.34128   0.49786   0.08947   0.00000  Uiso   1.00
C289   C     0.57485   0.50311   0.40823   0.00000  Uiso   1.00
C290   C     0.42438   0.50964   0.09130   0.00000  Uiso   1.00
C291   C     0.55492   0.52008   0.45126   0.00000  Uiso   1.00
C292   C     0.43938   0.51538   0.04424   0.00000  Uiso   1.00
C293   C     0.58736   0.53719   0.47372   0.00000  Uiso   1.00
C294   C     0.40500   0.50752   0.01979   0.00000  Uiso   1.00
C295   C     0.50404   0.51916   0.47311   0.00000  Uiso   1.00
C296   C     0.48818   0.52604   0.02062   0.00000  Uiso   1.00
Cu297  Cu    0.38022   0.50001   0.25000   0.00000  Uiso   1.00
Cu298  Cu    0.61978   0.49999   0.25000   0.00000  Uiso   1.00
H299   H     0.59437   0.56531   0.03470   0.00000  Uiso   1.00
H300   H     0.39304   0.50301   0.45413   0.00000  Uiso   1.00
H301   H     0.45064   0.50905   0.11060   0.00000  Uiso   1.00
H302   H     0.55305   0.48457   0.39224   0.00000  Uiso   1.00
H303   H     0.63663   0.49208   0.10633   0.00000  Uiso   1.00
H304   H     0.35950   0.53357   0.38916   0.00000  Uiso   1.00
H305   H     0.66162   0.55608   0.46765   0.00000  Uiso   1.00
H306   H     0.66279   0.49432   0.02402   0.00000  Uiso   1.00
H307   H     0.59072   0.37061   0.25046   0.00000  Uiso   1.00
H308   H     0.40927   0.62938   0.24958   0.00000  Uiso   1.00
H309   H     0.59075   0.62936   0.25038   0.00000  Uiso   1.00
H310   H     0.40923   0.37063   0.24967   0.00000  Uiso   1.00
H311   H     0.52736   0.45750   0.30422   0.00000  Uiso   1.00
H312   H     0.47260   0.54258   0.19586   0.00000  Uiso   1.00
H313   H     0.44042   0.45761   0.30425   0.00000  Uiso   1.00
H314   H     0.55957   0.54246   0.19580   0.00000  Uiso   1.00
N315   N     0.45069   0.50001   0.24999   0.00000  Uiso   1.00
N316   N     0.54931   0.49999   0.25001   0.00000  Uiso   1.00
O317   O     0.37291   0.43989   0.25000   0.00000  Uiso   1.00
O318   O     0.62709   0.56011   0.25000   0.00000  Uiso   1.00
O319   O     0.62706   0.43988   0.25000   0.00000  Uiso   1.00
O320   O     0.37294   0.56012   0.24999   0.00000  Uiso   1.00
O321   O     0.35186   0.50001   0.31491   0.00000  Uiso   1.00
O322   O     0.64814   0.49999   0.18508   0.00000  Uiso   1.00
O323   O     0.60600   0.50000   0.31492   0.00000  Uiso   1.00
O324   O     0.39400   0.50000   0.18508   0.00000  Uiso   1.00
N325   N     0.50451   0.56375   0.08557   0.00000  Uiso   1.00
H326   H     0.51168   0.59532   0.08217   0.00000  Uiso   1.00
H327   H     0.52480   0.55152   0.10610   0.00000  Uiso   1.00
N328   N     0.47937   0.51928   0.40127   0.00000  Uiso   1.00
H329   H     0.45936   0.54433   0.39468   0.00000  Uiso   1.00
H330   H     0.46780   0.49307   0.38746   0.00000  Uiso   1.00
C331   C     0.99998   0.42069   0.25004   0.00000  Uiso   1.00
C332   C     0.66669   0.57931   0.24998   0.00000  Uiso   1.00
C333   C     0.85443   0.54518   0.04185   0.00000  Uiso   1.00
C334   C     0.80149   0.51383   0.44925   0.00000  Uiso   1.00
C335   C     0.90324   0.55058   0.01808   0.00000  Uiso   1.00
C336   C     0.75285   0.50787   0.47290   0.00000  Uiso   1.00
C337   C     0.95738   0.35461   0.25026   0.00000  Uiso   1.00
C338   C     0.70928   0.64538   0.24978   0.00000  Uiso   1.00
C339   C     0.95740   0.64537   0.25022   0.00000  Uiso   1.00
C340   C     0.70926   0.35462   0.24983   0.00000  Uiso   1.00
C341   C     0.66668   0.62392   0.24999   0.00000  Uiso   1.00
C342   C     0.99998   0.37607   0.25005   0.00000  Uiso   1.00
C343   C     0.84919   0.47645   0.28013   0.00000  Uiso   1.00
C344   C     0.81747   0.52359   0.21991   0.00000  Uiso   1.00
C345   C     0.79959   0.47649   0.28014   0.00000  Uiso   1.00
C346   C     0.86707   0.52355   0.21989   0.00000  Uiso   1.00
C347   C     0.97258   0.50109   0.33623   0.00000  Uiso   1.00
C348   C     0.69405   0.50012   0.16370   0.00000  Uiso   1.00
C349   C     0.95709   0.50907   0.38496   0.00000  Uiso   1.00
C350   C     0.70885   0.50227   0.11412   0.00000  Uiso   1.00
C351   C     0.97031   0.54150   0.45118   0.00000  Uiso   1.00
C352   C     0.68949   0.49950   0.04254   0.00000  Uiso   1.00
C353   C     0.98830   0.52813   0.40674   0.00000  Uiso   1.00
C354   C     0.67462   0.49786   0.08947   0.00000  Uiso   1.00
C355   C     0.90818   0.50311   0.40823   0.00000  Uiso   1.00
C356   C     0.75771   0.50964   0.09130   0.00000  Uiso   1.00
C357   C     0.88825   0.52008   0.45126   0.00000  Uiso   1.00
C358   C     0.77272   0.51538   0.04424   0.00000  Uiso   1.00
C359   C     0.92069   0.53719   0.47372   0.00000  Uiso   1.00
C360   C     0.73833   0.50752   0.01979   0.00000  Uiso   1.00
C361   C     0.83737   0.51916   0.47311   0.00000  Uiso   1.00
C362   C     0.82151   0.52604   0.02062   0.00000  Uiso   1.00
Cu363  Cu    0.71355   0.50001   0.25000   0.00000  Uiso   1.00
Cu364  Cu    0.95311   0.49999   0.25000   0.00000  Uiso   1.00
H365   H     0.92771   0.56531   0.03470   0.00000  Uiso   1.00
H366   H     0.72637   0.50301   0.45413   0.00000  Uiso   1.00
H367   H     0.78397   0.50905   0.11060   0.00000  Uiso   1.00
H368   H     0.88638   0.48457   0.39224   0.00000  Uiso   1.00
H369   H     0.96996   0.49208   0.10633   0.00000  Uiso   1.00
H370   H     0.69284   0.53357   0.38916   0.00000  Uiso   1.00
H371   H     0.99495   0.55608   0.46765   0.00000  Uiso   1.00
H372   H     0.99613   0.49432   0.02402   0.00000  Uiso   1.00
H373   H     0.92405   0.37061   0.25046   0.00000  Uiso   1.00
H374   H     0.74260   0.62938   0.24958   0.00000  Uiso   1.00
H375   H     0.92409   0.62936   0.25038   0.00000  Uiso   1.00
H376   H     0.74257   0.37063   0.24967   0.00000  Uiso   1.00
H377   H     0.86070   0.45750   0.30422   0.00000  Uiso   1.00
H378   H     0.80594   0.54258   0.19586   0.00000  Uiso   1.00
H379   H     0.77375   0.45761   0.30425   0.00000  Uiso   1.00
H380   H     0.89290   0.54246   0.19580   0.00000  Uiso   1.00
N381   N     0.78403   0.50001   0.24999   0.00000  Uiso   1.00
N382   N     0.88264   0.49999   0.25001   0.00000  Uiso   1.00
O383   O     0.70625   0.43989   0.25000   0.00000  Uiso   1.00
O384   O     0.96042   0.56011   0.25000   0.00000  Uiso   1.00
O385   O     0.96039   0.43988   0.25000   0.00000  Uiso   1.00
O386   O     0.70628   0.56012   0.24999   0.00000  Uiso   1.00
O387   O     0.68519   0.50001   0.31491   0.00000  Uiso   1.00
O388   O     0.98148   0.49999   0.18508   0.00000  Uiso   1.00
O389   O     0.93933   0.50000   0.31492   0.00000  Uiso   1.00
O390   O     0.72733   0.50000   0.18508   0.00000  Uiso   1.00
N391   N     0.83784   0.56375   0.08557   0.00000  Uiso   1.00
H392   H     0.84502   0.59532   0.08217   0.00000  Uiso   1.00
H393   H     0.85814   0.55152   0.10610   0.00000  Uiso   1.00
N394   N     0.81270   0.51928   0.40127   0.00000  Uiso   1.00
H395   H     0.79269   0.54433   0.39468   0.00000  Uiso   1.00
H396   H     0.80114   0.49307   0.38746   0.00000  Uiso   1.00
C397   C     0.33331   0.75402   0.25004   0.00000  Uiso   1.00
C398   C     0.00002   0.91264   0.24998   0.00000  Uiso   1.00
C399   C     0.18776   0.87851   0.04185   0.00000  Uiso   1.00
C400   C     0.13482   0.84716   0.44925   0.00000  Uiso   1.00
C401   C     0.23658   0.88391   0.01808   0.00000  Uiso   1.00
C402   C     0.08619   0.84121   0.47290   0.00000  Uiso   1.00
C403   C     0.29071   0.68794   0.25026   0.00000  Uiso   1.00
C404   C     0.04261   0.97872   0.24978   0.00000  Uiso   1.00
C405   C     0.29073   0.97871   0.25022   0.00000  Uiso   1.00
C406   C     0.04259   0.68795   0.24983   0.00000  Uiso   1.00
C407   C     0.00001   0.95726   0.24999   0.00000  Uiso   1.00
C408   C     0.33331   0.70940   0.25005   0.00000  Uiso   1.00
C409   C     0.18252   0.80978   0.28013   0.00000  Uiso   1.00
C410   C     0.15080   0.85693   0.21991   0.00000  Uiso   1.00
C411   C     0.13292   0.80982   0.28014   0.00000  Uiso   1.00
C412   C     0.20040   0.85689   0.21989   0.00000  Uiso   1.00
C413   C     0.30592   0.83443   0.33623   0.00000  Uiso   1.00
C414   C     0.02739   0.83345   0.16370   0.00000  Uiso   1.00
C415   C     0.29042   0.84240   0.38496   0.00000  Uiso   1.00
C416   C     0.04218   0.83560   0.11412   0.00000  Uiso   1.00
C417   C     0.30365   0.87483   0.45118   0.00000  Uiso   1.00
C418   C     0.02282   0.83283   0.04254   0.00000  Uiso   1.00
C419   C     0.32163   0.86147   0.40674   0.00000  Uiso   1.00
C420   C     0.00795   0.83119   0.08947   0.00000  Uiso   1.00
C421   C     0.24152   0.83645   0.40823   0.00000  Uiso   1.00
C422   C     0.09105   0.84297   0.09130   0.00000  Uiso   1.00
C423   C     0.22158   0.85341   0.45126   0.00000  Uiso   1.00
C424   C     0.10605   0.84871   0.04424   0.00000  Uiso   1.00
C425   C     0.25403   0.87053   0.47372   0.00000  Uiso   1.00
C426   C     0.07167   0.84085   0.01979   0.00000  Uiso   1.00
C427   C     0.17071   0.85250   0.47311   0.00000  Uiso   1.00
C428   C     0.15484   0.85938   0.02062   0.00000  Uiso   1.00
Cu429  Cu    0.04689   0.83334   0.25000   0.00000  Uiso   1.00
Cu430  Cu    0.28645   0.83333   0.25000   0.00000  Uiso   1.00
H431   H     0.26104   0.89864   0.03470   0.00000  Uiso   1.00
H432   H     0.05970   0.83634   0.45413   0.00000  Uiso   1.00
H433   H     0.11730   0.84239   0.11060   0.00000  Uiso   1.00
H434   H     0.21972   0.81791   0.39224   0.00000  Uiso   1.00
H435   H     0.30329   0.82542   0.10633   0.00000  Uiso   1.00
H436   H     0.02617   0.86691   0.38916   0.00000  Uiso   1.00
H437   H     0.32829   0.88942   0.46765   0.00000  Uiso   1.00
H438   H     0.32946   0.82766   0.02402   0.00000  Uiso   1.00
H439   H     0.25739   0.70394   0.25046   0.00000  Uiso   1.00
H440   H     0.07593   0.96271   0.24958   0.00000  Uiso   1.00
H441   H     0.25742   0.96269   0.25038   0.00000  Uiso   1.00
H442   H     0.07590   0.70396   0.24967   0.00000  Uiso   1.00
H443   H     0.19403   0.79084   0.30422   0.00000  Uiso   1.00
H444   H     0.13927   0.87591   0.19586   0.00000  Uiso   1.00
H445   H     0.10709   0.79094   0.30425   0.00000  Uiso   1.00
H446   H     0.22623   0.87579   0.19580   0.00000  Uiso   1.00
N447   N     0.11736   0.83334   0.24999   0.00000  Uiso   1.00
N448   N     0.21597   0.83332   0.25001   0.00000  Uiso   1.00
O449   O     0.03958   0.77322   0.25000   0.00000  Uiso   1.00
O450   O     0.29375   0.89345   0.25000   0.00000  Uiso   1.00
O451   O     0.29372   0.77321   0.25000   0.00000  Uiso   1.00
O452   O     0.03961   0.89346   0.24999   0.00000  Uiso   1.00
O453   O     0.01852   0.83334   0.31491   0.00000  Uiso   1.00
O454   O     0.31481   0.83332   0.18508   0.00000  Uiso   1.00
O455   O     0.27267   0.83333   0.31492   0.00000  Uiso   1.00
O456   O     0.06067   0.83333   0.18508   0.00000  Uiso   1.00
N457   N     0.17118   0.89708   0.08557   0.00000  Uiso   1.00
H458   H     0.17835   0.92865   0.08217   0.00000  Uiso   1.00
H459   H     0.19147   0.88485   0.10610   0.00000  Uiso   1.00
N460   N     0.14603   0.85261   0.40127   0.00000  Uiso   1.00
H461   H     0.12603   0.87766   0.39468   0.00000  Uiso   1.00
H462   H     0.13447   0.82640   0.38746   0.00000  Uiso   1.00
C463   C     0.66664   0.75402   0.25004   0.00000  Uiso   1.00
C464   C     0.33335   0.91264   0.24998   0.00000  Uiso   1.00
C465   C     0.52109   0.87851   0.04185   0.00000  Uiso   1.00
C466   C     0.46816   0.84716   0.44925   0.00000  Uiso   1.00
C467   C     0.56991   0.88391   0.01808   0.00000  Uiso   1.00
C468   C     0.41952   0.84121   0.47290   0.00000  Uiso   1.00
C469   C     0.62404   0.68794   0.25026   0.00000  Uiso   1.00
C470   C     0.37594   0.97872   0.24978   0.00000  Uiso   1.00
C471   C     0.62406   0.97871   0.25022   0.00000  Uiso   1.00
C472   C     0.37593   0.68795   0.24983   0.00000  Uiso   1.00
C473   C     0.33334   0.95726   0.24999   0.00000  Uiso   1.00
C474   C     0.66665   0.70940   0.25005   0.00000  Uiso   1.00
C475   C     0.51586   0.80978   0.28013   0.00000  Uiso   1.00
C476   C     0.48413   0.85693   0.21991   0.00000  Uiso   1.00
C477   C     0.46626   0.80982   0.28014   0.00000  Uiso   1.00
C478   C     0.53374   0.85689   0.21989   0.00000  Uiso   1.00
C479   C     0.63925   0.83443   0.33623   0.00000  Uiso   1.00
C480   C     0.36072   0.83345   0.16370   0.00000  Uiso   1.00
C481   C     0.62375   0.84240   0.38496   0.00000  Uiso   1.00
C482   C     0.37552   0.83560   0.11412   0.00000  Uiso   1.00
C483   C     0.63698   0.87483   0.45118   0.00000  Uiso   1.00
C484   C     0.35615   0.83283   0.04254   0.00000  Uiso   1.00
C485   C     0.65496   0.86147   0.40674   0.00000  Uiso   1.00
C486   C     0.34128   0.83119   0.08947   0.00000  Uiso   1.00
C487   C     0.57485   0.83645   0.40823   0.00000  Uiso   1.00
C488   C     0.42438   0.84297   0.09130   0.00000  Uiso   1.00
C489   C     0.55492   0.85341   0.45126   0.00000  Uiso   1.00
C490   C     0.43938   0.84871   0.04424   0.00000  Uiso   1.00
C491   C     0.58736   0.87053   0.47372   0.00000  Uiso   1.00
C492   C     0.40500   0.84085   0.01979   0.00000  Uiso   1.00
C493   C     0.50404   0.85250   0.47311   0.00000  Uiso   1.00
C494   C     0.48818   0.85938   0.02062   0.00000  Uiso   1.00
Cu495  Cu    0.38022   0.83334   0.25000   0.00000  Uiso   1.00
Cu496  Cu    0.61978   0.83333   0.25000   0.00000  Uiso   1.00
H497   H     0.59437   0.89864   0.03470   0.00000  Uiso   1.00
H498   H     0.39304   0.83634   0.45413   0.00000  Uiso   1.00
H499   H     0.45064   0.84239   0.11060   0.00000  Uiso   1.00
H500   H     0.55305   0.81791   0.39224   0.00000  Uiso   1.00
H501   H     0.63663   0.82542   0.10633   0.00000  Uiso   1.00
H502   H     0.35950   0.86691   0.38916   0.00000  Uiso   1.00
H503   H     0.66162   0.88942   0.46765   0.00000  Uiso   1.00
H504   H     0.66279   0.82766   0.02402   0.00000  Uiso   1.00
H505   H     0.59072   0.70394   0.25046   0.00000  Uiso   1.00
H506   H     0.40927   0.96271   0.24958   0.00000  Uiso   1.00
H507   H     0.59075   0.96269   0.25038   0.00000  Uiso   1.00
H508   H     0.40923   0.70396   0.24967   0.00000  Uiso   1.00
H509   H     0.52736   0.79084   0.30422   0.00000  Uiso   1.00
H510   H     0.47260   0.87591   0.19586   0.00000  Uiso   1.00
H511   H     0.44042   0.79094   0.30425   0.00000  Uiso   1.00
H512   H     0.55957   0.87579   0.19580   0.00000  Uiso   1.00
N513   N     0.45069   0.83334   0.24999   0.00000  Uiso   1.00
N514   N     0.54931   0.83332   0.25001   0.00000  Uiso   1.00
O515   O     0.37291   0.77322   0.25000   0.00000  Uiso   1.00
O516   O     0.62709   0.89345   0.25000   0.00000  Uiso   1.00
O517   O     0.62706   0.77321   0.25000   0.00000  Uiso   1.00
O518   O     0.37294   0.89346   0.24999   0.00000  Uiso   1.00
O519   O     0.35186   0.83334   0.31491   0.00000  Uiso   1.00
O520   O     0.64814   0.83332   0.18508   0.00000  Uiso   1.00
O521   O     0.60600   0.83333   0.31492   0.00000  Uiso   1.00
O522   O     0.39400   0.83333   0.18508   0.00000  Uiso   1.00
N523   N     0.50451   0.89708   0.08557   0.00000  Uiso   1.00
H524   H     0.51168   0.92865   0.08217   0.00000  Uiso   1.00
H525   H     0.52480   0.88485   0.10610   0.00000  Uiso   1.00
N526   N     0.47937   0.85261   0.40127   0.00000  Uiso   1.00
H527   H     0.45936   0.87766   0.39468   0.00000  Uiso   1.00
H528   H     0.46780   0.82640   0.38746   0.00000  Uiso   1.00
C529   C     0.99998   0.75402   0.25004   0.00000  Uiso   1.00
C530   C     0.66669   0.91264   0.24998   0.00000  Uiso   1.00
C531   C     0.85443   0.87851   0.04185   0.00000  Uiso   1.00
C532   C     0.80149   0.84716   0.44925   0.00000  Uiso   1.00
C533   C     0.90324   0.88391   0.01808   0.00000  Uiso   1.00
C534   C     0.75285   0.84121   0.47290   0.00000  Uiso   1.00
C535   C     0.95738   0.68794   0.25026   0.00000  Uiso   1.00
C536   C     0.70928   0.97872   0.24978   0.00000  Uiso   1.00
C537   C     0.95740   0.97871   0.25022   0.00000  Uiso   1.00
C538   C     0.70926   0.68795   0.24983   0.00000  Uiso   1.00
C539   C     0.66668   0.95726   0.24999   0.00000  Uiso   1.00
C540   C     0.99998   0.70940   0.25005   0.00000  Uiso   1.00
C541   C     0.84919   0.80978   0.28013   0.00000  Uiso   1.00
C542   C     0.81747   0.85693   0.21991   0.00000  Uiso   1.00
C543   C     0.79959   0.80982   0.28014   0.00000  Uiso   1.00
C544   C     0.86707   0.85689   0.21989   0.00000  Uiso   1.00
C545   C     0.97258   0.83443   0.33623   0.00000  Uiso   1.00
C546   C     0.69405   0.83345   0.16370   0.00000  Uiso   1.00
C547   C     0.95709   0.84240   0.38496   0.00000  Uiso   1.00
C548   C     0.70885   0.83560   0.11412   0.00000  Uiso   1.00
C549   C     0.97031   0.87483   0.45118   0.00000  Uiso   1.00
C550   C     0.68949   0.83283   0.04254   0.00000  Uiso   1.00
C551   C     0.98830   0.86147   0.40674   0.00000  Uiso   1.00
C552   C     0.67462   0.83119   0.08947   0.00000  Uiso   1.00
C553   C     0.90818   0.83645   0.40823   0.00000  Uiso   1.00
C554   C     0.75771   0.84297   0.09130   0.00000  Uiso   1.00
C555   C     0.88825   0.85341   0.45126   0.00000  Uiso   1.00
C556   C     0.77272   0.84871   0.04424   0.00000  Uiso   1.00
C557   C     0.92069   0.87053   0.47372   0.00000  Uiso   1.00
C558   C     0.73833   0.84085   0.01979   0.00000  Uiso   1.00
C559   C     0.83737   0.85250   0.47311   0.00000  Uiso   1.00
C560   C     0.82151   0.85938   0.02062   0.00000  Uiso   1.00
Cu561  Cu    0.71355   0.83334   0.25000   0.00000  Uiso   1.00
Cu562  Cu    0.95311   0.83333   0.25000   0.00000  Uiso   1.00
H563   H     0.92771   0.89864   0.03470   0.00000  Uiso   1.00
H564   H     0.72637   0.83634   0.45413   0.00000  Uiso   1.00
H565   H     0.78397   0.84239   0.11060   0.00000  Uiso   1.00
H566   H     0.88638   0.81791   0.39224   0.00000  Uiso   1.00
H567   H     0.96996   0.82542   0.10633   0.00000  Uiso   1.00
H568   H     0.69284   0.86691   0.38916   0.00000  Uiso   1.00
H569   H     0.99495   0.88942   0.46765   0.00000  Uiso   1.00
H570   H     0.99613   0.82766   0.02402   0.00000  Uiso   1.00
H571   H     0.92405   0.70394   0.25046   0.00000  Uiso   1.00
H572   H     0.74260   0.96271   0.24958   0.00000  Uiso   1.00
H573   H     0.92409   0.96269   0.25038   0.00000  Uiso   1.00
H574   H     0.74257   0.70396   0.24967   0.00000  Uiso   1.00
H575   H     0.86070   0.79084   0.30422   0.00000  Uiso   1.00
H576   H     0.80594   0.87591   0.19586   0.00000  Uiso   1.00
H577   H     0.77375   0.79094   0.30425   0.00000  Uiso   1.00
H578   H     0.89290   0.87579   0.19580   0.00000  Uiso   1.00
N579   N     0.78403   0.83334   0.24999   0.00000  Uiso   1.00
N580   N     0.88264   0.83332   0.25001   0.00000  Uiso   1.00
O581   O     0.70625   0.77322   0.25000   0.00000  Uiso   1.00
O582   O     0.96042   0.89345   0.25000   0.00000  Uiso   1.00
O583   O     0.96039   0.77321   0.25000   0.00000  Uiso   1.00
O584   O     0.70628   0.89346   0.24999   0.00000  Uiso   1.00
O585   O     0.68519   0.83334   0.31491   0.00000  Uiso   1.00
O586   O     0.98148   0.83332   0.18508   0.00000  Uiso   1.00
O587   O     0.93933   0.83333   0.31492   0.00000  Uiso   1.00
O588   O     0.72733   0.83333   0.18508   0.00000  Uiso   1.00
N589   N     0.83784   0.89708   0.08557   0.00000  Uiso   1.00
H590   H     0.84502   0.92865   0.08217   0.00000  Uiso   1.00
H591   H     0.85814   0.88485   0.10610   0.00000  Uiso   1.00
N592   N     0.81270   0.85261   0.40127   0.00000  Uiso   1.00
H593   H     0.79269   0.87766   0.39468   0.00000  Uiso   1.00
H594   H     0.80114   0.82640   0.38746   0.00000  Uiso   1.00
C595   C     0.33331   0.08736   0.75004   0.00000  Uiso   1.00
C596   C     0.00002   0.24597   0.74998   0.00000  Uiso   1.00
C597   C     0.18776   0.21184   0.54185   0.00000  Uiso   1.00
C598   C     0.13482   0.18049   0.94925   0.00000  Uiso   1.00
C599   C     0.23658   0.21725   0.51808   0.00000  Uiso   1.00
C600   C     0.08619   0.17454   0.97290   0.00000  Uiso   1.00
C601   C     0.29071   0.02127   0.75026   0.00000  Uiso   1.00
C602   C     0.04261   0.31205   0.74978   0.00000  Uiso   1.00
C603   C     0.29073   0.31204   0.75022   0.00000  Uiso   1.00
C604   C     0.04259   0.02129   0.74983   0.00000  Uiso   1.00
C605   C     0.00001   0.29059   0.74999   0.00000  Uiso   1.00
C606   C     0.33331   0.04274   0.75005   0.00000  Uiso   1.00
C607   C     0.18252   0.14312   0.78013   0.00000  Uiso   1.00
C608   C     0.15080   0.19026   0.71991   0.00000  Uiso   1.00
C609   C     0.13292   0.14315   0.78014   0.00000  Uiso   1.00
C610   C     0.20040   0.19022   0.71989   0.00000  Uiso   1.00
C611   C     0.30592   0.16776   0.83623   0.00000  Uiso   1.00
C612   C     0.02739   0.16678   0.66370   0.00000  Uiso   1.00
C613   C     0.29042   0.17574   0.88496   0.00000  Uiso   1.00
C614   C     0.04218   0.16894   0.61412   0.00000  Uiso   1.00
C615   C     0.30365   0.20817   0.95118   0.00000  Uiso   1.00
C616   C     0.02282   0.16617   0.54254   0.00000  Uiso   1.00
C617   C     0.32163   0.19480   0.90674   0.00000  Uiso   1.00
C618   C     0.00795   0.16452   0.58947   0.00000  Uiso   1.00
C619   C     0.24152   0.16978   0.90823   0.00000  Uiso   1.00
C620   C     0.09105   0.17631   0.59130   0.00000  Uiso   1.00
C621   C     0.22158   0.18675   0.95126   0.00000  Uiso   1.00
C622   C     0.10605   0.18205   0.54424   0.00000  Uiso   1.00
C623   C     0.25403   0.20386   0.97372   0.00000  Uiso   1.00
C624   C     0.07167   0.17418   0.51979   0.00000  Uiso   1.00
C625   C     0.17071   0.18583   0.97311   0.00000  Uiso   1.00
C626   C     0.15484   0.19271   0.52062   0.00000  Uiso   1.00
Cu627  Cu    0.04689   0.16667   0.75000   0.00000  Uiso   1.00
Cu628  Cu    0.28645   0.16666   0.75000   0.00000  Uiso   1.00
H629   H     0.26104   0.23198   0.53470   0.00000  Uiso   1.00
H630   H     0.05970   0.16968   0.95413   0.00000  Uiso   1.00
H631   H     0.11730   0.17572   0.61060   0.00000  Uiso   1.00
H632   H     0.21972   0.15124   0.89224   0.00000  Uiso   1.00
H633   H     0.30329   0.15875   0.60633   0.00000  Uiso   1.00
H634   H     0.02617   0.20024   0.88916   0.00000  Uiso   1.00
H635   H     0.32829   0.22275   0.96765   0.00000  Uiso   1.00
H636   H     0.32946   0.16099   0.52402   0.00000  Uiso   1.00
H637   H     0.25739   0.03728   0.75046   0.00000  Uiso   1.00
H638   H     0.07593   0.29605   0.74958   0.00000  Uiso   1.00
H639   H     0.25742   0.29603   0.75038   0.00000  Uiso   1.00
H640   H     0.07590   0.03730   0.74967   0.00000  Uiso   1.00
H641   H     0.19403   0.12417   0.80422   0.00000  Uiso   1.00
H642   H     0.13927   0.20925   0.69586   0.00000  Uiso   1.00
H643   H     0.10709   0.12428   0.80425   0.00000  Uiso   1.00
H644   H     0.22623   0.20912   0.69580   0.00000  Uiso   1.00
N645   N     0.11736   0.16668   0.74999   0.00000  Uiso   1.00
N646   N     0.21597   0.16666   0.75001   0.00000  Uiso   1.00
O647   O     0.03958   0.10655   0.75000   0.00000  Uiso   1.00
O648   O     0.29375   0.22678   0.75000   0.00000  Uiso   1.00
O649   O     0.29372   0.10654   0.75000   0.00000  Uiso   1.00
O650   O     0.03961   0.22679   0.74999   0.00000  Uiso   1.00
O651   O     0.01852   0.16668   0.81491   0.00000  Uiso   1.00
O652   O     0.31481   0.16666   0.68508   0.00000  Uiso   1.00
O653   O     0.27267   0.16667   0.81492   0.00000  Uiso   1.00
O654   O     0.06067   0.16667   0.68508   0.00000  Uiso   1.00
N655   N     0.17118   0.23041   0.58557   0.00000  Uiso   1.00
H656   H     0.17835   0.26198   0.58217   0.00000  Uiso   1.00
H657   H     0.19147   0.21819   0.60610   0.00000  Uiso   1.00
N658   N     0.14603   0.18594   0.90127   0.00000  Uiso   1.00
H659   H     0.12603   0.21099   0.89468   0.00000  Uiso   1.00
H660   H     0.13447   0.15974   0.88746   0.00000  Uiso   1.00
C661   C     0.66664   0.08736   0.75004   0.00000  Uiso   1.00
C662   C     0.33335   0.24597   0.74998   0.00000  Uiso   1.00
C663   C     0.52109   0.21184   0.54185   0.00000  Uiso   1.00
C664   C     0.46816   0.18049   0.94925   0.00000  Uiso   1.00
C665   C     0.56991   0.21725   0.51808   0.00000  Uiso   1.00
C666   C     0.41952   0.17454   0.97290   0.00000  Uiso   1.00
C667   C     0.62404   0.02127   0.75026   0.00000  Uiso   1.00
C668   C     0.37594   0.31205   0.74978   0.00000  Uiso   1.00
C669   C     0.62406   0.31204   0.75022   0.00000  Uiso   1.00
C670   C     0.37593   0.02129   0.74983   0.00000  Uiso   1.00
C671   C     0.33334   0.29059   0.74999   0.00000  Uiso   1.00
C672   C     0.66665   0.04274   0.75005   0.00000  Uiso   1.00
C673   C     0.51586   0.14312   0.78013   0.00000  Uiso   1.00
C674   C     0.48413   0.19026   0.71991   0.00000  Uiso   1.00
C675   C     0.46626   0.14315   0.78014   0.00000  Uiso   1.00
C676   C     0.53374   0.19022   0.71989   0.00000  Uiso   1.00
C677   C     0.63925   0.16776   0.83623   0.00000  Uiso   1.00
C678   C     0.36072   0.16678   0.66370   0.00000  Uiso   1.00
C679   C     0.62375   0.17574   0.88496   0.00000  Uiso   1.00
C680   C     0.37552   0.16894   0.61412   0.00000  Uiso   1.00
C681   C     0.63698   0.20817   0.95118   0.00000  Uiso   1.00
C682   C     0.35615   0.16617   0.54254   0.00000  Uiso   1.00
C683   C     0.65496   0.19480   0.90674   0.00000  Uiso   1.00
C684   C     0.34128   0.16452   0.58947   0.00000  Uiso   1.00
C685   C     0.57485   0.16978   0.90823   0.00000  Uiso   1.00
C686   C     0.42438   0.17631   0.59130   0.00000  Uiso   1.00
C687   C     0.55492   0.18675   0.95126   0.00000  Uiso   1.00
C688   C     0.43938   0.18205   0.54424   0.00000  Uiso   1.00
C689   C     0.58736   0.20386   0.97372   0.00000  Uiso   1.00
C690   C     0.40500   0.17418   0.51979   0.00000  Uiso   1.00
C691   C     0.50404   0.18583   0.97311   0.00000  Uiso   1.00
C692   C     0.48818   0.19271   0.52062   0.00000  Uiso   1.00
Cu693  Cu    0.38022   0.16667   0.75000   0.00000  Uiso   1.00
Cu694  Cu    0.61978   0.16666   0.75000   0.00000  Uiso   1.00
H695   H     0.59437   0.23198   0.53470   0.00000  Uiso   1.00
H696   H     0.39304   0.16968   0.95413   0.00000  Uiso   1.00
H697   H     0.45064   0.17572   0.61060   0.00000  Uiso   1.00
H698   H     0.55305   0.15124   0.89224   0.00000  Uiso   1.00
H699   H     0.63663   0.15875   0.60633   0.00000  Uiso   1.00
H700   H     0.35950   0.20024   0.88916   0.00000  Uiso   1.00
H701   H     0.66162   0.22275   0.96765   0.00000  Uiso   1.00
H702   H     0.66279   0.16099   0.52402   0.00000  Uiso   1.00
H703   H     0.59072   0.03728   0.75046   0.00000  Uiso   1.00
H704   H     0.40927   0.29605   0.74958   0.00000  Uiso   1.00
H705   H     0.59075   0.29603   0.75038   0.00000  Uiso   1.00
H706   H     0.40923   0.03730   0.74967   0.00000  Uiso   1.00
H707   H     0.52736   0.12417   0.80422   0.00000  Uiso   1.00
H708   H     0.47260   0.20925   0.69586   0.00000  Uiso   1.00
H709   H     0.44042   0.12428   0.80425   0.00000  Uiso   1.00
H710   H     0.55957   0.20912   0.69580   0.00000  Uiso   1.00
N711   N     0.45069   0.16668   0.74999   0.00000  Uiso   1.00
N712   N     0.54931   0.16666   0.75001   0.00000  Uiso   1.00
O713   O     0.37291   0.10655   0.75000   0.00000  Uiso   1.00
O714   O     0.62709   0.22678   0.75000   0.00000  Uiso   1.00
O715   O     0.62706   0.10654   0.75000   0.00000  Uiso   1.00
O716   O     0.37294   0.22679   0.74999   0.00000  Uiso   1.00
O717   O     0.35186   0.16668   0.81491   0.00000  Uiso   1.00
O718   O     0.64814   0.16666   0.68508   0.00000  Uiso   1.00
O719   O     0.60600   0.16667   0.81492   0.00000  Uiso   1.00
O720   O     0.39400   0.16667   0.68508   0.00000  Uiso   1.00
N721   N     0.50451   0.23041   0.58557   0.00000  Uiso   1.00
H722   H     0.51168   0.26198   0.58217   0.00000  Uiso   1.00
H723   H     0.52480   0.21819   0.60610   0.00000  Uiso   1.00
N724   N     0.47937   0.18594   0.90127   0.00000  Uiso   1.00
H725   H     0.45936   0.21099   0.89468   0.00000  Uiso   1.00
H726   H     0.46780   0.15974   0.88746   0.00000  Uiso   1.00
C727   C     0.99998   0.08736   0.75004   0.00000  Uiso   1.00
C728   C     0.66669   0.24597   0.74998   0.00000  Uiso   1.00
C729   C     0.85443   0.21184   0.54185   0.00000  Uiso   1.00
C730   C     0.80149   0.18049   0.94925   0.00000  Uiso   1.00
C731   C     0.90324   0.21725   0.51808   0.00000  Uiso   1.00
C732   C     0.75285   0.17454   0.97290   0.00000  Uiso   1.00
C733   C     0.95738   0.02127   0.75026   0.00000  Uiso   1.00
C734   C     0.70928   0.31205   0.74978   0.00000  Uiso   1.00
C735   C     0.95740   0.31204   0.75022   0.00000  Uiso   1.00
C736   C     0.70926   0.02129   0.74983   0.00000  Uiso   1.00
C737   C     0.66668   0.29059   0.74999   0.00000  Uiso   1.00
C738   C     0.99998   0.04274   0.75005   0.00000  Uiso   1.00
C739   C     0.84919   0.14312   0.78013   0.00000  Uiso   1.00
C740   C     0.81747   0.19026   0.71991   0.00000  Uiso   1.00
C741   C     0.79959   0.14315   0.78014   0.00000  Uiso   1.00
C742   C     0.86707   0.19022   0.71989   0.00000  Uiso   1.00
C743   C     0.97258   0.16776   0.83623   0.00000  Uiso   1.00
C744   C     0.69405   0.16678   0.66370   0.00000  Uiso   1.00
C745   C     0.95709   0.17574   0.88496   0.00000  Uiso   1.00
C746   C     0.70885   0.16894   0.61412   0.00000  Uiso   1.00
C747   C     0.97031   0.20817   0.95118   0.00000  Uiso   1.00
C748   C     0.68949   0.16617   0.54254   0.00000  Uiso   1.00
C749   C     0.98830   0.19480   0.90674   0.00000  Uiso   1.00
C750   C     0.67462   0.16452   0.58947   0.00000  Uiso   1.00
C751   C     0.90818   0.16978   0.90823   0.00000  Uiso   1.00
C752   C     0.75771   0.17631   0.59130   0.00000  Uiso   1.00
C753   C     0.88825   0.18675   0.95126   0.00000  Uiso   1.00
C754   C     0.77272   0.18205   0.54424   0.00000  Uiso   1.00
C755   C     0.92069   0.20386   0.97372   0.00000  Uiso   1.00
C756   C     0.73833   0.17418   0.51979   0.00000  Uiso   1.00
C757   C     0.83737   0.18583   0.97311   0.00000  Uiso   1.00
C758   C     0.82151   0.19271   0.52062   0.00000  Uiso   1.00
Cu759  Cu    0.71355   0.16667   0.75000   0.00000  Uiso   1.00
Cu760  Cu    0.95311   0.16666   0.75000   0.00000  Uiso   1.00
H761   H     0.92771   0.23198   0.53470   0.00000  Uiso   1.00
H762   H     0.72637   0.16968   0.95413   0.00000  Uiso   1.00
H763   H     0.78397   0.17572   0.61060   0.00000  Uiso   1.00
H764   H     0.88638   0.15124   0.89224   0.00000  Uiso   1.00
H765   H     0.96996   0.15875   0.60633   0.00000  Uiso   1.00
H766   H     0.69284   0.20024   0.88916   0.00000  Uiso   1.00
H767   H     0.99495   0.22275   0.96765   0.00000  Uiso   1.00
H768   H     0.99613   0.16099   0.52402   0.00000  Uiso   1.00
H769   H     0.92405   0.03728   0.75046   0.00000  Uiso   1.00
H770   H     0.74260   0.29605   0.74958   0.00000  Uiso   1.00
H771   H     0.92409   0.29603   0.75038   0.00000  Uiso   1.00
H772   H     0.74257   0.03730   0.74967   0.00000  Uiso   1.00
H773   H     0.86070   0.12417   0.80422   0.00000  Uiso   1.00
H774   H     0.80594   0.20925   0.69586   0.00000  Uiso   1.00
H775   H     0.77375   0.12428   0.80425   0.00000  Uiso   1.00
H776   H     0.89290   0.20912   0.69580   0.00000  Uiso   1.00
N777   N     0.78403   0.16668   0.74999   0.00000  Uiso   1.00
N778   N     0.88264   0.16666   0.75001   0.00000  Uiso   1.00
O779   O     0.70625   0.10655   0.75000   0.00000  Uiso   1.00
O780   O     0.96042   0.22678   0.75000   0.00000  Uiso   1.00
O781   O     0.96039   0.10654   0.75000   0.00000  Uiso   1.00
O782   O     0.70628   0.22679   0.74999   0.00000  Uiso   1.00
O783   O     0.68519   0.16668   0.81491   0.00000  Uiso   1.00
O784   O     0.98148   0.16666   0.68508   0.00000  Uiso   1.00
O785   O     0.93933   0.16667   0.81492   0.00000  Uiso   1.00
O786   O     0.72733   0.16667   0.68508   0.00000  Uiso   1.00
N787   N     0.83784   0.23041   0.58557   0.00000  Uiso   1.00
H788   H     0.84502   0.26198   0.58217   0.00000  Uiso   1.00
H789   H     0.85814   0.21819   0.60610   0.00000  Uiso   1.00
N790   N     0.81270   0.18594   0.90127   0.00000  Uiso   1.00
H791   H     0.79269   0.21099   0.89468   0.00000  Uiso   1.00
H792   H     0.80114   0.15974   0.88746   0.00000  Uiso   1.00
C793   C     0.33331   0.42069   0.75004   0.00000  Uiso   1.00
C794   C     0.00002   0.57931   0.74998   0.00000  Uiso   1.00
C795   C     0.18776   0.54518   0.54185   0.00000  Uiso   1.00
C796   C     0.13482   0.51383   0.94925   0.00000  Uiso   1.00
C797   C     0.23658   0.55058   0.51808   0.00000  Uiso   1.00
C798   C     0.08619   0.50787   0.97290   0.00000  Uiso   1.00
C799   C     0.29071   0.35461   0.75026   0.00000  Uiso   1.00
C800   C     0.04261   0.64538   0.74978   0.00000  Uiso   1.00
C801   C     0.29073   0.64537   0.75022   0.00000  Uiso   1.00
C802   C     0.04259   0.35462   0.74983   0.00000  Uiso   1.00
C803   C     0.00001   0.62392   0.74999   0.00000  Uiso   1.00
C804   C     0.33331   0.37607   0.75005   0.00000  Uiso   1.00
C805   C     0.18252   0.47645   0.78013   0.00000  Uiso   1.00
C806   C     0.15080   0.52359   0.71991   0.00000  Uiso   1.00
C807   C     0.13292   0.47649   0.78014   0.00000  Uiso   1.00
C808   C     0.20040   0.52355   0.71989   0.00000  Uiso   1.00
C809   C     0.30592   0.50109   0.83623   0.00000  Uiso   1.00
C810   C     0.02739   0.50012   0.66370   0.00000  Uiso   1.00
C811   C     0.29042   0.50907   0.88496   0.00000  Uiso   1.00
C812   C     0.04218   0.50227   0.61412   0.00000  Uiso   1.00
C813   C     0.30365   0.54150   0.95118   0.00000  Uiso   1.00
C814   C     0.02282   0.49950   0.54254   0.00000  Uiso   1.00
C815   C     0.32163   0.52813   0.90674   0.00000  Uiso   1.00
C816   C     0.00795   0.49786   0.58947   0.00000  Uiso   1.00
C817   C     0.24152   0.50311   0.90823   0.00000  Uiso   1.00
C818   C     0.09105   0.50964   0.59130   0.00000  Uiso   1.00
C819   C     0.22158   0.52008   0.95126   0.00000  Uiso   1.00
C820   C     0.10605   0.51538   0.54424   0.00000  Uiso   1.00
C821   C     0.25403   0.53719   0.97372   0.00000  Uiso   1.00
C822   C     0.07167   0.50752   0.51979   0.00000  Uiso   1.00
C823   C     0.17071   0.51916   0.97311   0.00000  Uiso   1.00
C824   C     0.15484   0.52604   0.52062   0.00000  Uiso   1.00
Cu825  Cu    0.04689   0.50001   0.75000   0.00000  Uiso   1.00
Cu826  Cu    0.28645   0.49999   0.75000   0.00000  Uiso   1.00
H827   H     0.26104   0.56531   0.53470   0.00000  Uiso   1.00
H828   H     0.05970   0.50301   0.95413   0.00000  Uiso   1.00
H829   H     0.11730   0.50905   0.61060   0.00000  Uiso   1.00
H830   H     0.21972   0.48457   0.89224   0.00000  Uiso   1.00
H831   H     0.30329   0.49208   0.60633   0.00000  Uiso   1.00
H832   H     0.02617   0.53357   0.88916   0.00000  Uiso   1.00
H833   H     0.32829   0.55608   0.96765   0.00000  Uiso   1.00
H834   H     0.32946   0.49432   0.52402   0.00000  Uiso   1.00
H835   H     0.25739   0.37061   0.75046   0.00000  Uiso   1.00
H836   H     0.07593   0.62938   0.74958   0.00000  Uiso   1.00
H837   H     0.25742   0.62936   0.75038   0.00000  Uiso   1.00
H838   H     0.07590   0.37063   0.74967   0.00000  Uiso   1.00
H839   H     0.19403   0.45750   0.80422   0.00000  Uiso   1.00
H840   H     0.13927   0.54258   0.69586   0.00000  Uiso   1.00
H841   H     0.10709   0.45761   0.80425   0.00000  Uiso   1.00
H842   H     0.22623   0.54246   0.69580   0.00000  Uiso   1.00
N843   N     0.11736   0.50001   0.74999   0.00000  Uiso   1.00
N844   N     0.21597   0.49999   0.75001   0.00000  Uiso   1.00
O845   O     0.03958   0.43989   0.75000   0.00000  Uiso   1.00
O846   O     0.29375   0.56011   0.75000   0.00000  Uiso   1.00
O847   O     0.29372   0.43988   0.75000   0.00000  Uiso   1.00
O848   O     0.03961   0.56012   0.74999   0.00000  Uiso   1.00
O849   O     0.01852   0.50001   0.81491   0.00000  Uiso   1.00
O850   O     0.31481   0.49999   0.68508   0.00000  Uiso   1.00
O851   O     0.27267   0.50000   0.81492   0.00000  Uiso   1.00
O852   O     0.06067   0.50000   0.68508   0.00000  Uiso   1.00
N853   N     0.17118   0.56375   0.58557   0.00000  Uiso   1.00
H854   H     0.17835   0.59532   0.58217   0.00000  Uiso   1.00
H855   H     0.19147   0.55152   0.60610   0.00000  Uiso   1.00
N856   N     0.14603   0.51928   0.90127   0.00000  Uiso   1.00
H857   H     0.12603   0.54433   0.89468   0.00000  Uiso   1.00
H858   H     0.13447   0.49307   0.88746   0.00000  Uiso   1.00
C859   C     0.66664   0.42069   0.75004   0.00000  Uiso   1.00
C860   C     0.33335   0.57931   0.74998   0.00000  Uiso   1.00
C861   C     0.52109   0.54518   0.54185   0.00000  Uiso   1.00
C862   C     0.46816   0.51383   0.94925   0.00000  Uiso   1.00
C863   C     0.56991   0.55058   0.51808   0.00000  Uiso   1.00
C864   C     0.41952   0.50787   0.97290   0.00000  Uiso   1.00
C865   C     0.62404   0.35461   0.75026   0.00000  Uiso   1.00
C866   C     0.37594   0.64538   0.74978   0.00000  Uiso   1.00
C867   C     0.62406   0.64537   0.75022   0.00000  Uiso   1.00
C868   C     0.37593   0.35462   0.74983   0.00000  Uiso   1.00
C869   C     0.33334   0.62392   0.74999   0.00000  Uiso   1.00
C870   C     0.66665   0.37607   0.75005   0.00000  Uiso   1.00
C871   C     0.51586   0.47645   0.78013   0.00000  Uiso   1.00
C872   C     0.48413   0.52359   0.71991   0.00000  Uiso   1.00
C873   C     0.46626   0.47649   0.78014   0.00000  Uiso   1.00
C874   C     0.53374   0.52355   0.71989   0.00000  Uiso   1.00
C875   C     0.63925   0.50109   0.83623   0.00000  Uiso   1.00
C876   C     0.36072   0.50012   0.66370   0.00000  Uiso   1.00
C877   C     0.62375   0.50907   0.88496   0.00000  Uiso   1.00
C878   C     0.37552   0.50227   0.61412   0.00000  Uiso   1.00
C879   C     0.63698   0.54150   0.95118   0.00000  Uiso   1.00
C880   C     0.35615   0.49950   0.54254   0.00000  Uiso   1.00
C881   C     0.65496   0.52813   0.90674   0.00000  Uiso   1.00
C882   C     0.34128   0.49786   0.58947   0.00000  Uiso   1.00
C883   C     0.57485   0.50311   0.90823   0.00000  Uiso   1.00
C884   C     0.42438   0.50964   0.59130   0.00000  Uiso   1.00
C885   C     0.55492   0.52008   0.95126   0.00000  Uiso   1.00
C886   C     0.43938   0.51538   0.54424   0.00000  Uiso   1.00
C887   C     0.58736   0.53719   0.97372   0.00000  Uiso   1.00
C888   C     0.40500   0.50752   0.51979   0.00000  Uiso   1.00
C889   C     0.50404   0.51916   0.97311   0.00000  Uiso   1.00
C890   C     0.48818   0.52604   0.52062   0.00000  Uiso   1.00
Cu891  Cu    0.38022   0.50001   0.75000   0.00000  Uiso   1.00
Cu892  Cu    0.61978   0.49999   0.75000   0.00000  Uiso   1.00
H893   H     0.59437   0.56531   0.53470   0.00000  Uiso   1.00
H894   H     0.39304   0.50301   0.95413   0.00000  Uiso   1.00
H895   H     0.45064   0.50905   0.61060   0.00000  Uiso   1.00
H896   H     0.55305   0.48457   0.89224   0.00000  Uiso   1.00
H897   H     0.63663   0.49208   0.60633   0.00000  Uiso   1.00
H898   H     0.35950   0.53357   0.88916   0.00000  Uiso   1.00
H899   H     0.66162   0.55608   0.96765   0.00000  Uiso   1.00
H900   H     0.66279   0.49432   0.52402   0.00000  Uiso   1.00
H901   H     0.59072   0.37061   0.75046   0.00000  Uiso   1.00
H902   H     0.40927   0.62938   0.74958   0.00000  Uiso   1.00
H903   H     0.59075   0.62936   0.75038   0.00000  Uiso   1.00
H904   H     0.40923   0.37063   0.74967   0.00000  Uiso   1.00
H905   H     0.52736   0.45750   0.80422   0.00000  Uiso   1.00
H906   H     0.47260   0.54258   0.69586   0.00000  Uiso   1.00
H907   H     0.44042   0.45761   0.80425   0.00000  Uiso   1.00
H908   H     0.55957   0.54246   0.69580   0.00000  Uiso   1.00
N909   N     0.45069   0.50001   0.74999   0.00000  Uiso   1.00
N910   N     0.54931   0.49999   0.75001   0.00000  Uiso   1.00
O911   O     0.37291   0.43989   0.75000   0.00000  Uiso   1.00
O912   O     0.62709   0.56011   0.75000   0.00000  Uiso   1.00
O913   O     0.62706   0.43988   0.75000   0.00000  Uiso   1.00
O914   O     0.37294   0.56012   0.74999   0.00000  Uiso   1.00
O915   O     0.35186   0.50001   0.81491   0.00000  Uiso   1.00
O916   O     0.64814   0.49999   0.68508   0.00000  Uiso   1.00
O917   O     0.60600   0.50000   0.81492   0.00000  Uiso   1.00
O918   O     0.39400   0.50000   0.68508   0.00000  Uiso   1.00
N919   N     0.50451   0.56375   0.58557   0.00000  Uiso   1.00
H920   H     0.51168   0.59532   0.58217   0.00000  Uiso   1.00
H921   H     0.52480   0.55152   0.60610   0.00000  Uiso   1.00
N922   N     0.47937   0.51928   0.90127   0.00000  Uiso   1.00
H923   H     0.45936   0.54433   0.89468   0.00000  Uiso   1.00
H924   H     0.46780   0.49307   0.88746   0.00000  Uiso   1.00
C925   C     0.99998   0.42069   0.75004   0.00000  Uiso   1.00
C926   C     0.66669   0.57931   0.74998   0.00000  Uiso   1.00
C927   C     0.85443   0.54518   0.54185   0.00000  Uiso   1.00
C928   C     0.80149   0.51383   0.94925   0.00000  Uiso   1.00
C929   C     0.90324   0.55058   0.51808   0.00000  Uiso   1.00
C930   C     0.75285   0.50787   0.97290   0.00000  Uiso   1.00
C931   C     0.95738   0.35461   0.75026   0.00000  Uiso   1.00
C932   C     0.70928   0.64538   0.74978   0.00000  Uiso   1.00
C933   C     0.95740   0.64537   0.75022   0.00000  Uiso   1.00
C934   C     0.70926   0.35462   0.74983   0.00000  Uiso   1.00
C935   C     0.66668   0.62392   0.74999   0.00000  Uiso   1.00
C936   C     0.99998   0.37607   0.75005   0.00000  Uiso   1.00
C937   C     0.84919   0.47645   0.78013   0.00000  Uiso   1.00
C938   C     0.81747   0.52359   0.71991   0.00000  Uiso   1.00
C939   C     0.79959   0.47649   0.78014   0.00000  Uiso   1.00
C940   C     0.86707   0.52355   0.71989   0.00000  Uiso   1.00
C941   C     0.97258   0.50109   0.83623   0.00000  Uiso   1.00
C942   C     0.69405   0.50012   0.66370   0.00000  Uiso   1.00
C943   C     0.95709   0.50907   0.88496   0.00000  Uiso   1.00
C944   C     0.70885   0.50227   0.61412   0.00000  Uiso   1.00
C945   C     0.97031   0.54150   0.95118   0.00000  Uiso   1.00
C946   C     0.68949   0.49950   0.54254   0.00000  Uiso   1.00
C947   C     0.98830   0.52813   0.90674   0.00000  Uiso   1.00
C948   C     0.67462   0.49786   0.58947   0.00000  Uiso   1.00
C949   C     0.90818   0.50311   0.90823   0.00000  Uiso   1.00
C950   C     0.75771   0.50964   0.59130   0.00000  Uiso   1.00
C951   C     0.88825   0.52008   0.95126   0.00000  Uiso   1.00
C952   C     0.77272   0.51538   0.54424   0.00000  Uiso   1.00
C953   C     0.92069   0.53719   0.97372   0.00000  Uiso   1.00
C954   C     0.73833   0.50752   0.51979   0.00000  Uiso   1.00
C955   C     0.83737   0.51916   0.97311   0.00000  Uiso   1.00
C956   C     0.82151   0.52604   0.52062   0.00000  Uiso   1.00
Cu957  Cu    0.71355   0.50001   0.75000   0.00000  Uiso   1.00
Cu958  Cu    0.95311   0.49999   0.75000   0.00000  Uiso   1.00
H959   H     0.92771   0.56531   0.53470   0.00000  Uiso   1.00
H960   H     0.72637   0.50301   0.95413   0.00000  Uiso   1.00
H961   H     0.78397   0.50905   0.61060   0.00000  Uiso   1.00
H962   H     0.88638   0.48457   0.89224   0.00000  Uiso   1.00
H963   H     0.96996   0.49208   0.60633   0.00000  Uiso   1.00
H964   H     0.69284   0.53357   0.88916   0.00000  Uiso   1.00
H965   H     0.99495   0.55608   0.96765   0.00000  Uiso   1.00
H966   H     0.99613   0.49432   0.52402   0.00000  Uiso   1.00
H967   H     0.92405   0.37061   0.75046   0.00000  Uiso   1.00
H968   H     0.74260   0.62938   0.74958   0.00000  Uiso   1.00
H969   H     0.92409   0.62936   0.75038   0.00000  Uiso   1.00
H970   H     0.74257   0.37063   0.74967   0.00000  Uiso   1.00
H971   H     0.86070   0.45750   0.80422   0.00000  Uiso   1.00
H972   H     0.80594   0.54258   0.69586   0.00000  Uiso   1.00
H973   H     0.77375   0.45761   0.80425   0.00000  Uiso   1.00
H974   H     0.89290   0.54246   0.69580   0.00000  Uiso   1.00
N975   N     0.78403   0.50001   0.74999   0.00000  Uiso   1.00
N976   N     0.88264   0.49999   0.75001   0.00000  Uiso   1.00
O977   O     0.70625   0.43989   0.75000   0.00000  Uiso   1.00
O978   O     0.96042   0.56011   0.75000   0.00000  Uiso   1.00
O979   O     0.96039   0.43988   0.75000   0.00000  Uiso   1.00
O980   O     0.70628   0.56012   0.74999   0.00000  Uiso   1.00
O981   O     0.68519   0.50001   0.81491   0.00000  Uiso   1.00
O982   O     0.98148   0.49999   0.68508   0.00000  Uiso   1.00
O983   O     0.93933   0.50000   0.81492   0.00000  Uiso   1.00
O984   O     0.72733   0.50000   0.68508   0.00000  Uiso   1.00
N985   N     0.83784   0.56375   0.58557   0.00000  Uiso   1.00
H986   H     0.84502   0.59532   0.58217   0.00000  Uiso   1.00
H987   H     0.85814   0.55152   0.60610   0.00000  Uiso   1.00
N988   N     0.81270   0.51928   0.90127   0.00000  Uiso   1.00
H989   H     0.79269   0.54433   0.89468   0.00000  Uiso   1.00
H990   H     0.80114   0.49307   0.88746   0.00000  Uiso   1.00
C991   C     0.33331   0.75402   0.75004   0.00000  Uiso   1.00
C992   C     0.00002   0.91264   0.74998   0.00000  Uiso   1.00
C993   C     0.18776   0.87851   0.54185   0.00000  Uiso   1.00
C994   C     0.13482   0.84716   0.94925   0.00000  Uiso   1.00
C995   C     0.23658   0.88391   0.51808   0.00000  Uiso   1.00
C996   C     0.08619   0.84121   0.97290   0.00000  Uiso   1.00
C997   C     0.29071   0.68794   0.75026   0.00000  Uiso   1.00
C998   C     0.04261   0.97872   0.74978   0.00000  Uiso   1.00
C999   C     0.29073   0.97871   0.75022   0.00000  Uiso   1.00
C1000  C     0.04259   0.68795   0.74983   0.00000  Uiso   1.00
C1001  C     0.00001   0.95726   0.74999   0.00000  Uiso   1.00
C1002  C     0.33331   0.70940   0.75005   0.00000  Uiso   1.00
C1003  C     0.18252   0.80978   0.78013   0.00000  Uiso   1.00
C1004  C     0.15080   0.85693   0.71991   0.00000  Uiso   1.00
C1005  C     0.13292   0.80982   0.78014   0.00000  Uiso   1.00
C1006  C     0.20040   0.85689   0.71989   0.00000  Uiso   1.00
C1007  C     0.30592   0.83443   0.83623   0.00000  Uiso   1.00
C1008  C     0.02739   0.83345   0.66370   0.00000  Uiso   1.00
C1009  C     0.29042   0.84240   0.88496   0.00000  Uiso   1.00
C1010  C     0.04218   0.83560   0.61412   0.00000  Uiso   1.00
C1011  C     0.30365   0.87483   0.95118   0.00000  Uiso   1.00
C1012  C     0.02282   0.83283   0.54254   0.00000  Uiso   1.00
C1013  C     0.32163   0.86147   0.90674   0.00000  Uiso   1.00
C1014  C     0.00795   0.83119   0.58947   0.00000  Uiso   1.00
C1015  C     0.24152   0.83645   0.90823   0.00000  Uiso   1.00
C1016  C     0.09105   0.84297   0.59130   0.00000  Uiso   1.00
C1017  C     0.22158   0.85341   0.95126   0.00000  Uiso   1.00
C1018  C     0.10605   0.84871   0.54424   0.00000  Uiso   1.00
C1019  C     0.25403   0.87053   0.97372   0.00000  Uiso   1.00
C1020  C     0.07167   0.84085   0.51979   0.00000  Uiso   1.00
C1021  C     0.17071   0.85250   0.97311   0.00000  Uiso   1.00
C1022  C     0.15484   0.85938   0.52062   0.00000  Uiso   1.00
Cu1023 Cu    0.04689   0.83334   0.75000   0.00000  Uiso   1.00
Cu1024 Cu    0.28645   0.83333   0.75000   0.00000  Uiso   1.00
H1025  H     0.26104   0.89864   0.53470   0.00000  Uiso   1.00
H1026  H     0.05970   0.83634   0.95413   0.00000  Uiso   1.00
H1027  H     0.11730   0.84239   0.61060   0.00000  Uiso   1.00
H1028  H     0.21972   0.81791   0.89224   0.00000  Uiso   1.00
H1029  H     0.30329   0.82542   0.60633   0.00000  Uiso   1.00
H1030  H     0.02617   0.86691   0.88916   0.00000  Uiso   1.00
H1031  H     0.32829   0.88942   0.96765   0.00000  Uiso   1.00
H1032  H     0.32946   0.82766   0.52402   0.00000  Uiso   1.00
H1033  H     0.25739   0.70394   0.75046   0.00000  Uiso   1.00
H1034  H     0.07593   0.96271   0.74958   0.00000  Uiso   1.00
H1035  H     0.25742   0.96269   0.75038   0.00000  Uiso   1.00
H1036  H     0.07590   0.70396   0.74967   0.00000  Uiso   1.00
H1037  H     0.19403   0.79084   0.80422   0.00000  Uiso   1.00
H1038  H     0.13927   0.87591   0.69586   0.00000  Uiso   1.00
H1039  H     0.10709   0.79094   0.80425   0.00000  Uiso   1.00
H1040  H     0.22623   0.87579   0.69580   0.00000  Uiso   1.00
N1041  N     0.11736   0.83334   0.74999   0.00000  Uiso   1.00
N1042  N     0.21597   0.83332   0.75001   0.00000  Uiso   1.00
O1043  O     0.03958   0.77322   0.75000   0.00000  Uiso   1.00
O1044  O     0.29375   0.89345   0.75000   0.00000  Uiso   1.00
O1045  O     0.29372   0.77321   0.75000   0.00000  Uiso   1.00
O1046  O     0.03961   0.89346   0.74999   0.00000  Uiso   1.00
O1047  O     0.01852   0.83334   0.81491   0.00000  Uiso   1.00
O1048  O     0.31481   0.83332   0.68508   0.00000  Uiso   1.00
O1049  O     0.27267   0.83333   0.81492   0.00000  Uiso   1.00
O1050  O     0.06067   0.83333   0.68508   0.00000  Uiso   1.00
N1051  N     0.17118   0.89708   0.58557   0.00000  Uiso   1.00
H1052  H     0.17835   0.92865   0.58217   0.00000  Uiso   1.00
H1053  H     0.19147   0.88485   0.60610   0.00000  Uiso   1.00
N1054  N     0.14603   0.85261   0.90127   0.00000  Uiso   1.00
H1055  H     0.12603   0.87766   0.89468   0.00000  Uiso   1.00
H1056  H     0.13447   0.82640   0.88746   0.00000  Uiso   1.00
C1057  C     0.66664   0.75402   0.75004   0.00000  Uiso   1.00
C1058  C     0.33335   0.91264   0.74998   0.00000  Uiso   1.00
C1059  C     0.52109   0.87851   0.54185   0.00000  Uiso   1.00
C1060  C     0.46816   0.84716   0.94925   0.00000  Uiso   1.00
C1061  C     0.56991   0.88391   0.51808   0.00000  Uiso   1.00
C1062  C     0.41952   0.84121   0.97290   0.00000  Uiso   1.00
C1063  C     0.62404   0.68794   0.75026   0.00000  Uiso   1.00
C1064  C     0.37594   0.97872   0.74978   0.00000  Uiso   1.00
C1065  C     0.62406   0.97871   0.75022   0.00000  Uiso   1.00
C1066  C     0.37593   0.68795   0.74983   0.00000  Uiso   1.00
C1067  C     0.33334   0.95726   0.74999   0.00000  Uiso   1.00
C1068  C     0.66665   0.70940   0.75005   0.00000  Uiso   1.00
C1069  C     0.51586   0.80978   0.78013   0.00000  Uiso   1.00
C1070  C     0.48413   0.85693   0.71991   0.00000  Uiso   1.00
C1071  C     0.46626   0.80982   0.78014   0.00000  Uiso   1.00
C1072  C     0.53374   0.85689   0.71989   0.00000  Uiso   1.00
C1073  C     0.63925   0.83443   0.83623   0.00000  Uiso   1.00
C1074  C     0.36072   0.83345   0.66370   0.00000  Uiso   1.00
C1075  C     0.62375   0.84240   0.88496   0.00000  Uiso   1.00
C1076  C     0.37552   0.83560   0.61412   0.00000  Uiso   1.00
C1077  C     0.63698   0.87483   0.95118   0.00000  Uiso   1.00
C1078  C     0.35615   0.83283   0.54254   0.00000  Uiso   1.00
C1079  C     0.65496   0.86147   0.90674   0.00000  Uiso   1.00
C1080  C     0.34128   0.83119   0.58947   0.00000  Uiso   1.00
C1081  C     0.57485   0.83645   0.90823   0.00000  Uiso   1.00
C1082  C     0.42438   0.84297   0.59130   0.00000  Uiso   1.00
C1083  C     0.55492   0.85341   0.95126   0.00000  Uiso   1.00
C1084  C     0.43938   0.84871   0.54424   0.00000  Uiso   1.00
C1085  C     0.58736   0.87053   0.97372   0.00000  Uiso   1.00
C1086  C     0.40500   0.84085   0.51979   0.00000  Uiso   1.00
C1087  C     0.50404   0.85250   0.97311   0.00000  Uiso   1.00
C1088  C     0.48818   0.85938   0.52062   0.00000  Uiso   1.00
Cu1089 Cu    0.38022   0.83334   0.75000   0.00000  Uiso   1.00
Cu1090 Cu    0.61978   0.83333   0.75000   0.00000  Uiso   1.00
H1091  H     0.59437   0.89864   0.53470   0.00000  Uiso   1.00
H1092  H     0.39304   0.83634   0.95413   0.00000  Uiso   1.00
H1093  H     0.45064   0.84239   0.61060   0.00000  Uiso   1.00
H1094  H     0.55305   0.81791   0.89224   0.00000  Uiso   1.00
H1095  H     0.63663   0.82542   0.60633   0.00000  Uiso   1.00
H1096  H     0.35950   0.86691   0.88916   0.00000  Uiso   1.00
H1097  H     0.66162   0.88942   0.96765   0.00000  Uiso   1.00
H1098  H     0.66279   0.82766   0.52402   0.00000  Uiso   1.00
H1099  H     0.59072   0.70394   0.75046   0.00000  Uiso   1.00
H1100  H     0.40927   0.96271   0.74958   0.00000  Uiso   1.00
H1101  H     0.59075   0.96269   0.75038   0.00000  Uiso   1.00
H1102  H     0.40923   0.70396   0.74967   0.00000  Uiso   1.00
H1103  H     0.52736   0.79084   0.80422   0.00000  Uiso   1.00
H1104  H     0.47260   0.87591   0.69586   0.00000  Uiso   1.00
H1105  H     0.44042   0.79094   0.80425   0.00000  Uiso   1.00
H1106  H     0.55957   0.87579   0.69580   0.00000  Uiso   1.00
N1107  N     0.45069   0.83334   0.74999   0.00000  Uiso   1.00
N1108  N     0.54931   0.83332   0.75001   0.00000  Uiso   1.00
O1109  O     0.37291   0.77322   0.75000   0.00000  Uiso   1.00
O1110  O     0.62709   0.89345   0.75000   0.00000  Uiso   1.00
O1111  O     0.62706   0.77321   0.75000   0.00000  Uiso   1.00
O1112  O     0.37294   0.89346   0.74999   0.00000  Uiso   1.00
O1113  O     0.35186   0.83334   0.81491   0.00000  Uiso   1.00
O1114  O     0.64814   0.83332   0.68508   0.00000  Uiso   1.00
O1115  O     0.60600   0.83333   0.81492   0.00000  Uiso   1.00
O1116  O     0.39400   0.83333   0.68508   0.00000  Uiso   1.00
N1117  N     0.50451   0.89708   0.58557   0.00000  Uiso   1.00
H1118  H     0.51168   0.92865   0.58217   0.00000  Uiso   1.00
H1119  H     0.52480   0.88485   0.60610   0.00000  Uiso   1.00
N1120  N     0.47937   0.85261   0.90127   0.00000  Uiso   1.00
H1121  H     0.45936   0.87766   0.89468   0.00000  Uiso   1.00
H1122  H     0.46780   0.82640   0.88746   0.00000  Uiso   1.00
C1123  C     0.99998   0.75402   0.75004   0.00000  Uiso   1.00
C1124  C     0.66669   0.91264   0.74998   0.00000  Uiso   1.00
C1125  C     0.85443   0.87851   0.54185   0.00000  Uiso   1.00
C1126  C     0.80149   0.84716   0.94925   0.00000  Uiso   1.00
C1127  C     0.90324   0.88391   0.51808   0.00000  Uiso   1.00
C1128  C     0.75285   0.84121   0.97290   0.00000  Uiso   1.00
C1129  C     0.95738   0.68794   0.75026   0.00000  Uiso   1.00
C1130  C     0.70928   0.97872   0.74978   0.00000  Uiso   1.00
C1131  C     0.95740   0.97871   0.75022   0.00000  Uiso   1.00
C1132  C     0.70926   0.68795   0.74983   0.00000  Uiso   1.00
C1133  C     0.66668   0.95726   0.74999   0.00000  Uiso   1.00
C1134  C     0.99998   0.70940   0.75005   0.00000  Uiso   1.00
C1135  C     0.84919   0.80978   0.78013   0.00000  Uiso   1.00
C1136  C     0.81747   0.85693   0.71991   0.00000  Uiso   1.00
C1137  C     0.79959   0.80982   0.78014   0.00000  Uiso   1.00
C1138  C     0.86707   0.85689   0.71989   0.00000  Uiso   1.00
C1139  C     0.97258   0.83443   0.83623   0.00000  Uiso   1.00
C1140  C     0.69405   0.83345   0.66370   0.00000  Uiso   1.00
C1141  C     0.95709   0.84240   0.88496   0.00000  Uiso   1.00
C1142  C     0.70885   0.83560   0.61412   0.00000  Uiso   1.00
C1143  C     0.97031   0.87483   0.95118   0.00000  Uiso   1.00
C1144  C     0.68949   0.83283   0.54254   0.00000  Uiso   1.00
C1145  C     0.98830   0.86147   0.90674   0.00000  Uiso   1.00
C1146  C     0.67462   0.83119   0.58947   0.00000  Uiso   1.00
C1147  C     0.90818   0.83645   0.90823   0.00000  Uiso   1.00
C1148  C     0.75771   0.84297   0.59130   0.00000  Uiso   1.00
C1149  C     0.88825   0.85341   0.95126   0.00000  Uiso   1.00
C1150  C     0.77272   0.84871   0.54424   0.00000  Uiso   1.00
C1151  C     0.92069   0.87053   0.97372   0.00000  Uiso   1.00
C1152  C     0.73833   0.84085   0.51979   0.00000  Uiso   1.00
C1153  C     0.83737   0.85250   0.97311   0.00000  Uiso   1.00
C1154  C     0.82151   0.85938   0.52062   0.00000  Uiso   1.00
Cu1155 Cu    0.71355   0.83334   0.75000   0.00000  Uiso   1.00
Cu1156 Cu    0.95311   0.83333   0.75000   0.00000  Uiso   1.00
H1157  H     0.92771   0.89864   0.53470   0.00000  Uiso   1.00
H1158  H     0.72637   0.83634   0.95413   0.00000  Uiso   1.00
H1159  H     0.78397   0.84239   0.61060   0.00000  Uiso   1.00
H1160  H     0.88638   0.81791   0.89224   0.00000  Uiso   1.00
H1161  H     0.96996   0.82542   0.60633   0.00000  Uiso   1.00
H1162  H     0.69284   0.86691   0.88916   0.00000  Uiso   1.00
H1163  H     0.99495   0.88942   0.96765   0.00000  Uiso   1.00
H1164  H     0.99613   0.82766   0.52402   0.00000  Uiso   1.00
H1165  H     0.92405   0.70394   0.75046   0.00000  Uiso   1.00
H1166  H     0.74260   0.96271   0.74958   0.00000  Uiso   1.00
H1167  H     0.92409   0.96269   0.75038   0.00000  Uiso   1.00
H1168  H     0.74257   0.70396   0.74967   0.00000  Uiso   1.00
H1169  H     0.86070   0.79084   0.80422   0.00000  Uiso   1.00
H1170  H     0.80594   0.87591   0.69586   0.00000  Uiso   1.00
H1171  H     0.77375   0.79094   0.80425   0.00000  Uiso   1.00
H1172  H     0.89290   0.87579   0.69580   0.00000  Uiso   1.00
N1173  N     0.78403   0.83334   0.74999   0.00000  Uiso   1.00
N1174  N     0.88264   0.83332   0.75001   0.00000  Uiso   1.00
O1175  O     0.70625   0.77322   0.75000   0.00000  Uiso   1.00
O1176  O     0.96042   0.89345   0.75000   0.00000  Uiso   1.00
O1177  O     0.96039   0.77321   0.75000   0.00000  Uiso   1.00
O1178  O     0.70628   0.89346   0.74999   0.00000  Uiso   1.00
O1179  O     0.68519   0.83334   0.81491   0.00000  Uiso   1.00
O1180  O     0.98148   0.83332   0.68508   0.00000  Uiso   1.00
O1181  O     0.93933   0.83333   0.81492   0.00000  Uiso   1.00
O1182  O     0.72733   0.83333   0.68508   0.00000  Uiso   1.00
N1183  N     0.83784   0.89708   0.58557   0.00000  Uiso   1.00
H1184  H     0.84502   0.92865   0.58217   0.00000  Uiso   1.00
H1185  H     0.85814   0.88485   0.60610   0.00000  Uiso   1.00
N1186  N     0.81270   0.85261   0.90127   0.00000  Uiso   1.00
H1187  H     0.79269   0.87766   0.89468   0.00000  Uiso   1.00
H1188  H     0.80114   0.82640   0.88746   0.00000  Uiso   1.00
loop_
_geom_bond_atom_site_label_1
_geom_bond_atom_site_label_2
_geom_bond_distance
_geom_bond_site_symmetry_2
_ccdc_geom_bond_type
C1     O55     1.292   .     A
C1     C12     1.450   .     S
C1     O119    1.292   .     S
C2     O56     1.292   .     A
C2     C11     1.450   .     S
C2     O186    1.292   1_455 S
C3     N61     1.434   .     S
C3     C32     1.427   .     A
C3     C5      1.397   .     A
C4     N64     1.434   .     S
C4     C31     1.426   .     A
C4     C6      1.394   .     A
C5     H35     1.085   .     S
C5     C623    1.390   1_554 S
C6     H36     1.082   .     S
C6     C624    1.389   .     S
C7     C12     1.401   .     A
C7     H43     1.083   .     S
C7     C405    1.384   1_545 S
C8     C11     1.401   .     A
C8     H44     1.083   .     S
C8     C208    1.384   .     S
C9     H45     1.083   .     S
C9     C205    1.384   .     S
C9     C77     1.401   .     S
C10    H46     1.083   .     S
C10    C404    1.384   1_545 S
C10    C144    1.401   1_455 S
C11    C141    1.401   1_455 S
C12    C76     1.401   .     S
C13    N52     1.367   .     A
C13    C15     1.417   .     A
C13    H47     1.082   .     S
C14    C16     1.417   .     A
C14    N51     1.368   .     A
C14    H48     1.082   .     S
C15    N51     1.367   .     A
C15    H49     1.082   .     S
C16    N52     1.367   .     A
C16    H50     1.082   .     S
C17    O59     1.295   .     A
C17    C19     1.468   .     S
C17    O123    1.297   .     S
C18    C20     1.470   .     S
C18    O60     1.297   .     A
C18    O190    1.296   1_455 S
C19    C23     1.399   .     A
C19    C25     1.397   .     A
C20    C24     1.400   .     A
C20    C26     1.400   .     A
C21    C29     1.404   .     A
C21    H41     1.084   .     S
C21    C23     1.394   .     A
C22    C24     1.391   .     A
C22    C30     1.403   .     A
C22    H174    1.083   1_455 S
C23    H106    1.083   .     S
C24    H171    1.083   1_455 S
C25    H38     1.078   .     S
C25    C27     1.405   .     A
C26    H37     1.077   .     S
C26    C28     1.406   .     A
C27    C29     1.414   .     A
C27    C31     1.425   .     A
C28    C30     1.416   .     A
C28    C32     1.426   .     A
C29    C599    1.390   .     S
C30    C600    1.389   1_554 S
C31    C626    1.426   .     S
C32    C625    1.426   1_554 S
Cu33   N51     2.013   .     S
Cu33   O57     1.941   .     S
Cu33   O56     1.965   .     S
Cu33   O60     1.929   .     S
Cu33   O53     1.965   .     S
Cu33   Cu166   2.679   1_455 S
Cu34   N52     2.013   .     S
Cu34   O55     1.965   .     S
Cu34   O54     1.965   .     S
Cu34   O58     1.941   .     S
Cu34   O59     1.929   .     S
Cu34   Cu99    2.679   .     S
H39    C90     1.083   .     S
H40    C155    1.083   1_455 S
H42    C88     1.083   .     S
O53    C133    1.292   1_455 S
O54    C68     1.292   .     S
O57    C149    1.297   1_455 S
O58    C84     1.296   .     S
N61    H62     1.046   .     S
N61    H63     1.046   .     S
N64    H65     1.046   .     S
N64    H66     1.046   .     S
C67    O121    1.292   .     A
C67    C78     1.450   .     S
C67    O185    1.292   .     S
C68    O122    1.292   .     A
C68    C77     1.450   .     S
C69    N127    1.434   .     S
C69    C98     1.427   .     A
C69    C71     1.397   .     A
C70    N130    1.434   .     S
C70    C97     1.426   .     A
C70    C72     1.394   .     A
C71    H101    1.085   .     S
C71    C689    1.390   1_554 S
C72    H102    1.082   .     S
C72    C690    1.389   .     S
C73    C78     1.401   .     A
C73    H109    1.083   .     S
C73    C471    1.384   1_545 S
C74    C77     1.401   .     A
C74    H110    1.083   .     S
C74    C274    1.384   .     S
C75    H111    1.083   .     S
C75    C271    1.384   .     S
C75    C143    1.401   .     S
C76    H112    1.083   .     S
C76    C470    1.384   1_545 S
C78    C142    1.401   .     S
C79    N118    1.367   .     A
C79    C81     1.417   .     A
C79    H113    1.082   .     S
C80    C82     1.417   .     A
C80    N117    1.368   .     A
C80    H114    1.082   .     S
C81    N117    1.367   .     A
C81    H115    1.082   .     S
C82    N118    1.367   .     A
C82    H116    1.082   .     S
C83    O125    1.295   .     A
C83    C85     1.468   .     S
C83    O189    1.297   .     S
C84    C86     1.470   .     S
C84    O126    1.297   .     A
C85    C89     1.399   .     A
C85    C91     1.397   .     A
C86    C90     1.400   .     A
C86    C92     1.400   .     A
C87    C95     1.404   .     A
C87    H107    1.084   .     S
C87    C89     1.394   .     A
C88    C90     1.391   .     A
C88    C96     1.403   .     A
C89    H172    1.083   .     S
C91    H104    1.078   .     S
C91    C93     1.405   .     A
C92    H103    1.077   .     S
C92    C94     1.406   .     A
C93    C95     1.414   .     A
C93    C97     1.425   .     A
C94    C96     1.416   .     A
C94    C98     1.426   .     A
C95    C665    1.390   .     S
C96    C666    1.389   1_554 S
C97    C692    1.426   .     S
C98    C691    1.426   1_554 S
Cu99   N117    2.013   .     S
Cu99   O123    1.941   .     S
Cu99   O122    1.965   .     S
Cu99   O126    1.929   .     S
Cu99   O119    1.965   .     S
Cu100  N118    2.013   .     S
Cu100  O121    1.965   .     S
Cu100  O120    1.965   .     S
Cu100  O124    1.941   .     S
Cu100  O125    1.929   .     S
Cu100  Cu165   2.679   .     S
H105   C156    1.083   .     S
H108   C154    1.083   .     S
O120   C134    1.292   .     S
O124   C150    1.296   .     S
N127   H128    1.046   .     S
N127   H129    1.046   .     S
N130   H131    1.046   .     S
N130   H132    1.046   .     S
C133   O187    1.292   .     A
C133   C144    1.450   .     S
C133   O53     1.292   1_655 S
C134   O188    1.292   .     A
C134   C143    1.450   .     S
C135   N193    1.434   .     S
C135   C164    1.427   .     A
C135   C137    1.397   .     A
C136   N196    1.434   .     S
C136   C163    1.426   .     A
C136   C138    1.394   .     A
C137   H167    1.085   .     S
C137   C755    1.390   1_554 S
C138   H168    1.082   .     S
C138   C756    1.389   .     S
C139   C144    1.401   .     A
C139   H175    1.083   .     S
C139   C537    1.384   1_545 S
C140   C143    1.401   .     A
C140   H176    1.083   .     S
C140   C340    1.384   .     S
C141   H177    1.083   .     S
C141   C337    1.384   .     S
C141   C11     1.401   1_655 S
C142   H178    1.083   .     S
C142   C536    1.384   1_545 S
C144   C10     1.401   1_655 S
C145   N184    1.367   .     A
C145   C147    1.417   .     A
C145   H179    1.082   .     S
C146   C148    1.417   .     A
C146   N183    1.368   .     A
C146   H180    1.082   .     S
C147   N183    1.367   .     A
C147   H181    1.082   .     S
C148   N184    1.367   .     A
C148   H182    1.082   .     S
C149   O191    1.295   .     A
C149   C151    1.468   .     S
C149   O57     1.297   1_655 S
C150   C152    1.470   .     S
C150   O192    1.297   .     A
C151   C155    1.399   .     A
C151   C157    1.397   .     A
C152   C156    1.400   .     A
C152   C158    1.400   .     A
C153   C161    1.404   .     A
C153   H173    1.084   .     S
C153   C155    1.394   .     A
C154   C156    1.391   .     A
C154   C162    1.403   .     A
C155   H40     1.083   1_655 S
C157   H170    1.078   .     S
C157   C159    1.405   .     A
C158   H169    1.077   .     S
C158   C160    1.406   .     A
C159   C161    1.414   .     A
C159   C163    1.425   .     A
C160   C162    1.416   .     A
C160   C164    1.426   .     A
C161   C731    1.390   .     S
C162   C732    1.389   1_554 S
C163   C758    1.426   .     S
C164   C757    1.426   1_554 S
Cu165  N183    2.013   .     S
Cu165  O189    1.941   .     S
Cu165  O188    1.965   .     S
Cu165  O192    1.929   .     S
Cu165  O185    1.965   .     S
Cu166  N184    2.013   .     S
Cu166  O187    1.965   .     S
Cu166  O186    1.965   .     S
Cu166  O190    1.941   .     S
Cu166  O191    1.929   .     S
Cu166  Cu33    2.679   1_655 S
H171   C24     1.083   1_655 S
H174   C22     1.083   1_655 S
O186   C2      1.292   1_655 S
O190   C18     1.296   1_655 S
N193   H194    1.046   .     S
N193   H195    1.046   .     S
N196   H197    1.046   .     S
N196   H198    1.046   .     S
C199   O253    1.292   .     A
C199   C210    1.450   .     S
C199   O317    1.292   .     S
C200   O254    1.292   .     A
C200   C209    1.450   .     S
C200   O384    1.292   1_455 S
C201   N259    1.434   .     S
C201   C230    1.427   .     A
C201   C203    1.397   .     A
C202   N262    1.434   .     S
C202   C229    1.426   .     A
C202   C204    1.394   .     A
C203   H233    1.085   .     S
C203   C821    1.390   1_554 S
C204   H234    1.082   .     S
C204   C822    1.389   .     S
C205   C210    1.401   .     A
C205   H241    1.083   .     S
C206   C209    1.401   .     A
C206   H242    1.083   .     S
C206   C406    1.384   .     S
C207   H243    1.083   .     S
C207   C403    1.384   .     S
C207   C275    1.401   .     S
C208   H244    1.083   .     S
C208   C342    1.401   1_455 S
C209   C339    1.401   1_455 S
C210   C274    1.401   .     S
C211   N250    1.367   .     A
C211   C213    1.417   .     A
C211   H245    1.082   .     S
C212   C214    1.417   .     A
C212   N249    1.368   .     A
C212   H246    1.082   .     S
C213   N249    1.367   .     A
C213   H247    1.082   .     S
C214   N250    1.367   .     A
C214   H248    1.082   .     S
C215   O257    1.295   .     A
C215   C217    1.468   .     S
C215   O321    1.297   .     S
C216   C218    1.470   .     S
C216   O258    1.297   .     A
C216   O388    1.296   1_455 S
C217   C221    1.399   .     A
C217   C223    1.397   .     A
C218   C222    1.400   .     A
C218   C224    1.400   .     A
C219   C227    1.404   .     A
C219   H239    1.084   .     S
C219   C221    1.394   .     A
C220   C222    1.391   .     A
C220   C228    1.403   .     A
C220   H372    1.083   1_455 S
C221   H304    1.083   .     S
C222   H369    1.083   1_455 S
C223   H236    1.078   .     S
C223   C225    1.405   .     A
C224   H235    1.077   .     S
C224   C226    1.406   .     A
C225   C227    1.414   .     A
C225   C229    1.425   .     A
C226   C228    1.416   .     A
C226   C230    1.426   .     A
C227   C797    1.390   .     S
C228   C798    1.389   1_554 S
C229   C824    1.426   .     S
C230   C823    1.426   1_554 S
Cu231  N249    2.013   .     S
Cu231  O255    1.941   .     S
Cu231  O254    1.965   .     S
Cu231  O258    1.929   .     S
Cu231  O251    1.965   .     S
Cu231  Cu364   2.679   1_455 S
Cu232  N250    2.013   .     S
Cu232  O253    1.965   .     S
Cu232  O252    1.965   .     S
Cu232  O256    1.941   .     S
Cu232  O257    1.929   .     S
Cu232  Cu297   2.679   .     S
H237   C288    1.083   .     S
H238   C353    1.083   1_455 S
H240   C286    1.083   .     S
O251   C331    1.292   1_455 S
O252   C266    1.292   .     S
O255   C347    1.297   1_455 S
O256   C282    1.296   .     S
N259   H260    1.046   .     S
N259   H261    1.046   .     S
N262   H263    1.046   .     S
N262   H264    1.046   .     S
C265   O319    1.292   .     A
C265   C276    1.450   .     S
C265   O383    1.292   .     S
C266   O320    1.292   .     A
C266   C275    1.450   .     S
C267   N325    1.434   .     S
C267   C296    1.427   .     A
C267   C269    1.397   .     A
C268   N328    1.434   .     S
C268   C295    1.426   .     A
C268   C270    1.394   .     A
C269   H299    1.085   .     S
C269   C887    1.390   1_554 S
C270   H300    1.082   .     S
C270   C888    1.389   .     S
C271   C276    1.401   .     A
C271   H307    1.083   .     S
C272   C275    1.401   .     A
C272   H308    1.083   .     S
C272   C472    1.384   .     S
C273   H309    1.083   .     S
C273   C469    1.384   .     S
C273   C341    1.401   .     S
C274   H310    1.083   .     S
C276   C340    1.401   .     S
C277   N316    1.367   .     A
C277   C279    1.417   .     A
C277   H311    1.082   .     S
C278   C280    1.417   .     A
C278   N315    1.368   .     A
C278   H312    1.082   .     S
C279   N315    1.367   .     A
C279   H313    1.082   .     S
C280   N316    1.367   .     A
C280   H314    1.082   .     S
C281   O323    1.295   .     A
C281   C283    1.468   .     S
C281   O387    1.297   .     S
C282   C284    1.470   .     S
C282   O324    1.297   .     A
C283   C287    1.399   .     A
C283   C289    1.397   .     A
C284   C288    1.400   .     A
C284   C290    1.400   .     A
C285   C293    1.404   .     A
C285   H305    1.084   .     S
C285   C287    1.394   .     A
C286   C288    1.391   .     A
C286   C294    1.403   .     A
C287   H370    1.083   .     S
C289   H302    1.078   .     S
C289   C291    1.405   .     A
C290   H301    1.077   .     S
C290   C292    1.406   .     A
C291   C293    1.414   .     A
C291   C295    1.425   .     A
C292   C294    1.416   .     A
C292   C296    1.426   .     A
C293   C863    1.390   .     S
C294   C864    1.389   1_554 S
C295   C890    1.426   .     S
C296   C889    1.426   1_554 S
Cu297  N315    2.013   .     S
Cu297  O321    1.941   .     S
Cu297  O320    1.965   .     S
Cu297  O324    1.929   .     S
Cu297  O317    1.965   .     S
Cu298  N316    2.013   .     S
Cu298  O319    1.965   .     S
Cu298  O318    1.965   .     S
Cu298  O322    1.941   .     S
Cu298  O323    1.929   .     S
Cu298  Cu363   2.679   .     S
H303   C354    1.083   .     S
H306   C352    1.083   .     S
O318   C332    1.292   .     S
O322   C348    1.296   .     S
N325   H326    1.046   .     S
N325   H327    1.046   .     S
N328   H329    1.046   .     S
N328   H330    1.046   .     S
C331   O385    1.292   .     A
C331   C342    1.450   .     S
C331   O251    1.292   1_655 S
C332   O386    1.292   .     A
C332   C341    1.450   .     S
C333   N391    1.434   .     S
C333   C362    1.427   .     A
C333   C335    1.397   .     A
C334   N394    1.434   .     S
C334   C361    1.426   .     A
C334   C336    1.394   .     A
C335   H365    1.085   .     S
C335   C953    1.390   1_554 S
C336   H366    1.082   .     S
C336   C954    1.389   .     S
C337   C342    1.401   .     A
C337   H373    1.083   .     S
C338   C341    1.401   .     A
C338   H374    1.083   .     S
C338   C538    1.384   .     S
C339   H375    1.083   .     S
C339   C535    1.384   .     S
C339   C209    1.401   1_655 S
C340   H376    1.083   .     S
C342   C208    1.401   1_655 S
C343   N382    1.367   .     A
C343   C345    1.417   .     A
C343   H377    1.082   .     S
C344   C346    1.417   .     A
C344   N381    1.368   .     A
C344   H378    1.082   .     S
C345   N381    1.367   .     A
C345   H379    1.082   .     S
C346   N382    1.367   .     A
C346   H380    1.082   .     S
C347   O389    1.295   .     A
C347   C349    1.468   .     S
C347   O255    1.297   1_655 S
C348   C350    1.470   .     S
C348   O390    1.297   .     A
C349   C353    1.399   .     A
C349   C355    1.397   .     A
C350   C354    1.400   .     A
C350   C356    1.400   .     A
C351   C359    1.404   .     A
C351   H371    1.084   .     S
C351   C353    1.394   .     A
C352   C354    1.391   .     A
C352   C360    1.403   .     A
C353   H238    1.083   1_655 S
C355   H368    1.078   .     S
C355   C357    1.405   .     A
C356   H367    1.077   .     S
C356   C358    1.406   .     A
C357   C359    1.414   .     A
C357   C361    1.425   .     A
C358   C360    1.416   .     A
C358   C362    1.426   .     A
C359   C929    1.390   .     S
C360   C930    1.389   1_554 S
C361   C956    1.426   .     S
C362   C955    1.426   1_554 S
Cu363  N381    2.013   .     S
Cu363  O387    1.941   .     S
Cu363  O386    1.965   .     S
Cu363  O390    1.929   .     S
Cu363  O383    1.965   .     S
Cu364  N382    2.013   .     S
Cu364  O385    1.965   .     S
Cu364  O384    1.965   .     S
Cu364  O388    1.941   .     S
Cu364  O389    1.929   .     S
Cu364  Cu231   2.679   1_655 S
H369   C222    1.083   1_655 S
H372   C220    1.083   1_655 S
O384   C200    1.292   1_655 S
O388   C216    1.296   1_655 S
N391   H392    1.046   .     S
N391   H393    1.046   .     S
N394   H395    1.046   .     S
N394   H396    1.046   .     S
C397   O451    1.292   .     A
C397   C408    1.450   .     S
C397   O515    1.292   .     S
C398   O452    1.292   .     A
C398   C407    1.450   .     S
C398   O582    1.292   1_455 S
C399   N457    1.434   .     S
C399   C428    1.427   .     A
C399   C401    1.397   .     A
C400   N460    1.434   .     S
C400   C427    1.426   .     A
C400   C402    1.394   .     A
C401   H431    1.085   .     S
C401   C1019   1.390   1_554 S
C402   H432    1.082   .     S
C402   C1020   1.389   .     S
C403   C408    1.401   .     A
C403   H439    1.083   .     S
C404   C407    1.401   .     A
C404   H440    1.083   .     S
C404   C10     1.384   1_565 S
C405   H441    1.083   .     S
C405   C7      1.384   1_565 S
C405   C473    1.401   .     S
C406   H442    1.083   .     S
C406   C540    1.401   1_455 S
C407   C537    1.401   1_455 S
C408   C472    1.401   .     S
C409   N448    1.367   .     A
C409   C411    1.417   .     A
C409   H443    1.082   .     S
C410   C412    1.417   .     A
C410   N447    1.368   .     A
C410   H444    1.082   .     S
C411   N447    1.367   .     A
C411   H445    1.082   .     S
C412   N448    1.367   .     A
C412   H446    1.082   .     S
C413   O455    1.295   .     A
C413   C415    1.468   .     S
C413   O519    1.297   .     S
C414   C416    1.470   .     S
C414   O456    1.297   .     A
C414   O586    1.296   1_455 S
C415   C419    1.399   .     A
C415   C421    1.397   .     A
C416   C420    1.400   .     A
C416   C422    1.400   .     A
C417   C425    1.404   .     A
C417   H437    1.084   .     S
C417   C419    1.394   .     A
C418   C420    1.391   .     A
C418   C426    1.403   .     A
C418   H570    1.083   1_455 S
C419   H502    1.083   .     S
C420   H567    1.083   1_455 S
C421   H434    1.078   .     S
C421   C423    1.405   .     A
C422   H433    1.077   .     S
C422   C424    1.406   .     A
C423   C425    1.414   .     A
C423   C427    1.425   .     A
C424   C426    1.416   .     A
C424   C428    1.426   .     A
C425   C995    1.390   .     S
C426   C996    1.389   1_554 S
C427   C1022   1.426   .     S
C428   C1021   1.426   1_554 S
Cu429  N447    2.013   .     S
Cu429  O453    1.941   .     S
Cu429  O452    1.965   .     S
Cu429  O456    1.929   .     S
Cu429  O449    1.965   .     S
Cu429  Cu562   2.679   1_455 S
Cu430  N448    2.013   .     S
Cu430  O451    1.965   .     S
Cu430  O450    1.965   .     S
Cu430  O454    1.941   .     S
Cu430  O455    1.929   .     S
Cu430  Cu495   2.679   .     S
H435   C486    1.083   .     S
H436   C551    1.083   1_455 S
H438   C484    1.083   .     S
O449   C529    1.292   1_455 S
O450   C464    1.292   .     S
O453   C545    1.297   1_455 S
O454   C480    1.296   .     S
N457   H458    1.046   .     S
N457   H459    1.046   .     S
N460   H461    1.046   .     S
N460   H462    1.046   .     S
C463   O517    1.292   .     A
C463   C474    1.450   .     S
C463   O581    1.292   .     S
C464   O518    1.292   .     A
C464   C473    1.450   .     S
C465   N523    1.434   .     S
C465   C494    1.427   .     A
C465   C467    1.397   .     A
C466   N526    1.434   .     S
C466   C493    1.426   .     A
C466   C468    1.394   .     A
C467   H497    1.085   .     S
C467   C1085   1.390   1_554 S
C468   H498    1.082   .     S
C468   C1086   1.389   .     S
C469   C474    1.401   .     A
C469   H505    1.083   .     S
C470   C473    1.401   .     A
C470   H506    1.083   .     S
C470   C76     1.384   1_565 S
C471   H507    1.083   .     S
C471   C73     1.384   1_565 S
C471   C539    1.401   .     S
C472   H508    1.083   .     S
C474   C538    1.401   .     S
C475   N514    1.367   .     A
C475   C477    1.417   .     A
C475   H509    1.082   .     S
C476   C478    1.417   .     A
C476   N513    1.368   .     A
C476   H510    1.082   .     S
C477   N513    1.367   .     A
C477   H511    1.082   .     S
C478   N514    1.367   .     A
C478   H512    1.082   .     S
C479   O521    1.295   .     A
C479   C481    1.468   .     S
C479   O585    1.297   .     S
C480   C482    1.470   .     S
C480   O522    1.297   .     A
C481   C485    1.399   .     A
C481   C487    1.397   .     A
C482   C486    1.400   .     A
C482   C488    1.400   .     A
C483   C491    1.404   .     A
C483   H503    1.084   .     S
C483   C485    1.394   .     A
C484   C486    1.391   .     A
C484   C492    1.403   .     A
C485   H568    1.083   .     S
C487   H500    1.078   .     S
C487   C489    1.405   .     A
C488   H499    1.077   .     S
C488   C490    1.406   .     A
C489   C491    1.414   .     A
C489   C493    1.425   .     A
C490   C492    1.416   .     A
C490   C494    1.426   .     A
C491   C1061   1.390   .     S
C492   C1062   1.389   1_554 S
C493   C1088   1.426   .     S
C494   C1087   1.426   1_554 S
Cu495  N513    2.013   .     S
Cu495  O519    1.941   .     S
Cu495  O518    1.965   .     S
Cu495  O522    1.929   .     S
Cu495  O515    1.965   .     S
Cu496  N514    2.013   .     S
Cu496  O517    1.965   .     S
Cu496  O516    1.965   .     S
Cu496  O520    1.941   .     S
Cu496  O521    1.929   .     S
Cu496  Cu561   2.679   .     S
H501   C552    1.083   .     S
H504   C550    1.083   .     S
O516   C530    1.292   .     S
O520   C546    1.296   .     S
N523   H524    1.046   .     S
N523   H525    1.046   .     S
N526   H527    1.046   .     S
N526   H528    1.046   .     S
C529   O583    1.292   .     A
C529   C540    1.450   .     S
C529   O449    1.292   1_655 S
C530   O584    1.292   .     A
C530   C539    1.450   .     S
C531   N589    1.434   .     S
C531   C560    1.427   .     A
C531   C533    1.397   .     A
C532   N592    1.434   .     S
C532   C559    1.426   .     A
C532   C534    1.394   .     A
C533   H563    1.085   .     S
C533   C1151   1.390   1_554 S
C534   H564    1.082   .     S
C534   C1152   1.389   .     S
C535   C540    1.401   .     A
C535   H571    1.083   .     S
C536   C539    1.401   .     A
C536   H572    1.083   .     S
C536   C142    1.384   1_565 S
C537   H573    1.083   .     S
C537   C139    1.384   1_565 S
C537   C407    1.401   1_655 S
C538   H574    1.083   .     S
C540   C406    1.401   1_655 S
C541   N580    1.367   .     A
C541   C543    1.417   .     A
C541   H575    1.082   .     S
C542   C544    1.417   .     A
C542   N579    1.368   .     A
C542   H576    1.082   .     S
C543   N579    1.367   .     A
C543   H577    1.082   .     S
C544   N580    1.367   .     A
C544   H578    1.082   .     S
C545   O587    1.295   .     A
C545   C547    1.468   .     S
C545   O453    1.297   1_655 S
C546   C548    1.470   .     S
C546   O588    1.297   .     A
C547   C551    1.399   .     A
C547   C553    1.397   .     A
C548   C552    1.400   .     A
C548   C554    1.400   .     A
C549   C557    1.404   .     A
C549   H569    1.084   .     S
C549   C551    1.394   .     A
C550   C552    1.391   .     A
C550   C558    1.403   .     A
C551   H436    1.083   1_655 S
C553   H566    1.078   .     S
C553   C555    1.405   .     A
C554   H565    1.077   .     S
C554   C556    1.406   .     A
C555   C557    1.414   .     A
C555   C559    1.425   .     A
C556   C558    1.416   .     A
C556   C560    1.426   .     A
C557   C1127   1.390   .     S
C558   C1128   1.389   1_554 S
C559   C1154   1.426   .     S
C560   C1153   1.426   1_554 S
Cu561  N579    2.013   .     S
Cu561  O585    1.941   .     S
Cu561  O584    1.965   .     S
Cu561  O588    1.929   .     S
Cu561  O581    1.965   .     S
Cu562  N580    2.013   .     S
Cu562  O583    1.965   .     S
Cu562  O582    1.965   .     S
Cu562  O586    1.941   .     S
Cu562  O587    1.929   .     S
Cu562  Cu429   2.679   1_655 S
H567   C420    1.083   1_655 S
H570   C418    1.083   1_655 S
O582   C398    1.292   1_655 S
O586   C414    1.296   1_655 S
N589   H590    1.046   .     S
N589   H591    1.046   .     S
N592   H593    1.046   .     S
N592   H594    1.046   .     S
C595   O649    1.292   .     A
C595   C606    1.450   .     S
C595   O713    1.292   .     S
C596   O650    1.292   .     A
C596   C605    1.450   .     S
C596   O780    1.292   1_455 S
C597   N655    1.434   .     S
C597   C626    1.427   .     A
C597   C599    1.397   .     A
C598   N658    1.434   .     S
C598   C625    1.426   .     A
C598   C600    1.394   .     A
C599   H629    1.085   .     S
C600   H630    1.082   .     S
C600   C30     1.389   1_556 S
C601   C606    1.401   .     A
C601   H637    1.083   .     S
C601   C999    1.384   1_545 S
C602   C605    1.401   .     A
C602   H638    1.083   .     S
C602   C802    1.384   .     S
C603   H639    1.083   .     S
C603   C799    1.384   .     S
C603   C671    1.401   .     S
C604   H640    1.083   .     S
C604   C998    1.384   1_545 S
C604   C738    1.401   1_455 S
C605   C735    1.401   1_455 S
C606   C670    1.401   .     S
C607   N646    1.367   .     A
C607   C609    1.417   .     A
C607   H641    1.082   .     S
C608   C610    1.417   .     A
C608   N645    1.368   .     A
C608   H642    1.082   .     S
C609   N645    1.367   .     A
C609   H643    1.082   .     S
C610   N646    1.367   .     A
C610   H644    1.082   .     S
C611   O653    1.295   .     A
C611   C613    1.468   .     S
C611   O717    1.297   .     S
C612   C614    1.470   .     S
C612   O654    1.297   .     A
C612   O784    1.296   1_455 S
C613   C617    1.399   .     A
C613   C619    1.397   .     A
C614   C618    1.400   .     A
C614   C620    1.400   .     A
C615   C623    1.404   .     A
C615   H635    1.084   .     S
C615   C617    1.394   .     A
C616   C618    1.391   .     A
C616   C624    1.403   .     A
C616   H768    1.083   1_455 S
C617   H700    1.083   .     S
C618   H765    1.083   1_455 S
C619   H632    1.078   .     S
C619   C621    1.405   .     A
C620   H631    1.077   .     S
C620   C622    1.406   .     A
C621   C623    1.414   .     A
C621   C625    1.425   .     A
C622   C624    1.416   .     A
C622   C626    1.426   .     A
C623   C5      1.390   1_556 S
C625   C32     1.426   1_556 S
Cu627  N645    2.013   .     S
Cu627  O651    1.941   .     S
Cu627  O650    1.965   .     S
Cu627  O654    1.929   .     S
Cu627  O647    1.965   .     S
Cu627  Cu760   2.679   1_455 S
Cu628  N646    2.013   .     S
Cu628  O649    1.965   .     S
Cu628  O648    1.965   .     S
Cu628  O652    1.941   .     S
Cu628  O653    1.929   .     S
Cu628  Cu693   2.679   .     S
H633   C684    1.083   .     S
H634   C749    1.083   1_455 S
H636   C682    1.083   .     S
O647   C727    1.292   1_455 S
O648   C662    1.292   .     S
O651   C743    1.297   1_455 S
O652   C678    1.296   .     S
N655   H656    1.046   .     S
N655   H657    1.046   .     S
N658   H659    1.046   .     S
N658   H660    1.046   .     S
C661   O715    1.292   .     A
C661   C672    1.450   .     S
C661   O779    1.292   .     S
C662   O716    1.292   .     A
C662   C671    1.450   .     S
C663   N721    1.434   .     S
C663   C692    1.427   .     A
C663   C665    1.397   .     A
C664   N724    1.434   .     S
C664   C691    1.426   .     A
C664   C666    1.394   .     A
C665   H695    1.085   .     S
C666   H696    1.082   .     S
C666   C96     1.389   1_556 S
C667   C672    1.401   .     A
C667   H703    1.083   .     S
C667   C1065   1.384   1_545 S
C668   C671    1.401   .     A
C668   H704    1.083   .     S
C668   C868    1.384   .     S
C669   H705    1.083   .     S
C669   C865    1.384   .     S
C669   C737    1.401   .     S
C670   H706    1.083   .     S
C670   C1064   1.384   1_545 S
C672   C736    1.401   .     S
C673   N712    1.367   .     A
C673   C675    1.417   .     A
C673   H707    1.082   .     S
C674   C676    1.417   .     A
C674   N711    1.368   .     A
C674   H708    1.082   .     S
C675   N711    1.367   .     A
C675   H709    1.082   .     S
C676   N712    1.367   .     A
C676   H710    1.082   .     S
C677   O719    1.295   .     A
C677   C679    1.468   .     S
C677   O783    1.297   .     S
C678   C680    1.470   .     S
C678   O720    1.297   .     A
C679   C683    1.399   .     A
C679   C685    1.397   .     A
C680   C684    1.400   .     A
C680   C686    1.400   .     A
C681   C689    1.404   .     A
C681   H701    1.084   .     S
C681   C683    1.394   .     A
C682   C684    1.391   .     A
C682   C690    1.403   .     A
C683   H766    1.083   .     S
C685   H698    1.078   .     S
C685   C687    1.405   .     A
C686   H697    1.077   .     S
C686   C688    1.406   .     A
C687   C689    1.414   .     A
C687   C691    1.425   .     A
C688   C690    1.416   .     A
C688   C692    1.426   .     A
C689   C71     1.390   1_556 S
C691   C98     1.426   1_556 S
Cu693  N711    2.013   .     S
Cu693  O717    1.941   .     S
Cu693  O716    1.965   .     S
Cu693  O720    1.929   .     S
Cu693  O713    1.965   .     S
Cu694  N712    2.013   .     S
Cu694  O715    1.965   .     S
Cu694  O714    1.965   .     S
Cu694  O718    1.941   .     S
Cu694  O719    1.929   .     S
Cu694  Cu759   2.679   .     S
H699   C750    1.083   .     S
H702   C748    1.083   .     S
O714   C728    1.292   .     S
O718   C744    1.296   .     S
N721   H722    1.046   .     S
N721   H723    1.046   .     S
N724   H725    1.046   .     S
N724   H726    1.046   .     S
C727   O781    1.292   .     A
C727   C738    1.450   .     S
C727   O647    1.292   1_655 S
C728   O782    1.292   .     A
C728   C737    1.450   .     S
C729   N787    1.434   .     S
C729   C758    1.427   .     A
C729   C731    1.397   .     A
C730   N790    1.434   .     S
C730   C757    1.426   .     A
C730   C732    1.394   .     A
C731   H761    1.085   .     S
C732   H762    1.082   .     S
C732   C162    1.389   1_556 S
C733   C738    1.401   .     A
C733   H769    1.083   .     S
C733   C1131   1.384   1_545 S
C734   C737    1.401   .     A
C734   H770    1.083   .     S
C734   C934    1.384   .     S
C735   H771    1.083   .     S
C735   C931    1.384   .     S
C735   C605    1.401   1_655 S
C736   H772    1.083   .     S
C736   C1130   1.384   1_545 S
C738   C604    1.401   1_655 S
C739   N778    1.367   .     A
C739   C741    1.417   .     A
C739   H773    1.082   .     S
C740   C742    1.417   .     A
C740   N777    1.368   .     A
C740   H774    1.082   .     S
C741   N777    1.367   .     A
C741   H775    1.082   .     S
C742   N778    1.367   .     A
C742   H776    1.082   .     S
C743   O785    1.295   .     A
C743   C745    1.468   .     S
C743   O651    1.297   1_655 S
C744   C746    1.470   .     S
C744   O786    1.297   .     A
C745   C749    1.399   .     A
C745   C751    1.397   .     A
C746   C750    1.400   .     A
C746   C752    1.400   .     A
C747   C755    1.404   .     A
C747   H767    1.084   .     S
C747   C749    1.394   .     A
C748   C750    1.391   .     A
C748   C756    1.403   .     A
C749   H634    1.083   1_655 S
C751   H764    1.078   .     S
C751   C753    1.405   .     A
C752   H763    1.077   .     S
C752   C754    1.406   .     A
C753   C755    1.414   .     A
C753   C757    1.425   .     A
C754   C756    1.416   .     A
C754   C758    1.426   .     A
C755   C137    1.390   1_556 S
C757   C164    1.426   1_556 S
Cu759  N777    2.013   .     S
Cu759  O783    1.941   .     S
Cu759  O782    1.965   .     S
Cu759  O786    1.929   .     S
Cu759  O779    1.965   .     S
Cu760  N778    2.013   .     S
Cu760  O781    1.965   .     S
Cu760  O780    1.965   .     S
Cu760  O784    1.941   .     S
Cu760  O785    1.929   .     S
Cu760  Cu627   2.679   1_655 S
H765   C618    1.083   1_655 S
H768   C616    1.083   1_655 S
O780   C596    1.292   1_655 S
O784   C612    1.296   1_655 S
N787   H788    1.046   .     S
N787   H789    1.046   .     S
N790   H791    1.046   .     S
N790   H792    1.046   .     S
C793   O847    1.292   .     A
C793   C804    1.450   .     S
C793   O911    1.292   .     S
C794   O848    1.292   .     A
C794   C803    1.450   .     S
C794   O978    1.292   1_455 S
C795   N853    1.434   .     S
C795   C824    1.427   .     A
C795   C797    1.397   .     A
C796   N856    1.434   .     S
C796   C823    1.426   .     A
C796   C798    1.394   .     A
C797   H827    1.085   .     S
C798   H828    1.082   .     S
C798   C228    1.389   1_556 S
C799   C804    1.401   .     A
C799   H835    1.083   .     S
C800   C803    1.401   .     A
C800   H836    1.083   .     S
C800   C1000   1.384   .     S
C801   H837    1.083   .     S
C801   C997    1.384   .     S
C801   C869    1.401   .     S
C802   H838    1.083   .     S
C802   C936    1.401   1_455 S
C803   C933    1.401   1_455 S
C804   C868    1.401   .     S
C805   N844    1.367   .     A
C805   C807    1.417   .     A
C805   H839    1.082   .     S
C806   C808    1.417   .     A
C806   N843    1.368   .     A
C806   H840    1.082   .     S
C807   N843    1.367   .     A
C807   H841    1.082   .     S
C808   N844    1.367   .     A
C808   H842    1.082   .     S
C809   O851    1.295   .     A
C809   C811    1.468   .     S
C809   O915    1.297   .     S
C810   C812    1.470   .     S
C810   O852    1.297   .     A
C810   O982    1.296   1_455 S
C811   C815    1.399   .     A
C811   C817    1.397   .     A
C812   C816    1.400   .     A
C812   C818    1.400   .     A
C813   C821    1.404   .     A
C813   H833    1.084   .     S
C813   C815    1.394   .     A
C814   C816    1.391   .     A
C814   C822    1.403   .     A
C814   H966    1.083   1_455 S
C815   H898    1.083   .     S
C816   H963    1.083   1_455 S
C817   H830    1.078   .     S
C817   C819    1.405   .     A
C818   H829    1.077   .     S
C818   C820    1.406   .     A
C819   C821    1.414   .     A
C819   C823    1.425   .     A
C820   C822    1.416   .     A
C820   C824    1.426   .     A
C821   C203    1.390   1_556 S
C823   C230    1.426   1_556 S
Cu825  N843    2.013   .     S
Cu825  O849    1.941   .     S
Cu825  O848    1.965   .     S
Cu825  O852    1.929   .     S
Cu825  O845    1.965   .     S
Cu825  Cu958   2.679   1_455 S
Cu826  N844    2.013   .     S
Cu826  O847    1.965   .     S
Cu826  O846    1.965   .     S
Cu826  O850    1.941   .     S
Cu826  O851    1.929   .     S
Cu826  Cu891   2.679   .     S
H831   C882    1.083   .     S
H832   C947    1.083   1_455 S
H834   C880    1.083   .     S
O845   C925    1.292   1_455 S
O846   C860    1.292   .     S
O849   C941    1.297   1_455 S
O850   C876    1.296   .     S
N853   H854    1.046   .     S
N853   H855    1.046   .     S
N856   H857    1.046   .     S
N856   H858    1.046   .     S
C859   O913    1.292   .     A
C859   C870    1.450   .     S
C859   O977    1.292   .     S
C860   O914    1.292   .     A
C860   C869    1.450   .     S
C861   N919    1.434   .     S
C861   C890    1.427   .     A
C861   C863    1.397   .     A
C862   N922    1.434   .     S
C862   C889    1.426   .     A
C862   C864    1.394   .     A
C863   H893    1.085   .     S
C864   H894    1.082   .     S
C864   C294    1.389   1_556 S
C865   C870    1.401   .     A
C865   H901    1.083   .     S
C866   C869    1.401   .     A
C866   H902    1.083   .     S
C866   C1066   1.384   .     S
C867   H903    1.083   .     S
C867   C1063   1.384   .     S
C867   C935    1.401   .     S
C868   H904    1.083   .     S
C870   C934    1.401   .     S
C871   N910    1.367   .     A
C871   C873    1.417   .     A
C871   H905    1.082   .     S
C872   C874    1.417   .     A
C872   N909    1.368   .     A
C872   H906    1.082   .     S
C873   N909    1.367   .     A
C873   H907    1.082   .     S
C874   N910    1.367   .     A
C874   H908    1.082   .     S
C875   O917    1.295   .     A
C875   C877    1.468   .     S
C875   O981    1.297   .     S
C876   C878    1.470   .     S
C876   O918    1.297   .     A
C877   C881    1.399   .     A
C877   C883    1.397   .     A
C878   C882    1.400   .     A
C878   C884    1.400   .     A
C879   C887    1.404   .     A
C879   H899    1.084   .     S
C879   C881    1.394   .     A
C880   C882    1.391   .     A
C880   C888    1.403   .     A
C881   H964    1.083   .     S
C883   H896    1.078   .     S
C883   C885    1.405   .     A
C884   H895    1.077   .     S
C884   C886    1.406   .     A
C885   C887    1.414   .     A
C885   C889    1.425   .     A
C886   C888    1.416   .     A
C886   C890    1.426   .     A
C887   C269    1.390   1_556 S
C889   C296    1.426   1_556 S
Cu891  N909    2.013   .     S
Cu891  O915    1.941   .     S
Cu891  O914    1.965   .     S
Cu891  O918    1.929   .     S
Cu891  O911    1.965   .     S
Cu892  N910    2.013   .     S
Cu892  O913    1.965   .     S
Cu892  O912    1.965   .     S
Cu892  O916    1.941   .     S
Cu892  O917    1.929   .     S
Cu892  Cu957   2.679   .     S
H897   C948    1.083   .     S
H900   C946    1.083   .     S
O912   C926    1.292   .     S
O916   C942    1.296   .     S
N919   H920    1.046   .     S
N919   H921    1.046   .     S
N922   H923    1.046   .     S
N922   H924    1.046   .     S
C925   O979    1.292   .     A
C925   C936    1.450   .     S
C925   O845    1.292   1_655 S
C926   O980    1.292   .     A
C926   C935    1.450   .     S
C927   N985    1.434   .     S
C927   C956    1.427   .     A
C927   C929    1.397   .     A
C928   N988    1.434   .     S
C928   C955    1.426   .     A
C928   C930    1.394   .     A
C929   H959    1.085   .     S
C930   H960    1.082   .     S
C930   C360    1.389   1_556 S
C931   C936    1.401   .     A
C931   H967    1.083   .     S
C932   C935    1.401   .     A
C932   H968    1.083   .     S
C932   C1132   1.384   .     S
C933   H969    1.083   .     S
C933   C1129   1.384   .     S
C933   C803    1.401   1_655 S
C934   H970    1.083   .     S
C936   C802    1.401   1_655 S
C937   N976    1.367   .     A
C937   C939    1.417   .     A
C937   H971    1.082   .     S
C938   C940    1.417   .     A
C938   N975    1.368   .     A
C938   H972    1.082   .     S
C939   N975    1.367   .     A
C939   H973    1.082   .     S
C940   N976    1.367   .     A
C940   H974    1.082   .     S
C941   O983    1.295   .     A
C941   C943    1.468   .     S
C941   O849    1.297   1_655 S
C942   C944    1.470   .     S
C942   O984    1.297   .     A
C943   C947    1.399   .     A
C943   C949    1.397   .     A
C944   C948    1.400   .     A
C944   C950    1.400   .     A
C945   C953    1.404   .     A
C945   H965    1.084   .     S
C945   C947    1.394   .     A
C946   C948    1.391   .     A
C946   C954    1.403   .     A
C947   H832    1.083   1_655 S
C949   H962    1.078   .     S
C949   C951    1.405   .     A
C950   H961    1.077   .     S
C950   C952    1.406   .     A
C951   C953    1.414   .     A
C951   C955    1.425   .     A
C952   C954    1.416   .     A
C952   C956    1.426   .     A
C953   C335    1.390   1_556 S
C955   C362    1.426   1_556 S
Cu957  N975    2.013   .     S
Cu957  O981    1.941   .     S
Cu957  O980    1.965   .     S
Cu957  O984    1.929   .     S
Cu957  O977    1.965   .     S
Cu958  N976    2.013   .     S
Cu958  O979    1.965   .     S
Cu958  O978    1.965   .     S
Cu958  O982    1.941   .     S
Cu958  O983    1.929   .     S
Cu958  Cu825   2.679   1_655 S
H963   C816    1.083   1_655 S
H966   C814    1.083   1_655 S
O978   C794    1.292   1_655 S
O982   C810    1.296   1_655 S
N985   H986    1.046   .     S
N985   H987    1.046   .     S
N988   H989    1.046   .     S
N988   H990    1.046   .     S
C991   O1045   1.292   .     A
C991   C1002   1.450   .     S
C991   O1109   1.292   .     S
C992   O1046   1.292   .     A
C992   C1001   1.450   .     S
C992   O1176   1.292   1_455 S
C993   N1051   1.434   .     S
C993   C1022   1.427   .     A
C993   C995    1.397   .     A
C994   N1054   1.434   .     S
C994   C1021   1.426   .     A
C994   C996    1.394   .     A
C995   H1025   1.085   .     S
C996   H1026   1.082   .     S
C996   C426    1.389   1_556 S
C997   C1002   1.401   .     A
C997   H1033   1.083   .     S
C998   C1001   1.401   .     A
C998   H1034   1.083   .     S
C998   C604    1.384   1_565 S
C999   H1035   1.083   .     S
C999   C601    1.384   1_565 S
C999   C1067   1.401   .     S
C1000  H1036   1.083   .     S
C1000  C1134   1.401   1_455 S
C1001  C1131   1.401   1_455 S
C1002  C1066   1.401   .     S
C1003  N1042   1.367   .     A
C1003  C1005   1.417   .     A
C1003  H1037   1.082   .     S
C1004  C1006   1.417   .     A
C1004  N1041   1.368   .     A
C1004  H1038   1.082   .     S
C1005  N1041   1.367   .     A
C1005  H1039   1.082   .     S
C1006  N1042   1.367   .     A
C1006  H1040   1.082   .     S
C1007  O1049   1.295   .     A
C1007  C1009   1.468   .     S
C1007  O1113   1.297   .     S
C1008  C1010   1.470   .     S
C1008  O1050   1.297   .     A
C1008  O1180   1.296   1_455 S
C1009  C1013   1.399   .     A
C1009  C1015   1.397   .     A
C1010  C1014   1.400   .     A
C1010  C1016   1.400   .     A
C1011  C1019   1.404   .     A
C1011  H1031   1.084   .     S
C1011  C1013   1.394   .     A
C1012  C1014   1.391   .     A
C1012  C1020   1.403   .     A
C1012  H1164   1.083   1_455 S
C1013  H1096   1.083   .     S
C1014  H1161   1.083   1_455 S
C1015  H1028   1.078   .     S
C1015  C1017   1.405   .     A
C1016  H1027   1.077   .     S
C1016  C1018   1.406   .     A
C1017  C1019   1.414   .     A
C1017  C1021   1.425   .     A
C1018  C1020   1.416   .     A
C1018  C1022   1.426   .     A
C1019  C401    1.390   1_556 S
C1021  C428    1.426   1_556 S
Cu1023 N1041   2.013   .     S
Cu1023 O1047   1.941   .     S
Cu1023 O1046   1.965   .     S
Cu1023 O1050   1.929   .     S
Cu1023 O1043   1.965   .     S
Cu1023 Cu1156  2.679   1_455 S
Cu1024 N1042   2.013   .     S
Cu1024 O1045   1.965   .     S
Cu1024 O1044   1.965   .     S
Cu1024 O1048   1.941   .     S
Cu1024 O1049   1.929   .     S
Cu1024 Cu1089  2.679   .     S
H1029  C1080   1.083   .     S
H1030  C1145   1.083   1_455 S
H1032  C1078   1.083   .     S
O1043  C1123   1.292   1_455 S
O1044  C1058   1.292   .     S
O1047  C1139   1.297   1_455 S
O1048  C1074   1.296   .     S
N1051  H1052   1.046   .     S
N1051  H1053   1.046   .     S
N1054  H1055   1.046   .     S
N1054  H1056   1.046   .     S
C1057  O1111   1.292   .     A
C1057  C1068   1.450   .     S
C1057  O1175   1.292   .     S
C1058  O1112   1.292   .     A
C1058  C1067   1.450   .     S
C1059  N1117   1.434   .     S
C1059  C1088   1.427   .     A
C1059  C1061   1.397   .     A
C1060  N1120   1.434   .     S
C1060  C1087   1.426   .     A
C1060  C1062   1.394   .     A
C1061  H1091   1.085   .     S
C1062  H1092   1.082   .     S
C1062  C492    1.389   1_556 S
C1063  C1068   1.401   .     A
C1063  H1099   1.083   .     S
C1064  C1067   1.401   .     A
C1064  H1100   1.083   .     S
C1064  C670    1.384   1_565 S
C1065  H1101   1.083   .     S
C1065  C667    1.384   1_565 S
C1065  C1133   1.401   .     S
C1066  H1102   1.083   .     S
C1068  C1132   1.401   .     S
C1069  N1108   1.367   .     A
C1069  C1071   1.417   .     A
C1069  H1103   1.082   .     S
C1070  C1072   1.417   .     A
C1070  N1107   1.368   .     A
C1070  H1104   1.082   .     S
C1071  N1107   1.367   .     A
C1071  H1105   1.082   .     S
C1072  N1108   1.367   .     A
C1072  H1106   1.082   .     S
C1073  O1115   1.295   .     A
C1073  C1075   1.468   .     S
C1073  O1179   1.297   .     S
C1074  C1076   1.470   .     S
C1074  O1116   1.297   .     A
C1075  C1079   1.399   .     A
C1075  C1081   1.397   .     A
C1076  C1080   1.400   .     A
C1076  C1082   1.400   .     A
C1077  C1085   1.404   .     A
C1077  H1097   1.084   .     S
C1077  C1079   1.394   .     A
C1078  C1080   1.391   .     A
C1078  C1086   1.403   .     A
C1079  H1162   1.083   .     S
C1081  H1094   1.078   .     S
C1081  C1083   1.405   .     A
C1082  H1093   1.077   .     S
C1082  C1084   1.406   .     A
C1083  C1085   1.414   .     A
C1083  C1087   1.425   .     A
C1084  C1086   1.416   .     A
C1084  C1088   1.426   .     A
C1085  C467    1.390   1_556 S
C1087  C494    1.426   1_556 S
Cu1089 N1107   2.013   .     S
Cu1089 O1113   1.941   .     S
Cu1089 O1112   1.965   .     S
Cu1089 O1116   1.929   .     S
Cu1089 O1109   1.965   .     S
Cu1090 N1108   2.013   .     S
Cu1090 O1111   1.965   .     S
Cu1090 O1110   1.965   .     S
Cu1090 O1114   1.941   .     S
Cu1090 O1115   1.929   .     S
Cu1090 Cu1155  2.679   .     S
H1095  C1146   1.083   .     S
H1098  C1144   1.083   .     S
O1110  C1124   1.292   .     S
O1114  C1140   1.296   .     S
N1117  H1118   1.046   .     S
N1117  H1119   1.046   .     S
N1120  H1121   1.046   .     S
N1120  H1122   1.046   .     S
C1123  O1177   1.292   .     A
C1123  C1134   1.450   .     S
C1123  O1043   1.292   1_655 S
C1124  O1178   1.292   .     A
C1124  C1133   1.450   .     S
C1125  N1183   1.434   .     S
C1125  C1154   1.427   .     A
C1125  C1127   1.397   .     A
C1126  N1186   1.434   .     S
C1126  C1153   1.426   .     A
C1126  C1128   1.394   .     A
C1127  H1157   1.085   .     S
C1128  H1158   1.082   .     S
C1128  C558    1.389   1_556 S
C1129  C1134   1.401   .     A
C1129  H1165   1.083   .     S
C1130  C1133   1.401   .     A
C1130  H1166   1.083   .     S
C1130  C736    1.384   1_565 S
C1131  H1167   1.083   .     S
C1131  C733    1.384   1_565 S
C1131  C1001   1.401   1_655 S
C1132  H1168   1.083   .     S
C1134  C1000   1.401   1_655 S
C1135  N1174   1.367   .     A
C1135  C1137   1.417   .     A
C1135  H1169   1.082   .     S
C1136  C1138   1.417   .     A
C1136  N1173   1.368   .     A
C1136  H1170   1.082   .     S
C1137  N1173   1.367   .     A
C1137  H1171   1.082   .     S
C1138  N1174   1.367   .     A
C1138  H1172   1.082   .     S
C1139  O1181   1.295   .     A
C1139  C1141   1.468   .     S
C1139  O1047   1.297   1_655 S
C1140  C1142   1.470   .     S
C1140  O1182   1.297   .     A
C1141  C1145   1.399   .     A
C1141  C1147   1.397   .     A
C1142  C1146   1.400   .     A
C1142  C1148   1.400   .     A
C1143  C1151   1.404   .     A
C1143  H1163   1.084   .     S
C1143  C1145   1.394   .     A
C1144  C1146   1.391   .     A
C1144  C1152   1.403   .     A
C1145  H1030   1.083   1_655 S
C1147  H1160   1.078   .     S
C1147  C1149   1.405   .     A
C1148  H1159   1.077   .     S
C1148  C1150   1.406   .     A
C1149  C1151   1.414   .     A
C1149  C1153   1.425   .     A
C1150  C1152   1.416   .     A
C1150  C1154   1.426   .     A
C1151  C533    1.390   1_556 S
C1153  C560    1.426   1_556 S
Cu1155 N1173   2.013   .     S
Cu1155 O1179   1.941   .     S
Cu1155 O1178   1.965   .     S
Cu1155 O1182   1.929   .     S
Cu1155 O1175   1.965   .     S
Cu1156 N1174   2.013   .     S
Cu1156 O1177   1.965   .     S
Cu1156 O1176   1.965   .     S
Cu1156 O1180   1.941   .     S
Cu1156 O1181   1.929   .     S
Cu1156 Cu1023  2.679   1_655 S
H1161  C1014   1.083   1_655 S
H1164  C1012   1.083   1_655 S
O1176  C992    1.292   1_655 S
O1180  C1008   1.296   1_655 S
N1183  H1184   1.046   .     S
N1183  H1185   1.046   .     S
N1186  H1187   1.046   .     S
N1186  H1188   1.046   .     S
