data_str_m2_o1_o17_pcu_sym.129
_audit_creation_date              2020-01-03
_audit_creation_method            'Materials Studio'
_symmetry_space_group_name_H-M    'P1'
_symmetry_Int_Tables_number       1
_symmetry_cell_setting            triclinic
loop_
_symmetry_equiv_pos_as_xyz
  x,y,z
_cell_length_a                    32.9717
_cell_length_b                    29.1832
_cell_length_c                    30.1021
_cell_angle_alpha                 90.6730
_cell_angle_beta                  91.7125
_cell_angle_gamma                 90.2485
loop_
_atom_site_label
_atom_site_type_symbol
_atom_site_fract_x
_atom_site_fract_y
_atom_site_fract_z
_atom_site_U_iso_or_equiv
_atom_site_adp_type
_atom_site_occupancy
C1     C     0.08755   0.16662   0.24863   0.00000  Uiso   1.00
C2     C     0.24579   0.16682   0.24899   0.00000  Uiso   1.00
C3     C     0.09293   0.17611   0.02173   0.00000  Uiso   1.00
C4     C     0.23758   0.14766   0.47844   0.00000  Uiso   1.00
C5     C     0.02081   0.12506   0.24778   0.00000  Uiso   1.00
C6     C     0.31253   0.20911   0.24506   0.00000  Uiso   1.00
C7     C     0.31181   0.12534   0.24423   0.00000  Uiso   1.00
C8     C     0.02141   0.20846   0.24111   0.00000  Uiso   1.00
C9     C     0.29062   0.16721   0.24679   0.00000  Uiso   1.00
C10    C     0.04273   0.16671   0.24606   0.00000  Uiso   1.00
C11    C     0.16375   0.02377   0.21103   0.00000  Uiso   1.00
C12    C     0.16608   0.30992   0.28891   0.00000  Uiso   1.00
C13    C     0.17442   0.02503   0.28843   0.00000  Uiso   1.00
C14    C     0.16903   0.30858   0.21122   0.00000  Uiso   1.00
C15    C     0.16585   0.16640   0.16491   0.00000  Uiso   1.00
C16    C     0.16695   0.16684   0.33516   0.00000  Uiso   1.00
C17    C     0.20224   0.15918   0.40750   0.00000  Uiso   1.00
C18    C     0.12938   0.17044   0.09295   0.00000  Uiso   1.00
C19    C     0.16605   0.16688   0.38346   0.00000  Uiso   1.00
C20    C     0.16614   0.16560   0.11673   0.00000  Uiso   1.00
C21    C     0.12898   0.17196   0.40474   0.00000  Uiso   1.00
C22    C     0.20275   0.15818   0.09526   0.00000  Uiso   1.00
C23    C     0.12820   0.17173   0.45191   0.00000  Uiso   1.00
C24    C     0.20324   0.15754   0.04818   0.00000  Uiso   1.00
C25    C     0.16524   0.16401   0.47650   0.00000  Uiso   1.00
C26    C     0.16592   0.16377   0.02367   0.00000  Uiso   1.00
C27    C     0.20176   0.15650   0.45404   0.00000  Uiso   1.00
C28    C     0.12919   0.16981   0.04620   0.00000  Uiso   1.00
C29    C     0.09198   0.17832   0.47561   0.00000  Uiso   1.00
C30    C     0.23935   0.15023   0.02447   0.00000  Uiso   1.00
Cu31   Cu    0.16667   0.21355   0.25000   0.00000  Uiso   1.00
Cu32   Cu    0.16667   0.11978   0.25000   0.00000  Uiso   1.00
H33    H     0.06455   0.18117   0.03809   0.00000  Uiso   1.00
H34    H     0.26558   0.14018   0.46213   0.00000  Uiso   1.00
N35    N     0.16667   0.28402   0.25000   0.00000  Uiso   1.00
N36    N     0.16667   0.04931   0.25000   0.00000  Uiso   1.00
O37    O     0.10655   0.20625   0.24999   0.00000  Uiso   1.00
O38    O     0.22679   0.12709   0.25000   0.00000  Uiso   1.00
O39    O     0.22679   0.20625   0.25000   0.00000  Uiso   1.00
O40    O     0.10655   0.12709   0.24999   0.00000  Uiso   1.00
O41    O     0.16666   0.20627   0.18513   0.00000  Uiso   1.00
O42    O     0.16668   0.12707   0.31487   0.00000  Uiso   1.00
O43    O     0.16668   0.20627   0.31487   0.00000  Uiso   1.00
O44    O     0.16666   0.12707   0.18513   0.00000  Uiso   1.00
N45    N     0.23911   0.15547   0.38411   0.00000  Uiso   1.00
H46    H     0.25502   0.12570   0.38979   0.00000  Uiso   1.00
C47    C     0.26427   0.19622   0.38620   0.00000  Uiso   1.00
H48    H     0.27711   0.20237   0.42021   0.00000  Uiso   1.00
H49    H     0.24608   0.22665   0.37653   0.00000  Uiso   1.00
H50    H     0.28998   0.19187   0.36356   0.00000  Uiso   1.00
N51    N     0.09260   0.17300   0.11672   0.00000  Uiso   1.00
H52    H     0.07012   0.15069   0.10548   0.00000  Uiso   1.00
C53    C     0.07823   0.21889   0.12553   0.00000  Uiso   1.00
H54    H     0.07376   0.23814   0.09419   0.00000  Uiso   1.00
H55    H     0.10012   0.23773   0.14774   0.00000  Uiso   1.00
H56    H     0.04872   0.21686   0.14216   0.00000  Uiso   1.00
C57    C     0.09233   0.17546   0.37698   0.00000  Uiso   1.00
N58    N     0.06322   0.17815   0.35472   0.00000  Uiso   1.00
C59    C     0.23888   0.14992   0.12271   0.00000  Uiso   1.00
N60    N     0.26765   0.14331   0.14461   0.00000  Uiso   1.00
N61    N     0.05409   0.18817   0.45397   0.00000  Uiso   1.00
H62    H     0.03009   0.16984   0.46614   0.00000  Uiso   1.00
C63    C     0.04527   0.23659   0.45107   0.00000  Uiso   1.00
H64    H     0.01692   0.24148   0.43087   0.00000  Uiso   1.00
H65    H     0.07029   0.25494   0.43476   0.00000  Uiso   1.00
H66    H     0.04111   0.25146   0.48478   0.00000  Uiso   1.00
N67    N     0.27823   0.14653   0.04597   0.00000  Uiso   1.00
H68    H     0.29600   0.12096   0.03292   0.00000  Uiso   1.00
C69    C     0.29999   0.18962   0.05031   0.00000  Uiso   1.00
H70    H     0.32841   0.18455   0.07032   0.00000  Uiso   1.00
H71    H     0.28137   0.21560   0.06758   0.00000  Uiso   1.00
H72    H     0.30781   0.20252   0.01703   0.00000  Uiso   1.00
N73    N     0.04122   0.08270   0.25443   0.00000  Uiso   1.00
H74    H     0.03248   0.06391   0.28129   0.00000  Uiso   1.00
C75    C     0.04981   0.05621   0.21500   0.00000  Uiso   1.00
H76    H     0.02504   0.03135   0.20714   0.00000  Uiso   1.00
H77    H     0.07800   0.03664   0.22147   0.00000  Uiso   1.00
H78    H     0.05401   0.07882   0.18604   0.00000  Uiso   1.00
N79    N     0.29215   0.25207   0.24603   0.00000  Uiso   1.00
H80    H     0.30273   0.27726   0.22564   0.00000  Uiso   1.00
C81    C     0.28256   0.26883   0.28979   0.00000  Uiso   1.00
H82    H     0.30990   0.28232   0.30787   0.00000  Uiso   1.00
H83    H     0.26918   0.24138   0.30936   0.00000  Uiso   1.00
H84    H     0.25942   0.29584   0.28635   0.00000  Uiso   1.00
N85    N     0.29087   0.08409   0.23218   0.00000  Uiso   1.00
H86    H     0.29801   0.07000   0.20188   0.00000  Uiso   1.00
C87    C     0.28453   0.05136   0.26682   0.00000  Uiso   1.00
H88    H     0.30755   0.02403   0.26539   0.00000  Uiso   1.00
H89    H     0.25443   0.03527   0.26076   0.00000  Uiso   1.00
H90    H     0.28582   0.06792   0.30029   0.00000  Uiso   1.00
N91    N     0.04220   0.24974   0.23067   0.00000  Uiso   1.00
H92    H     0.03194   0.26619   0.20241   0.00000  Uiso   1.00
C93    C     0.05250   0.28021   0.26750   0.00000  Uiso   1.00
H94    H     0.03081   0.30894   0.26870   0.00000  Uiso   1.00
H95    H     0.08302   0.29478   0.26242   0.00000  Uiso   1.00
H96    H     0.05259   0.26186   0.29962   0.00000  Uiso   1.00
N97    N     0.16214   0.04588   0.16929   0.00000  Uiso   1.00
H98    H     0.18892   0.04575   0.15246   0.00000  Uiso   1.00
C99    C     0.12584   0.04029   0.14129   0.00000  Uiso   1.00
H100   H     0.11030   0.07375   0.13817   0.00000  Uiso   1.00
H101   H     0.10465   0.01454   0.15463   0.00000  Uiso   1.00
H102   H     0.13412   0.02882   0.10744   0.00000  Uiso   1.00
N103   N     0.15471   0.28938   0.32926   0.00000  Uiso   1.00
H104   H     0.17786   0.27810   0.35001   0.00000  Uiso   1.00
C105   C     0.11957   0.30751   0.35128   0.00000  Uiso   1.00
H106   H     0.09875   0.27885   0.35861   0.00000  Uiso   1.00
H107   H     0.10299   0.33303   0.33058   0.00000  Uiso   1.00
H108   H     0.12867   0.32410   0.38338   0.00000  Uiso   1.00
N109   N     0.19574   0.04763   0.32486   0.00000  Uiso   1.00
H110   H     0.21504   0.07242   0.31368   0.00000  Uiso   1.00
C111   C     0.21582   0.02288   0.36068   0.00000  Uiso   1.00
H112   H     0.23794   0.04581   0.37856   0.00000  Uiso   1.00
H113   H     0.23300   0.32664   0.34792   0.00000  Uiso   1.00
H114   H     0.19385   0.01247   0.38567   0.00000  Uiso   1.00
N115   N     0.17834   0.28642   0.17057   0.00000  Uiso   1.00
H116   H     0.16041   0.29450   0.14328   0.00000  Uiso   1.00
C117   C     0.22103   0.28403   0.16118   0.00000  Uiso   1.00
H118   H     0.22496   0.26685   0.12848   0.00000  Uiso   1.00
H119   H     0.23697   0.26342   0.18666   0.00000  Uiso   1.00
H120   H     0.23480   0.31878   0.16039   0.00000  Uiso   1.00
C121   C     0.42088   0.16662   0.24863   0.00000  Uiso   1.00
C122   C     0.57912   0.16682   0.24899   0.00000  Uiso   1.00
C123   C     0.42626   0.17611   0.02173   0.00000  Uiso   1.00
C124   C     0.57091   0.14766   0.47844   0.00000  Uiso   1.00
C125   C     0.35414   0.12506   0.24778   0.00000  Uiso   1.00
C126   C     0.64586   0.20911   0.24506   0.00000  Uiso   1.00
C127   C     0.64514   0.12534   0.24423   0.00000  Uiso   1.00
C128   C     0.35474   0.20846   0.24111   0.00000  Uiso   1.00
C129   C     0.62395   0.16721   0.24679   0.00000  Uiso   1.00
C130   C     0.37606   0.16671   0.24606   0.00000  Uiso   1.00
C131   C     0.49708   0.02377   0.21103   0.00000  Uiso   1.00
C132   C     0.49942   0.30992   0.28891   0.00000  Uiso   1.00
C133   C     0.50776   0.02503   0.28843   0.00000  Uiso   1.00
C134   C     0.50236   0.30858   0.21122   0.00000  Uiso   1.00
C135   C     0.49918   0.16640   0.16491   0.00000  Uiso   1.00
C136   C     0.50028   0.16684   0.33516   0.00000  Uiso   1.00
C137   C     0.53557   0.15918   0.40750   0.00000  Uiso   1.00
C138   C     0.46272   0.17044   0.09295   0.00000  Uiso   1.00
C139   C     0.49939   0.16688   0.38346   0.00000  Uiso   1.00
C140   C     0.49947   0.16560   0.11673   0.00000  Uiso   1.00
C141   C     0.46231   0.17196   0.40474   0.00000  Uiso   1.00
C142   C     0.53608   0.15818   0.09526   0.00000  Uiso   1.00
C143   C     0.46154   0.17173   0.45191   0.00000  Uiso   1.00
C144   C     0.53657   0.15754   0.04818   0.00000  Uiso   1.00
C145   C     0.49857   0.16401   0.47650   0.00000  Uiso   1.00
C146   C     0.49925   0.16377   0.02367   0.00000  Uiso   1.00
C147   C     0.53510   0.15650   0.45404   0.00000  Uiso   1.00
C148   C     0.46252   0.16981   0.04620   0.00000  Uiso   1.00
C149   C     0.42531   0.17832   0.47561   0.00000  Uiso   1.00
C150   C     0.57268   0.15023   0.02447   0.00000  Uiso   1.00
Cu151  Cu    0.50000   0.21355   0.25000   0.00000  Uiso   1.00
Cu152  Cu    0.50000   0.11978   0.25000   0.00000  Uiso   1.00
H153   H     0.39789   0.18117   0.03809   0.00000  Uiso   1.00
H154   H     0.59892   0.14018   0.46213   0.00000  Uiso   1.00
N155   N     0.50000   0.28402   0.25000   0.00000  Uiso   1.00
N156   N     0.50000   0.04931   0.25000   0.00000  Uiso   1.00
O157   O     0.43988   0.20625   0.24999   0.00000  Uiso   1.00
O158   O     0.56012   0.12709   0.25000   0.00000  Uiso   1.00
O159   O     0.56012   0.20625   0.25000   0.00000  Uiso   1.00
O160   O     0.43988   0.12709   0.24999   0.00000  Uiso   1.00
O161   O     0.49999   0.20627   0.18513   0.00000  Uiso   1.00
O162   O     0.50001   0.12707   0.31487   0.00000  Uiso   1.00
O163   O     0.50001   0.20627   0.31487   0.00000  Uiso   1.00
O164   O     0.49999   0.12707   0.18513   0.00000  Uiso   1.00
N165   N     0.57245   0.15547   0.38411   0.00000  Uiso   1.00
H166   H     0.58836   0.12570   0.38979   0.00000  Uiso   1.00
C167   C     0.59761   0.19622   0.38620   0.00000  Uiso   1.00
H168   H     0.61045   0.20237   0.42021   0.00000  Uiso   1.00
H169   H     0.57941   0.22665   0.37653   0.00000  Uiso   1.00
H170   H     0.62331   0.19187   0.36356   0.00000  Uiso   1.00
N171   N     0.42593   0.17300   0.11672   0.00000  Uiso   1.00
H172   H     0.40346   0.15069   0.10548   0.00000  Uiso   1.00
C173   C     0.41157   0.21889   0.12553   0.00000  Uiso   1.00
H174   H     0.40709   0.23814   0.09419   0.00000  Uiso   1.00
H175   H     0.43346   0.23773   0.14774   0.00000  Uiso   1.00
H176   H     0.38206   0.21686   0.14216   0.00000  Uiso   1.00
C177   C     0.42566   0.17546   0.37698   0.00000  Uiso   1.00
N178   N     0.39655   0.17815   0.35472   0.00000  Uiso   1.00
C179   C     0.57222   0.14992   0.12271   0.00000  Uiso   1.00
N180   N     0.60098   0.14331   0.14461   0.00000  Uiso   1.00
N181   N     0.38743   0.18817   0.45397   0.00000  Uiso   1.00
H182   H     0.36343   0.16984   0.46614   0.00000  Uiso   1.00
C183   C     0.37860   0.23659   0.45107   0.00000  Uiso   1.00
H184   H     0.35026   0.24148   0.43087   0.00000  Uiso   1.00
H185   H     0.40362   0.25494   0.43476   0.00000  Uiso   1.00
H186   H     0.37444   0.25146   0.48478   0.00000  Uiso   1.00
N187   N     0.61156   0.14653   0.04597   0.00000  Uiso   1.00
H188   H     0.62933   0.12096   0.03292   0.00000  Uiso   1.00
C189   C     0.63332   0.18962   0.05031   0.00000  Uiso   1.00
H190   H     0.66174   0.18455   0.07032   0.00000  Uiso   1.00
H191   H     0.61470   0.21560   0.06758   0.00000  Uiso   1.00
H192   H     0.64114   0.20252   0.01703   0.00000  Uiso   1.00
N193   N     0.37455   0.08270   0.25443   0.00000  Uiso   1.00
H194   H     0.36582   0.06391   0.28129   0.00000  Uiso   1.00
C195   C     0.38314   0.05621   0.21500   0.00000  Uiso   1.00
H196   H     0.35837   0.03135   0.20714   0.00000  Uiso   1.00
H197   H     0.41133   0.03664   0.22147   0.00000  Uiso   1.00
H198   H     0.38735   0.07882   0.18604   0.00000  Uiso   1.00
N199   N     0.62548   0.25207   0.24603   0.00000  Uiso   1.00
H200   H     0.63606   0.27726   0.22564   0.00000  Uiso   1.00
C201   C     0.61589   0.26883   0.28979   0.00000  Uiso   1.00
H202   H     0.64323   0.28232   0.30787   0.00000  Uiso   1.00
H203   H     0.60251   0.24138   0.30936   0.00000  Uiso   1.00
H204   H     0.59276   0.29584   0.28635   0.00000  Uiso   1.00
N205   N     0.62420   0.08409   0.23218   0.00000  Uiso   1.00
H206   H     0.63134   0.07000   0.20188   0.00000  Uiso   1.00
C207   C     0.61786   0.05136   0.26682   0.00000  Uiso   1.00
H208   H     0.64088   0.02403   0.26539   0.00000  Uiso   1.00
H209   H     0.58777   0.03527   0.26076   0.00000  Uiso   1.00
H210   H     0.61915   0.06792   0.30029   0.00000  Uiso   1.00
N211   N     0.37554   0.24974   0.23067   0.00000  Uiso   1.00
H212   H     0.36527   0.26619   0.20241   0.00000  Uiso   1.00
C213   C     0.38584   0.28021   0.26750   0.00000  Uiso   1.00
H214   H     0.36415   0.30894   0.26870   0.00000  Uiso   1.00
H215   H     0.41636   0.29478   0.26242   0.00000  Uiso   1.00
H216   H     0.38593   0.26186   0.29962   0.00000  Uiso   1.00
N217   N     0.49547   0.04588   0.16929   0.00000  Uiso   1.00
H218   H     0.52225   0.04575   0.15246   0.00000  Uiso   1.00
C219   C     0.45917   0.04029   0.14129   0.00000  Uiso   1.00
H220   H     0.44363   0.07375   0.13817   0.00000  Uiso   1.00
H221   H     0.43799   0.01454   0.15463   0.00000  Uiso   1.00
H222   H     0.46746   0.02882   0.10744   0.00000  Uiso   1.00
N223   N     0.48804   0.28938   0.32926   0.00000  Uiso   1.00
H224   H     0.51120   0.27810   0.35001   0.00000  Uiso   1.00
C225   C     0.45290   0.30751   0.35128   0.00000  Uiso   1.00
H226   H     0.43208   0.27885   0.35861   0.00000  Uiso   1.00
H227   H     0.43633   0.33303   0.33058   0.00000  Uiso   1.00
H228   H     0.46201   0.32410   0.38338   0.00000  Uiso   1.00
N229   N     0.52907   0.04763   0.32486   0.00000  Uiso   1.00
H230   H     0.54837   0.07242   0.31368   0.00000  Uiso   1.00
C231   C     0.54916   0.02288   0.36068   0.00000  Uiso   1.00
H232   H     0.57127   0.04581   0.37856   0.00000  Uiso   1.00
H233   H     0.56634   0.32664   0.34792   0.00000  Uiso   1.00
H234   H     0.52718   0.01247   0.38567   0.00000  Uiso   1.00
N235   N     0.51168   0.28642   0.17057   0.00000  Uiso   1.00
H236   H     0.49375   0.29450   0.14328   0.00000  Uiso   1.00
C237   C     0.55436   0.28403   0.16118   0.00000  Uiso   1.00
H238   H     0.55830   0.26685   0.12848   0.00000  Uiso   1.00
H239   H     0.57031   0.26342   0.18666   0.00000  Uiso   1.00
H240   H     0.56813   0.31878   0.16039   0.00000  Uiso   1.00
C241   C     0.75421   0.16662   0.24863   0.00000  Uiso   1.00
C242   C     0.91246   0.16682   0.24899   0.00000  Uiso   1.00
C243   C     0.75960   0.17611   0.02173   0.00000  Uiso   1.00
C244   C     0.90425   0.14766   0.47844   0.00000  Uiso   1.00
C245   C     0.68747   0.12506   0.24778   0.00000  Uiso   1.00
C246   C     0.97919   0.20911   0.24506   0.00000  Uiso   1.00
C247   C     0.97847   0.12534   0.24423   0.00000  Uiso   1.00
C248   C     0.68807   0.20846   0.24111   0.00000  Uiso   1.00
C249   C     0.95728   0.16721   0.24679   0.00000  Uiso   1.00
C250   C     0.70939   0.16671   0.24606   0.00000  Uiso   1.00
C251   C     0.83041   0.02377   0.21103   0.00000  Uiso   1.00
C252   C     0.83275   0.30992   0.28891   0.00000  Uiso   1.00
C253   C     0.84109   0.02503   0.28843   0.00000  Uiso   1.00
C254   C     0.83569   0.30858   0.21122   0.00000  Uiso   1.00
C255   C     0.83252   0.16640   0.16491   0.00000  Uiso   1.00
C256   C     0.83361   0.16684   0.33516   0.00000  Uiso   1.00
C257   C     0.86891   0.15918   0.40750   0.00000  Uiso   1.00
C258   C     0.79605   0.17044   0.09295   0.00000  Uiso   1.00
C259   C     0.83272   0.16688   0.38346   0.00000  Uiso   1.00
C260   C     0.83280   0.16560   0.11673   0.00000  Uiso   1.00
C261   C     0.79564   0.17196   0.40474   0.00000  Uiso   1.00
C262   C     0.86941   0.15818   0.09526   0.00000  Uiso   1.00
C263   C     0.79487   0.17173   0.45191   0.00000  Uiso   1.00
C264   C     0.86991   0.15754   0.04818   0.00000  Uiso   1.00
C265   C     0.83190   0.16401   0.47650   0.00000  Uiso   1.00
C266   C     0.83258   0.16377   0.02367   0.00000  Uiso   1.00
C267   C     0.86843   0.15650   0.45404   0.00000  Uiso   1.00
C268   C     0.79586   0.16981   0.04620   0.00000  Uiso   1.00
C269   C     0.75864   0.17832   0.47561   0.00000  Uiso   1.00
C270   C     0.90601   0.15023   0.02447   0.00000  Uiso   1.00
Cu271  Cu    0.83333   0.21355   0.25000   0.00000  Uiso   1.00
Cu272  Cu    0.83333   0.11978   0.25000   0.00000  Uiso   1.00
H273   H     0.73122   0.18117   0.03809   0.00000  Uiso   1.00
H274   H     0.93225   0.14018   0.46213   0.00000  Uiso   1.00
N275   N     0.83333   0.28402   0.25000   0.00000  Uiso   1.00
N276   N     0.83333   0.04931   0.25000   0.00000  Uiso   1.00
O277   O     0.77321   0.20625   0.24999   0.00000  Uiso   1.00
O278   O     0.89345   0.12709   0.25000   0.00000  Uiso   1.00
O279   O     0.89345   0.20625   0.25000   0.00000  Uiso   1.00
O280   O     0.77321   0.12709   0.24999   0.00000  Uiso   1.00
O281   O     0.83332   0.20627   0.18513   0.00000  Uiso   1.00
O282   O     0.83334   0.12707   0.31487   0.00000  Uiso   1.00
O283   O     0.83334   0.20627   0.31487   0.00000  Uiso   1.00
O284   O     0.83332   0.12707   0.18513   0.00000  Uiso   1.00
N285   N     0.90578   0.15547   0.38411   0.00000  Uiso   1.00
H286   H     0.92169   0.12570   0.38979   0.00000  Uiso   1.00
C287   C     0.93094   0.19622   0.38620   0.00000  Uiso   1.00
H288   H     0.94378   0.20237   0.42021   0.00000  Uiso   1.00
H289   H     0.91274   0.22665   0.37653   0.00000  Uiso   1.00
H290   H     0.95664   0.19187   0.36356   0.00000  Uiso   1.00
N291   N     0.75927   0.17300   0.11672   0.00000  Uiso   1.00
H292   H     0.73679   0.15069   0.10548   0.00000  Uiso   1.00
C293   C     0.74490   0.21889   0.12553   0.00000  Uiso   1.00
H294   H     0.74042   0.23814   0.09419   0.00000  Uiso   1.00
H295   H     0.76679   0.23773   0.14774   0.00000  Uiso   1.00
H296   H     0.71539   0.21686   0.14216   0.00000  Uiso   1.00
C297   C     0.75899   0.17546   0.37698   0.00000  Uiso   1.00
N298   N     0.72988   0.17815   0.35472   0.00000  Uiso   1.00
C299   C     0.90555   0.14992   0.12271   0.00000  Uiso   1.00
N300   N     0.93432   0.14331   0.14461   0.00000  Uiso   1.00
N301   N     0.72076   0.18817   0.45397   0.00000  Uiso   1.00
H302   H     0.69676   0.16984   0.46614   0.00000  Uiso   1.00
C303   C     0.71194   0.23659   0.45107   0.00000  Uiso   1.00
H304   H     0.68359   0.24148   0.43087   0.00000  Uiso   1.00
H305   H     0.73695   0.25494   0.43476   0.00000  Uiso   1.00
H306   H     0.70778   0.25146   0.48478   0.00000  Uiso   1.00
N307   N     0.94489   0.14653   0.04597   0.00000  Uiso   1.00
H308   H     0.96266   0.12096   0.03292   0.00000  Uiso   1.00
C309   C     0.96666   0.18962   0.05031   0.00000  Uiso   1.00
H310   H     0.99507   0.18455   0.07032   0.00000  Uiso   1.00
H311   H     0.94803   0.21560   0.06758   0.00000  Uiso   1.00
H312   H     0.97447   0.20252   0.01703   0.00000  Uiso   1.00
N313   N     0.70788   0.08270   0.25443   0.00000  Uiso   1.00
H314   H     0.69915   0.06391   0.28129   0.00000  Uiso   1.00
C315   C     0.71647   0.05621   0.21500   0.00000  Uiso   1.00
H316   H     0.69170   0.03135   0.20714   0.00000  Uiso   1.00
H317   H     0.74467   0.03664   0.22147   0.00000  Uiso   1.00
H318   H     0.72068   0.07882   0.18604   0.00000  Uiso   1.00
N319   N     0.95881   0.25207   0.24603   0.00000  Uiso   1.00
H320   H     0.96939   0.27726   0.22564   0.00000  Uiso   1.00
C321   C     0.94922   0.26883   0.28979   0.00000  Uiso   1.00
H322   H     0.97657   0.28232   0.30787   0.00000  Uiso   1.00
H323   H     0.93585   0.24138   0.30936   0.00000  Uiso   1.00
H324   H     0.92609   0.29584   0.28635   0.00000  Uiso   1.00
N325   N     0.95753   0.08409   0.23218   0.00000  Uiso   1.00
H326   H     0.96468   0.07000   0.20188   0.00000  Uiso   1.00
C327   C     0.95120   0.05136   0.26682   0.00000  Uiso   1.00
H328   H     0.97421   0.02403   0.26539   0.00000  Uiso   1.00
H329   H     0.92110   0.03527   0.26076   0.00000  Uiso   1.00
H330   H     0.95248   0.06792   0.30029   0.00000  Uiso   1.00
N331   N     0.70887   0.24974   0.23067   0.00000  Uiso   1.00
H332   H     0.69860   0.26619   0.20241   0.00000  Uiso   1.00
C333   C     0.71917   0.28021   0.26750   0.00000  Uiso   1.00
H334   H     0.69748   0.30894   0.26870   0.00000  Uiso   1.00
H335   H     0.74969   0.29478   0.26242   0.00000  Uiso   1.00
H336   H     0.71926   0.26186   0.29962   0.00000  Uiso   1.00
N337   N     0.82881   0.04588   0.16929   0.00000  Uiso   1.00
H338   H     0.85558   0.04575   0.15246   0.00000  Uiso   1.00
C339   C     0.79251   0.04029   0.14129   0.00000  Uiso   1.00
H340   H     0.77697   0.07375   0.13817   0.00000  Uiso   1.00
H341   H     0.77132   0.01454   0.15463   0.00000  Uiso   1.00
H342   H     0.80079   0.02882   0.10744   0.00000  Uiso   1.00
N343   N     0.82137   0.28938   0.32926   0.00000  Uiso   1.00
H344   H     0.84453   0.27810   0.35001   0.00000  Uiso   1.00
C345   C     0.78623   0.30751   0.35128   0.00000  Uiso   1.00
H346   H     0.76542   0.27885   0.35861   0.00000  Uiso   1.00
H347   H     0.76966   0.33303   0.33058   0.00000  Uiso   1.00
H348   H     0.79534   0.32410   0.38338   0.00000  Uiso   1.00
N349   N     0.86241   0.04763   0.32486   0.00000  Uiso   1.00
H350   H     0.88171   0.07242   0.31368   0.00000  Uiso   1.00
C351   C     0.88249   0.02288   0.36068   0.00000  Uiso   1.00
H352   H     0.90461   0.04581   0.37856   0.00000  Uiso   1.00
H353   H     0.89967   0.32664   0.34792   0.00000  Uiso   1.00
H354   H     0.86051   0.01247   0.38567   0.00000  Uiso   1.00
N355   N     0.84501   0.28642   0.17057   0.00000  Uiso   1.00
H356   H     0.82708   0.29450   0.14328   0.00000  Uiso   1.00
C357   C     0.88770   0.28403   0.16118   0.00000  Uiso   1.00
H358   H     0.89163   0.26685   0.12848   0.00000  Uiso   1.00
H359   H     0.90364   0.26342   0.18666   0.00000  Uiso   1.00
H360   H     0.90147   0.31878   0.16039   0.00000  Uiso   1.00
C361   C     0.08755   0.49995   0.24863   0.00000  Uiso   1.00
C362   C     0.24579   0.50016   0.24899   0.00000  Uiso   1.00
C363   C     0.09293   0.50945   0.02173   0.00000  Uiso   1.00
C364   C     0.23758   0.48099   0.47844   0.00000  Uiso   1.00
C365   C     0.02081   0.45839   0.24778   0.00000  Uiso   1.00
C366   C     0.31253   0.54244   0.24506   0.00000  Uiso   1.00
C367   C     0.31181   0.45867   0.24423   0.00000  Uiso   1.00
C368   C     0.02141   0.54179   0.24111   0.00000  Uiso   1.00
C369   C     0.29062   0.50054   0.24679   0.00000  Uiso   1.00
C370   C     0.04273   0.50005   0.24606   0.00000  Uiso   1.00
C371   C     0.16375   0.35710   0.21103   0.00000  Uiso   1.00
C372   C     0.16608   0.64326   0.28891   0.00000  Uiso   1.00
C373   C     0.17442   0.35836   0.28843   0.00000  Uiso   1.00
C374   C     0.16903   0.64191   0.21122   0.00000  Uiso   1.00
C375   C     0.16585   0.49973   0.16491   0.00000  Uiso   1.00
C376   C     0.16695   0.50017   0.33516   0.00000  Uiso   1.00
C377   C     0.20224   0.49251   0.40750   0.00000  Uiso   1.00
C378   C     0.12938   0.50377   0.09295   0.00000  Uiso   1.00
C379   C     0.16605   0.50021   0.38346   0.00000  Uiso   1.00
C380   C     0.16614   0.49893   0.11673   0.00000  Uiso   1.00
C381   C     0.12898   0.50529   0.40474   0.00000  Uiso   1.00
C382   C     0.20275   0.49151   0.09526   0.00000  Uiso   1.00
C383   C     0.12820   0.50506   0.45191   0.00000  Uiso   1.00
C384   C     0.20324   0.49087   0.04818   0.00000  Uiso   1.00
C385   C     0.16524   0.49734   0.47650   0.00000  Uiso   1.00
C386   C     0.16592   0.49710   0.02367   0.00000  Uiso   1.00
C387   C     0.20176   0.48983   0.45404   0.00000  Uiso   1.00
C388   C     0.12919   0.50314   0.04620   0.00000  Uiso   1.00
C389   C     0.09198   0.51166   0.47561   0.00000  Uiso   1.00
C390   C     0.23935   0.48356   0.02447   0.00000  Uiso   1.00
Cu391  Cu    0.16667   0.54689   0.25000   0.00000  Uiso   1.00
Cu392  Cu    0.16667   0.45311   0.25000   0.00000  Uiso   1.00
H393   H     0.06455   0.51450   0.03809   0.00000  Uiso   1.00
H394   H     0.26558   0.47351   0.46213   0.00000  Uiso   1.00
N395   N     0.16667   0.61736   0.25000   0.00000  Uiso   1.00
N396   N     0.16667   0.38264   0.25000   0.00000  Uiso   1.00
O397   O     0.10655   0.53958   0.24999   0.00000  Uiso   1.00
O398   O     0.22679   0.46042   0.25000   0.00000  Uiso   1.00
O399   O     0.22679   0.53958   0.25000   0.00000  Uiso   1.00
O400   O     0.10655   0.46042   0.24999   0.00000  Uiso   1.00
O401   O     0.16666   0.53960   0.18513   0.00000  Uiso   1.00
O402   O     0.16668   0.46040   0.31487   0.00000  Uiso   1.00
O403   O     0.16668   0.53960   0.31487   0.00000  Uiso   1.00
O404   O     0.16666   0.46040   0.18513   0.00000  Uiso   1.00
N405   N     0.23911   0.48880   0.38411   0.00000  Uiso   1.00
H406   H     0.25502   0.45903   0.38979   0.00000  Uiso   1.00
C407   C     0.26427   0.52956   0.38620   0.00000  Uiso   1.00
H408   H     0.27711   0.53570   0.42021   0.00000  Uiso   1.00
H409   H     0.24608   0.55998   0.37653   0.00000  Uiso   1.00
H410   H     0.28998   0.52521   0.36356   0.00000  Uiso   1.00
N411   N     0.09260   0.50634   0.11672   0.00000  Uiso   1.00
H412   H     0.07012   0.48402   0.10548   0.00000  Uiso   1.00
C413   C     0.07823   0.55222   0.12553   0.00000  Uiso   1.00
H414   H     0.07376   0.57148   0.09419   0.00000  Uiso   1.00
H415   H     0.10012   0.57107   0.14774   0.00000  Uiso   1.00
H416   H     0.04872   0.55019   0.14216   0.00000  Uiso   1.00
C417   C     0.09233   0.50879   0.37698   0.00000  Uiso   1.00
N418   N     0.06322   0.51148   0.35472   0.00000  Uiso   1.00
C419   C     0.23888   0.48325   0.12271   0.00000  Uiso   1.00
N420   N     0.26765   0.47664   0.14461   0.00000  Uiso   1.00
N421   N     0.05409   0.52150   0.45397   0.00000  Uiso   1.00
H422   H     0.03009   0.50317   0.46614   0.00000  Uiso   1.00
C423   C     0.04527   0.56992   0.45107   0.00000  Uiso   1.00
H424   H     0.01692   0.57481   0.43087   0.00000  Uiso   1.00
H425   H     0.07029   0.58827   0.43476   0.00000  Uiso   1.00
H426   H     0.04111   0.58480   0.48478   0.00000  Uiso   1.00
N427   N     0.27823   0.47987   0.04597   0.00000  Uiso   1.00
H428   H     0.29600   0.45430   0.03292   0.00000  Uiso   1.00
C429   C     0.29999   0.52296   0.05031   0.00000  Uiso   1.00
H430   H     0.32841   0.51789   0.07032   0.00000  Uiso   1.00
H431   H     0.28137   0.54893   0.06758   0.00000  Uiso   1.00
H432   H     0.30781   0.53585   0.01703   0.00000  Uiso   1.00
N433   N     0.04122   0.41603   0.25443   0.00000  Uiso   1.00
H434   H     0.03248   0.39724   0.28129   0.00000  Uiso   1.00
C435   C     0.04981   0.38954   0.21500   0.00000  Uiso   1.00
H436   H     0.02504   0.36469   0.20714   0.00000  Uiso   1.00
H437   H     0.07800   0.36997   0.22147   0.00000  Uiso   1.00
H438   H     0.05401   0.41215   0.18604   0.00000  Uiso   1.00
N439   N     0.29215   0.58541   0.24603   0.00000  Uiso   1.00
H440   H     0.30273   0.61060   0.22564   0.00000  Uiso   1.00
C441   C     0.28256   0.60216   0.28979   0.00000  Uiso   1.00
H442   H     0.30990   0.61565   0.30787   0.00000  Uiso   1.00
H443   H     0.26918   0.57471   0.30936   0.00000  Uiso   1.00
H444   H     0.25942   0.62917   0.28635   0.00000  Uiso   1.00
N445   N     0.29087   0.41742   0.23218   0.00000  Uiso   1.00
H446   H     0.29801   0.40333   0.20188   0.00000  Uiso   1.00
C447   C     0.28453   0.38469   0.26682   0.00000  Uiso   1.00
H448   H     0.30755   0.35736   0.26539   0.00000  Uiso   1.00
H449   H     0.25443   0.36860   0.26076   0.00000  Uiso   1.00
H450   H     0.28582   0.40125   0.30029   0.00000  Uiso   1.00
N451   N     0.04220   0.58307   0.23067   0.00000  Uiso   1.00
H452   H     0.03194   0.59952   0.20241   0.00000  Uiso   1.00
C453   C     0.05250   0.61354   0.26750   0.00000  Uiso   1.00
H454   H     0.03081   0.64227   0.26870   0.00000  Uiso   1.00
H455   H     0.08302   0.62811   0.26242   0.00000  Uiso   1.00
H456   H     0.05259   0.59519   0.29962   0.00000  Uiso   1.00
N457   N     0.16214   0.37922   0.16929   0.00000  Uiso   1.00
H458   H     0.18892   0.37909   0.15246   0.00000  Uiso   1.00
C459   C     0.12584   0.37362   0.14129   0.00000  Uiso   1.00
H460   H     0.11030   0.40708   0.13817   0.00000  Uiso   1.00
H461   H     0.10465   0.34788   0.15463   0.00000  Uiso   1.00
H462   H     0.13412   0.36215   0.10744   0.00000  Uiso   1.00
N463   N     0.15471   0.62271   0.32926   0.00000  Uiso   1.00
H464   H     0.17786   0.61144   0.35001   0.00000  Uiso   1.00
C465   C     0.11957   0.64085   0.35128   0.00000  Uiso   1.00
H466   H     0.09875   0.61219   0.35861   0.00000  Uiso   1.00
H467   H     0.10299   0.66636   0.33058   0.00000  Uiso   1.00
H468   H     0.12867   0.65744   0.38338   0.00000  Uiso   1.00
N469   N     0.19574   0.38097   0.32486   0.00000  Uiso   1.00
H470   H     0.21504   0.40575   0.31368   0.00000  Uiso   1.00
C471   C     0.21582   0.35622   0.36068   0.00000  Uiso   1.00
H472   H     0.23794   0.37914   0.37856   0.00000  Uiso   1.00
H473   H     0.23300   0.65997   0.34792   0.00000  Uiso   1.00
H474   H     0.19385   0.34580   0.38567   0.00000  Uiso   1.00
N475   N     0.17834   0.61975   0.17057   0.00000  Uiso   1.00
H476   H     0.16041   0.62783   0.14328   0.00000  Uiso   1.00
C477   C     0.22103   0.61737   0.16118   0.00000  Uiso   1.00
H478   H     0.22496   0.60018   0.12848   0.00000  Uiso   1.00
H479   H     0.23697   0.59676   0.18666   0.00000  Uiso   1.00
H480   H     0.23480   0.65212   0.16039   0.00000  Uiso   1.00
C481   C     0.42088   0.49995   0.24863   0.00000  Uiso   1.00
C482   C     0.57912   0.50016   0.24899   0.00000  Uiso   1.00
C483   C     0.42626   0.50945   0.02173   0.00000  Uiso   1.00
C484   C     0.57091   0.48099   0.47844   0.00000  Uiso   1.00
C485   C     0.35414   0.45839   0.24778   0.00000  Uiso   1.00
C486   C     0.64586   0.54244   0.24506   0.00000  Uiso   1.00
C487   C     0.64514   0.45867   0.24423   0.00000  Uiso   1.00
C488   C     0.35474   0.54179   0.24111   0.00000  Uiso   1.00
C489   C     0.62395   0.50054   0.24679   0.00000  Uiso   1.00
C490   C     0.37606   0.50005   0.24606   0.00000  Uiso   1.00
C491   C     0.49708   0.35710   0.21103   0.00000  Uiso   1.00
C492   C     0.49942   0.64326   0.28891   0.00000  Uiso   1.00
C493   C     0.50776   0.35836   0.28843   0.00000  Uiso   1.00
C494   C     0.50236   0.64191   0.21122   0.00000  Uiso   1.00
C495   C     0.49918   0.49973   0.16491   0.00000  Uiso   1.00
C496   C     0.50028   0.50017   0.33516   0.00000  Uiso   1.00
C497   C     0.53557   0.49251   0.40750   0.00000  Uiso   1.00
C498   C     0.46272   0.50377   0.09295   0.00000  Uiso   1.00
C499   C     0.49939   0.50021   0.38346   0.00000  Uiso   1.00
C500   C     0.49947   0.49893   0.11673   0.00000  Uiso   1.00
C501   C     0.46231   0.50529   0.40474   0.00000  Uiso   1.00
C502   C     0.53608   0.49151   0.09526   0.00000  Uiso   1.00
C503   C     0.46154   0.50506   0.45191   0.00000  Uiso   1.00
C504   C     0.53657   0.49087   0.04818   0.00000  Uiso   1.00
C505   C     0.49857   0.49734   0.47650   0.00000  Uiso   1.00
C506   C     0.49925   0.49710   0.02367   0.00000  Uiso   1.00
C507   C     0.53510   0.48983   0.45404   0.00000  Uiso   1.00
C508   C     0.46252   0.50314   0.04620   0.00000  Uiso   1.00
C509   C     0.42531   0.51166   0.47561   0.00000  Uiso   1.00
C510   C     0.57268   0.48356   0.02447   0.00000  Uiso   1.00
Cu511  Cu    0.50000   0.54689   0.25000   0.00000  Uiso   1.00
Cu512  Cu    0.50000   0.45311   0.25000   0.00000  Uiso   1.00
H513   H     0.39789   0.51450   0.03809   0.00000  Uiso   1.00
H514   H     0.59892   0.47351   0.46213   0.00000  Uiso   1.00
N515   N     0.50000   0.61736   0.25000   0.00000  Uiso   1.00
N516   N     0.50000   0.38264   0.25000   0.00000  Uiso   1.00
O517   O     0.43988   0.53958   0.24999   0.00000  Uiso   1.00
O518   O     0.56012   0.46042   0.25000   0.00000  Uiso   1.00
O519   O     0.56012   0.53958   0.25000   0.00000  Uiso   1.00
O520   O     0.43988   0.46042   0.24999   0.00000  Uiso   1.00
O521   O     0.49999   0.53960   0.18513   0.00000  Uiso   1.00
O522   O     0.50001   0.46040   0.31487   0.00000  Uiso   1.00
O523   O     0.50001   0.53960   0.31487   0.00000  Uiso   1.00
O524   O     0.49999   0.46040   0.18513   0.00000  Uiso   1.00
N525   N     0.57245   0.48880   0.38411   0.00000  Uiso   1.00
H526   H     0.58836   0.45903   0.38979   0.00000  Uiso   1.00
C527   C     0.59761   0.52956   0.38620   0.00000  Uiso   1.00
H528   H     0.61045   0.53570   0.42021   0.00000  Uiso   1.00
H529   H     0.57941   0.55998   0.37653   0.00000  Uiso   1.00
H530   H     0.62331   0.52521   0.36356   0.00000  Uiso   1.00
N531   N     0.42593   0.50634   0.11672   0.00000  Uiso   1.00
H532   H     0.40346   0.48402   0.10548   0.00000  Uiso   1.00
C533   C     0.41157   0.55222   0.12553   0.00000  Uiso   1.00
H534   H     0.40709   0.57148   0.09419   0.00000  Uiso   1.00
H535   H     0.43346   0.57107   0.14774   0.00000  Uiso   1.00
H536   H     0.38206   0.55019   0.14216   0.00000  Uiso   1.00
C537   C     0.42566   0.50879   0.37698   0.00000  Uiso   1.00
N538   N     0.39655   0.51148   0.35472   0.00000  Uiso   1.00
C539   C     0.57222   0.48325   0.12271   0.00000  Uiso   1.00
N540   N     0.60098   0.47664   0.14461   0.00000  Uiso   1.00
N541   N     0.38743   0.52150   0.45397   0.00000  Uiso   1.00
H542   H     0.36343   0.50317   0.46614   0.00000  Uiso   1.00
C543   C     0.37860   0.56992   0.45107   0.00000  Uiso   1.00
H544   H     0.35026   0.57481   0.43087   0.00000  Uiso   1.00
H545   H     0.40362   0.58827   0.43476   0.00000  Uiso   1.00
H546   H     0.37444   0.58480   0.48478   0.00000  Uiso   1.00
N547   N     0.61156   0.47987   0.04597   0.00000  Uiso   1.00
H548   H     0.62933   0.45430   0.03292   0.00000  Uiso   1.00
C549   C     0.63332   0.52296   0.05031   0.00000  Uiso   1.00
H550   H     0.66174   0.51789   0.07032   0.00000  Uiso   1.00
H551   H     0.61470   0.54893   0.06758   0.00000  Uiso   1.00
H552   H     0.64114   0.53585   0.01703   0.00000  Uiso   1.00
N553   N     0.37455   0.41603   0.25443   0.00000  Uiso   1.00
H554   H     0.36582   0.39724   0.28129   0.00000  Uiso   1.00
C555   C     0.38314   0.38954   0.21500   0.00000  Uiso   1.00
H556   H     0.35837   0.36469   0.20714   0.00000  Uiso   1.00
H557   H     0.41133   0.36997   0.22147   0.00000  Uiso   1.00
H558   H     0.38735   0.41215   0.18604   0.00000  Uiso   1.00
N559   N     0.62548   0.58541   0.24603   0.00000  Uiso   1.00
H560   H     0.63606   0.61060   0.22564   0.00000  Uiso   1.00
C561   C     0.61589   0.60216   0.28979   0.00000  Uiso   1.00
H562   H     0.64323   0.61565   0.30787   0.00000  Uiso   1.00
H563   H     0.60251   0.57471   0.30936   0.00000  Uiso   1.00
H564   H     0.59276   0.62917   0.28635   0.00000  Uiso   1.00
N565   N     0.62420   0.41742   0.23218   0.00000  Uiso   1.00
H566   H     0.63134   0.40333   0.20188   0.00000  Uiso   1.00
C567   C     0.61786   0.38469   0.26682   0.00000  Uiso   1.00
H568   H     0.64088   0.35736   0.26539   0.00000  Uiso   1.00
H569   H     0.58777   0.36860   0.26076   0.00000  Uiso   1.00
H570   H     0.61915   0.40125   0.30029   0.00000  Uiso   1.00
N571   N     0.37554   0.58307   0.23067   0.00000  Uiso   1.00
H572   H     0.36527   0.59952   0.20241   0.00000  Uiso   1.00
C573   C     0.38584   0.61354   0.26750   0.00000  Uiso   1.00
H574   H     0.36415   0.64227   0.26870   0.00000  Uiso   1.00
H575   H     0.41636   0.62811   0.26242   0.00000  Uiso   1.00
H576   H     0.38593   0.59519   0.29962   0.00000  Uiso   1.00
N577   N     0.49547   0.37922   0.16929   0.00000  Uiso   1.00
H578   H     0.52225   0.37909   0.15246   0.00000  Uiso   1.00
C579   C     0.45917   0.37362   0.14129   0.00000  Uiso   1.00
H580   H     0.44363   0.40708   0.13817   0.00000  Uiso   1.00
H581   H     0.43799   0.34788   0.15463   0.00000  Uiso   1.00
H582   H     0.46746   0.36215   0.10744   0.00000  Uiso   1.00
N583   N     0.48804   0.62271   0.32926   0.00000  Uiso   1.00
H584   H     0.51120   0.61144   0.35001   0.00000  Uiso   1.00
C585   C     0.45290   0.64085   0.35128   0.00000  Uiso   1.00
H586   H     0.43208   0.61219   0.35861   0.00000  Uiso   1.00
H587   H     0.43633   0.66636   0.33058   0.00000  Uiso   1.00
H588   H     0.46201   0.65744   0.38338   0.00000  Uiso   1.00
N589   N     0.52907   0.38097   0.32486   0.00000  Uiso   1.00
H590   H     0.54837   0.40575   0.31368   0.00000  Uiso   1.00
C591   C     0.54916   0.35622   0.36068   0.00000  Uiso   1.00
H592   H     0.57127   0.37914   0.37856   0.00000  Uiso   1.00
H593   H     0.56634   0.65997   0.34792   0.00000  Uiso   1.00
H594   H     0.52718   0.34580   0.38567   0.00000  Uiso   1.00
N595   N     0.51168   0.61975   0.17057   0.00000  Uiso   1.00
H596   H     0.49375   0.62783   0.14328   0.00000  Uiso   1.00
C597   C     0.55436   0.61737   0.16118   0.00000  Uiso   1.00
H598   H     0.55830   0.60018   0.12848   0.00000  Uiso   1.00
H599   H     0.57031   0.59676   0.18666   0.00000  Uiso   1.00
H600   H     0.56813   0.65212   0.16039   0.00000  Uiso   1.00
C601   C     0.75421   0.49995   0.24863   0.00000  Uiso   1.00
C602   C     0.91246   0.50016   0.24899   0.00000  Uiso   1.00
C603   C     0.75960   0.50945   0.02173   0.00000  Uiso   1.00
C604   C     0.90425   0.48099   0.47844   0.00000  Uiso   1.00
C605   C     0.68747   0.45839   0.24778   0.00000  Uiso   1.00
C606   C     0.97919   0.54244   0.24506   0.00000  Uiso   1.00
C607   C     0.97847   0.45867   0.24423   0.00000  Uiso   1.00
C608   C     0.68807   0.54179   0.24111   0.00000  Uiso   1.00
C609   C     0.95728   0.50054   0.24679   0.00000  Uiso   1.00
C610   C     0.70939   0.50005   0.24606   0.00000  Uiso   1.00
C611   C     0.83041   0.35710   0.21103   0.00000  Uiso   1.00
C612   C     0.83275   0.64326   0.28891   0.00000  Uiso   1.00
C613   C     0.84109   0.35836   0.28843   0.00000  Uiso   1.00
C614   C     0.83569   0.64191   0.21122   0.00000  Uiso   1.00
C615   C     0.83252   0.49973   0.16491   0.00000  Uiso   1.00
C616   C     0.83361   0.50017   0.33516   0.00000  Uiso   1.00
C617   C     0.86891   0.49251   0.40750   0.00000  Uiso   1.00
C618   C     0.79605   0.50377   0.09295   0.00000  Uiso   1.00
C619   C     0.83272   0.50021   0.38346   0.00000  Uiso   1.00
C620   C     0.83280   0.49893   0.11673   0.00000  Uiso   1.00
C621   C     0.79564   0.50529   0.40474   0.00000  Uiso   1.00
C622   C     0.86941   0.49151   0.09526   0.00000  Uiso   1.00
C623   C     0.79487   0.50506   0.45191   0.00000  Uiso   1.00
C624   C     0.86991   0.49087   0.04818   0.00000  Uiso   1.00
C625   C     0.83190   0.49734   0.47650   0.00000  Uiso   1.00
C626   C     0.83258   0.49710   0.02367   0.00000  Uiso   1.00
C627   C     0.86843   0.48983   0.45404   0.00000  Uiso   1.00
C628   C     0.79586   0.50314   0.04620   0.00000  Uiso   1.00
C629   C     0.75864   0.51166   0.47561   0.00000  Uiso   1.00
C630   C     0.90601   0.48356   0.02447   0.00000  Uiso   1.00
Cu631  Cu    0.83333   0.54689   0.25000   0.00000  Uiso   1.00
Cu632  Cu    0.83333   0.45311   0.25000   0.00000  Uiso   1.00
H633   H     0.73122   0.51450   0.03809   0.00000  Uiso   1.00
H634   H     0.93225   0.47351   0.46213   0.00000  Uiso   1.00
N635   N     0.83333   0.61736   0.25000   0.00000  Uiso   1.00
N636   N     0.83333   0.38264   0.25000   0.00000  Uiso   1.00
O637   O     0.77321   0.53958   0.24999   0.00000  Uiso   1.00
O638   O     0.89345   0.46042   0.25000   0.00000  Uiso   1.00
O639   O     0.89345   0.53958   0.25000   0.00000  Uiso   1.00
O640   O     0.77321   0.46042   0.24999   0.00000  Uiso   1.00
O641   O     0.83332   0.53960   0.18513   0.00000  Uiso   1.00
O642   O     0.83334   0.46040   0.31487   0.00000  Uiso   1.00
O643   O     0.83334   0.53960   0.31487   0.00000  Uiso   1.00
O644   O     0.83332   0.46040   0.18513   0.00000  Uiso   1.00
N645   N     0.90578   0.48880   0.38411   0.00000  Uiso   1.00
H646   H     0.92169   0.45903   0.38979   0.00000  Uiso   1.00
C647   C     0.93094   0.52956   0.38620   0.00000  Uiso   1.00
H648   H     0.94378   0.53570   0.42021   0.00000  Uiso   1.00
H649   H     0.91274   0.55998   0.37653   0.00000  Uiso   1.00
H650   H     0.95664   0.52521   0.36356   0.00000  Uiso   1.00
N651   N     0.75927   0.50634   0.11672   0.00000  Uiso   1.00
H652   H     0.73679   0.48402   0.10548   0.00000  Uiso   1.00
C653   C     0.74490   0.55222   0.12553   0.00000  Uiso   1.00
H654   H     0.74042   0.57148   0.09419   0.00000  Uiso   1.00
H655   H     0.76679   0.57107   0.14774   0.00000  Uiso   1.00
H656   H     0.71539   0.55019   0.14216   0.00000  Uiso   1.00
C657   C     0.75899   0.50879   0.37698   0.00000  Uiso   1.00
N658   N     0.72988   0.51148   0.35472   0.00000  Uiso   1.00
C659   C     0.90555   0.48325   0.12271   0.00000  Uiso   1.00
N660   N     0.93432   0.47664   0.14461   0.00000  Uiso   1.00
N661   N     0.72076   0.52150   0.45397   0.00000  Uiso   1.00
H662   H     0.69676   0.50317   0.46614   0.00000  Uiso   1.00
C663   C     0.71194   0.56992   0.45107   0.00000  Uiso   1.00
H664   H     0.68359   0.57481   0.43087   0.00000  Uiso   1.00
H665   H     0.73695   0.58827   0.43476   0.00000  Uiso   1.00
H666   H     0.70778   0.58480   0.48478   0.00000  Uiso   1.00
N667   N     0.94489   0.47987   0.04597   0.00000  Uiso   1.00
H668   H     0.96266   0.45430   0.03292   0.00000  Uiso   1.00
C669   C     0.96666   0.52296   0.05031   0.00000  Uiso   1.00
H670   H     0.99507   0.51789   0.07032   0.00000  Uiso   1.00
H671   H     0.94803   0.54893   0.06758   0.00000  Uiso   1.00
H672   H     0.97447   0.53585   0.01703   0.00000  Uiso   1.00
N673   N     0.70788   0.41603   0.25443   0.00000  Uiso   1.00
H674   H     0.69915   0.39724   0.28129   0.00000  Uiso   1.00
C675   C     0.71647   0.38954   0.21500   0.00000  Uiso   1.00
H676   H     0.69170   0.36469   0.20714   0.00000  Uiso   1.00
H677   H     0.74467   0.36997   0.22147   0.00000  Uiso   1.00
H678   H     0.72068   0.41215   0.18604   0.00000  Uiso   1.00
N679   N     0.95881   0.58541   0.24603   0.00000  Uiso   1.00
H680   H     0.96939   0.61060   0.22564   0.00000  Uiso   1.00
C681   C     0.94922   0.60216   0.28979   0.00000  Uiso   1.00
H682   H     0.97657   0.61565   0.30787   0.00000  Uiso   1.00
H683   H     0.93585   0.57471   0.30936   0.00000  Uiso   1.00
H684   H     0.92609   0.62917   0.28635   0.00000  Uiso   1.00
N685   N     0.95753   0.41742   0.23218   0.00000  Uiso   1.00
H686   H     0.96468   0.40333   0.20188   0.00000  Uiso   1.00
C687   C     0.95120   0.38469   0.26682   0.00000  Uiso   1.00
H688   H     0.97421   0.35736   0.26539   0.00000  Uiso   1.00
H689   H     0.92110   0.36860   0.26076   0.00000  Uiso   1.00
H690   H     0.95248   0.40125   0.30029   0.00000  Uiso   1.00
N691   N     0.70887   0.58307   0.23067   0.00000  Uiso   1.00
H692   H     0.69860   0.59952   0.20241   0.00000  Uiso   1.00
C693   C     0.71917   0.61354   0.26750   0.00000  Uiso   1.00
H694   H     0.69748   0.64227   0.26870   0.00000  Uiso   1.00
H695   H     0.74969   0.62811   0.26242   0.00000  Uiso   1.00
H696   H     0.71926   0.59519   0.29962   0.00000  Uiso   1.00
N697   N     0.82881   0.37922   0.16929   0.00000  Uiso   1.00
H698   H     0.85558   0.37909   0.15246   0.00000  Uiso   1.00
C699   C     0.79251   0.37362   0.14129   0.00000  Uiso   1.00
H700   H     0.77697   0.40708   0.13817   0.00000  Uiso   1.00
H701   H     0.77132   0.34788   0.15463   0.00000  Uiso   1.00
H702   H     0.80079   0.36215   0.10744   0.00000  Uiso   1.00
N703   N     0.82137   0.62271   0.32926   0.00000  Uiso   1.00
H704   H     0.84453   0.61144   0.35001   0.00000  Uiso   1.00
C705   C     0.78623   0.64085   0.35128   0.00000  Uiso   1.00
H706   H     0.76542   0.61219   0.35861   0.00000  Uiso   1.00
H707   H     0.76966   0.66636   0.33058   0.00000  Uiso   1.00
H708   H     0.79534   0.65744   0.38338   0.00000  Uiso   1.00
N709   N     0.86241   0.38097   0.32486   0.00000  Uiso   1.00
H710   H     0.88171   0.40575   0.31368   0.00000  Uiso   1.00
C711   C     0.88249   0.35622   0.36068   0.00000  Uiso   1.00
H712   H     0.90461   0.37914   0.37856   0.00000  Uiso   1.00
H713   H     0.89967   0.65997   0.34792   0.00000  Uiso   1.00
H714   H     0.86051   0.34580   0.38567   0.00000  Uiso   1.00
N715   N     0.84501   0.61975   0.17057   0.00000  Uiso   1.00
H716   H     0.82708   0.62783   0.14328   0.00000  Uiso   1.00
C717   C     0.88770   0.61737   0.16118   0.00000  Uiso   1.00
H718   H     0.89163   0.60018   0.12848   0.00000  Uiso   1.00
H719   H     0.90364   0.59676   0.18666   0.00000  Uiso   1.00
H720   H     0.90147   0.65212   0.16039   0.00000  Uiso   1.00
C721   C     0.08755   0.83329   0.24863   0.00000  Uiso   1.00
C722   C     0.24579   0.83349   0.24899   0.00000  Uiso   1.00
C723   C     0.09293   0.84278   0.02173   0.00000  Uiso   1.00
C724   C     0.23758   0.81432   0.47844   0.00000  Uiso   1.00
C725   C     0.02081   0.79173   0.24778   0.00000  Uiso   1.00
C726   C     0.31253   0.87578   0.24506   0.00000  Uiso   1.00
C727   C     0.31181   0.79200   0.24423   0.00000  Uiso   1.00
C728   C     0.02141   0.87513   0.24111   0.00000  Uiso   1.00
C729   C     0.29062   0.83388   0.24679   0.00000  Uiso   1.00
C730   C     0.04273   0.83338   0.24606   0.00000  Uiso   1.00
C731   C     0.16375   0.69044   0.21103   0.00000  Uiso   1.00
C732   C     0.16608   0.97659   0.28891   0.00000  Uiso   1.00
C733   C     0.17442   0.69170   0.28843   0.00000  Uiso   1.00
C734   C     0.16903   0.97525   0.21122   0.00000  Uiso   1.00
C735   C     0.16585   0.83306   0.16491   0.00000  Uiso   1.00
C736   C     0.16695   0.83351   0.33516   0.00000  Uiso   1.00
C737   C     0.20224   0.82585   0.40750   0.00000  Uiso   1.00
C738   C     0.12938   0.83711   0.09295   0.00000  Uiso   1.00
C739   C     0.16605   0.83354   0.38346   0.00000  Uiso   1.00
C740   C     0.16614   0.83227   0.11673   0.00000  Uiso   1.00
C741   C     0.12898   0.83863   0.40474   0.00000  Uiso   1.00
C742   C     0.20275   0.82484   0.09526   0.00000  Uiso   1.00
C743   C     0.12820   0.83839   0.45191   0.00000  Uiso   1.00
C744   C     0.20324   0.82420   0.04818   0.00000  Uiso   1.00
C745   C     0.16524   0.83067   0.47650   0.00000  Uiso   1.00
C746   C     0.16592   0.83043   0.02367   0.00000  Uiso   1.00
C747   C     0.20176   0.82316   0.45404   0.00000  Uiso   1.00
C748   C     0.12919   0.83648   0.04620   0.00000  Uiso   1.00
C749   C     0.09198   0.84499   0.47561   0.00000  Uiso   1.00
C750   C     0.23935   0.81690   0.02447   0.00000  Uiso   1.00
Cu751  Cu    0.16667   0.88022   0.25000   0.00000  Uiso   1.00
Cu752  Cu    0.16667   0.78645   0.25000   0.00000  Uiso   1.00
H753   H     0.06455   0.84783   0.03809   0.00000  Uiso   1.00
H754   H     0.26558   0.80684   0.46213   0.00000  Uiso   1.00
N755   N     0.16667   0.95069   0.25000   0.00000  Uiso   1.00
N756   N     0.16667   0.71598   0.25000   0.00000  Uiso   1.00
O757   O     0.10655   0.87291   0.24999   0.00000  Uiso   1.00
O758   O     0.22679   0.79375   0.25000   0.00000  Uiso   1.00
O759   O     0.22679   0.87291   0.25000   0.00000  Uiso   1.00
O760   O     0.10655   0.79375   0.24999   0.00000  Uiso   1.00
O761   O     0.16666   0.87293   0.18513   0.00000  Uiso   1.00
O762   O     0.16668   0.79373   0.31487   0.00000  Uiso   1.00
O763   O     0.16668   0.87293   0.31487   0.00000  Uiso   1.00
O764   O     0.16666   0.79373   0.18513   0.00000  Uiso   1.00
N765   N     0.23911   0.82213   0.38411   0.00000  Uiso   1.00
H766   H     0.25502   0.79236   0.38979   0.00000  Uiso   1.00
C767   C     0.26427   0.86289   0.38620   0.00000  Uiso   1.00
H768   H     0.27711   0.86904   0.42021   0.00000  Uiso   1.00
H769   H     0.24608   0.89331   0.37653   0.00000  Uiso   1.00
H770   H     0.28998   0.85854   0.36356   0.00000  Uiso   1.00
N771   N     0.09260   0.83967   0.11672   0.00000  Uiso   1.00
H772   H     0.07012   0.81736   0.10548   0.00000  Uiso   1.00
C773   C     0.07823   0.88555   0.12553   0.00000  Uiso   1.00
H774   H     0.07376   0.90481   0.09419   0.00000  Uiso   1.00
H775   H     0.10012   0.90440   0.14774   0.00000  Uiso   1.00
H776   H     0.04872   0.88353   0.14216   0.00000  Uiso   1.00
C777   C     0.09233   0.84212   0.37698   0.00000  Uiso   1.00
N778   N     0.06322   0.84482   0.35472   0.00000  Uiso   1.00
C779   C     0.23888   0.81658   0.12271   0.00000  Uiso   1.00
N780   N     0.26765   0.80997   0.14461   0.00000  Uiso   1.00
N781   N     0.05409   0.85483   0.45397   0.00000  Uiso   1.00
H782   H     0.03009   0.83651   0.46614   0.00000  Uiso   1.00
C783   C     0.04527   0.90325   0.45107   0.00000  Uiso   1.00
H784   H     0.01692   0.90814   0.43087   0.00000  Uiso   1.00
H785   H     0.07029   0.92161   0.43476   0.00000  Uiso   1.00
H786   H     0.04111   0.91813   0.48478   0.00000  Uiso   1.00
N787   N     0.27823   0.81320   0.04597   0.00000  Uiso   1.00
H788   H     0.29600   0.78763   0.03292   0.00000  Uiso   1.00
C789   C     0.29999   0.85629   0.05031   0.00000  Uiso   1.00
H790   H     0.32841   0.85122   0.07032   0.00000  Uiso   1.00
H791   H     0.28137   0.88226   0.06758   0.00000  Uiso   1.00
H792   H     0.30781   0.86918   0.01703   0.00000  Uiso   1.00
N793   N     0.04122   0.74936   0.25443   0.00000  Uiso   1.00
H794   H     0.03248   0.73057   0.28129   0.00000  Uiso   1.00
C795   C     0.04981   0.72287   0.21500   0.00000  Uiso   1.00
H796   H     0.02504   0.69802   0.20714   0.00000  Uiso   1.00
H797   H     0.07800   0.70330   0.22147   0.00000  Uiso   1.00
H798   H     0.05401   0.74549   0.18604   0.00000  Uiso   1.00
N799   N     0.29215   0.91874   0.24603   0.00000  Uiso   1.00
H800   H     0.30273   0.94393   0.22564   0.00000  Uiso   1.00
C801   C     0.28256   0.93549   0.28979   0.00000  Uiso   1.00
H802   H     0.30990   0.94899   0.30787   0.00000  Uiso   1.00
H803   H     0.26918   0.90805   0.30936   0.00000  Uiso   1.00
H804   H     0.25942   0.96250   0.28635   0.00000  Uiso   1.00
N805   N     0.29087   0.75076   0.23218   0.00000  Uiso   1.00
H806   H     0.29801   0.73667   0.20188   0.00000  Uiso   1.00
C807   C     0.28453   0.71802   0.26682   0.00000  Uiso   1.00
H808   H     0.30755   0.69070   0.26539   0.00000  Uiso   1.00
H809   H     0.25443   0.70193   0.26076   0.00000  Uiso   1.00
H810   H     0.28582   0.73459   0.30029   0.00000  Uiso   1.00
N811   N     0.04220   0.91641   0.23067   0.00000  Uiso   1.00
H812   H     0.03194   0.93286   0.20241   0.00000  Uiso   1.00
C813   C     0.05250   0.94687   0.26750   0.00000  Uiso   1.00
H814   H     0.03081   0.97560   0.26870   0.00000  Uiso   1.00
H815   H     0.08302   0.96145   0.26242   0.00000  Uiso   1.00
H816   H     0.05259   0.92853   0.29962   0.00000  Uiso   1.00
N817   N     0.16214   0.71255   0.16929   0.00000  Uiso   1.00
H818   H     0.18892   0.71242   0.15246   0.00000  Uiso   1.00
C819   C     0.12584   0.70696   0.14129   0.00000  Uiso   1.00
H820   H     0.11030   0.74041   0.13817   0.00000  Uiso   1.00
H821   H     0.10465   0.68121   0.15463   0.00000  Uiso   1.00
H822   H     0.13412   0.69548   0.10744   0.00000  Uiso   1.00
N823   N     0.15471   0.95604   0.32926   0.00000  Uiso   1.00
H824   H     0.17786   0.94477   0.35001   0.00000  Uiso   1.00
C825   C     0.11957   0.97418   0.35128   0.00000  Uiso   1.00
H826   H     0.09875   0.94552   0.35861   0.00000  Uiso   1.00
H827   H     0.10299   0.99969   0.33058   0.00000  Uiso   1.00
H828   H     0.12867   0.99077   0.38338   0.00000  Uiso   1.00
N829   N     0.19574   0.71430   0.32486   0.00000  Uiso   1.00
H830   H     0.21504   0.73908   0.31368   0.00000  Uiso   1.00
C831   C     0.21582   0.68955   0.36068   0.00000  Uiso   1.00
H832   H     0.23794   0.71248   0.37856   0.00000  Uiso   1.00
H833   H     0.23300   0.99331   0.34792   0.00000  Uiso   1.00
H834   H     0.19385   0.67914   0.38567   0.00000  Uiso   1.00
N835   N     0.17834   0.95309   0.17057   0.00000  Uiso   1.00
H836   H     0.16041   0.96117   0.14328   0.00000  Uiso   1.00
C837   C     0.22103   0.95070   0.16118   0.00000  Uiso   1.00
H838   H     0.22496   0.93352   0.12848   0.00000  Uiso   1.00
H839   H     0.23697   0.93009   0.18666   0.00000  Uiso   1.00
H840   H     0.23480   0.98545   0.16039   0.00000  Uiso   1.00
C841   C     0.42088   0.83329   0.24863   0.00000  Uiso   1.00
C842   C     0.57912   0.83349   0.24899   0.00000  Uiso   1.00
C843   C     0.42626   0.84278   0.02173   0.00000  Uiso   1.00
C844   C     0.57091   0.81432   0.47844   0.00000  Uiso   1.00
C845   C     0.35414   0.79173   0.24778   0.00000  Uiso   1.00
C846   C     0.64586   0.87578   0.24506   0.00000  Uiso   1.00
C847   C     0.64514   0.79200   0.24423   0.00000  Uiso   1.00
C848   C     0.35474   0.87513   0.24111   0.00000  Uiso   1.00
C849   C     0.62395   0.83388   0.24679   0.00000  Uiso   1.00
C850   C     0.37606   0.83338   0.24606   0.00000  Uiso   1.00
C851   C     0.49708   0.69044   0.21103   0.00000  Uiso   1.00
C852   C     0.49942   0.97659   0.28891   0.00000  Uiso   1.00
C853   C     0.50776   0.69170   0.28843   0.00000  Uiso   1.00
C854   C     0.50236   0.97525   0.21122   0.00000  Uiso   1.00
C855   C     0.49918   0.83306   0.16491   0.00000  Uiso   1.00
C856   C     0.50028   0.83351   0.33516   0.00000  Uiso   1.00
C857   C     0.53557   0.82585   0.40750   0.00000  Uiso   1.00
C858   C     0.46272   0.83711   0.09295   0.00000  Uiso   1.00
C859   C     0.49939   0.83354   0.38346   0.00000  Uiso   1.00
C860   C     0.49947   0.83227   0.11673   0.00000  Uiso   1.00
C861   C     0.46231   0.83863   0.40474   0.00000  Uiso   1.00
C862   C     0.53608   0.82484   0.09526   0.00000  Uiso   1.00
C863   C     0.46154   0.83839   0.45191   0.00000  Uiso   1.00
C864   C     0.53657   0.82420   0.04818   0.00000  Uiso   1.00
C865   C     0.49857   0.83067   0.47650   0.00000  Uiso   1.00
C866   C     0.49925   0.83043   0.02367   0.00000  Uiso   1.00
C867   C     0.53510   0.82316   0.45404   0.00000  Uiso   1.00
C868   C     0.46252   0.83648   0.04620   0.00000  Uiso   1.00
C869   C     0.42531   0.84499   0.47561   0.00000  Uiso   1.00
C870   C     0.57268   0.81690   0.02447   0.00000  Uiso   1.00
Cu871  Cu    0.50000   0.88022   0.25000   0.00000  Uiso   1.00
Cu872  Cu    0.50000   0.78645   0.25000   0.00000  Uiso   1.00
H873   H     0.39789   0.84783   0.03809   0.00000  Uiso   1.00
H874   H     0.59892   0.80684   0.46213   0.00000  Uiso   1.00
N875   N     0.50000   0.95069   0.25000   0.00000  Uiso   1.00
N876   N     0.50000   0.71598   0.25000   0.00000  Uiso   1.00
O877   O     0.43988   0.87291   0.24999   0.00000  Uiso   1.00
O878   O     0.56012   0.79375   0.25000   0.00000  Uiso   1.00
O879   O     0.56012   0.87291   0.25000   0.00000  Uiso   1.00
O880   O     0.43988   0.79375   0.24999   0.00000  Uiso   1.00
O881   O     0.49999   0.87293   0.18513   0.00000  Uiso   1.00
O882   O     0.50001   0.79373   0.31487   0.00000  Uiso   1.00
O883   O     0.50001   0.87293   0.31487   0.00000  Uiso   1.00
O884   O     0.49999   0.79373   0.18513   0.00000  Uiso   1.00
N885   N     0.57245   0.82213   0.38411   0.00000  Uiso   1.00
H886   H     0.58836   0.79236   0.38979   0.00000  Uiso   1.00
C887   C     0.59761   0.86289   0.38620   0.00000  Uiso   1.00
H888   H     0.61045   0.86904   0.42021   0.00000  Uiso   1.00
H889   H     0.57941   0.89331   0.37653   0.00000  Uiso   1.00
H890   H     0.62331   0.85854   0.36356   0.00000  Uiso   1.00
N891   N     0.42593   0.83967   0.11672   0.00000  Uiso   1.00
H892   H     0.40346   0.81736   0.10548   0.00000  Uiso   1.00
C893   C     0.41157   0.88555   0.12553   0.00000  Uiso   1.00
H894   H     0.40709   0.90481   0.09419   0.00000  Uiso   1.00
H895   H     0.43346   0.90440   0.14774   0.00000  Uiso   1.00
H896   H     0.38206   0.88353   0.14216   0.00000  Uiso   1.00
C897   C     0.42566   0.84212   0.37698   0.00000  Uiso   1.00
N898   N     0.39655   0.84482   0.35472   0.00000  Uiso   1.00
C899   C     0.57222   0.81658   0.12271   0.00000  Uiso   1.00
N900   N     0.60098   0.80997   0.14461   0.00000  Uiso   1.00
N901   N     0.38743   0.85483   0.45397   0.00000  Uiso   1.00
H902   H     0.36343   0.83651   0.46614   0.00000  Uiso   1.00
C903   C     0.37860   0.90325   0.45107   0.00000  Uiso   1.00
H904   H     0.35026   0.90814   0.43087   0.00000  Uiso   1.00
H905   H     0.40362   0.92161   0.43476   0.00000  Uiso   1.00
H906   H     0.37444   0.91813   0.48478   0.00000  Uiso   1.00
N907   N     0.61156   0.81320   0.04597   0.00000  Uiso   1.00
H908   H     0.62933   0.78763   0.03292   0.00000  Uiso   1.00
C909   C     0.63332   0.85629   0.05031   0.00000  Uiso   1.00
H910   H     0.66174   0.85122   0.07032   0.00000  Uiso   1.00
H911   H     0.61470   0.88226   0.06758   0.00000  Uiso   1.00
H912   H     0.64114   0.86918   0.01703   0.00000  Uiso   1.00
N913   N     0.37455   0.74936   0.25443   0.00000  Uiso   1.00
H914   H     0.36582   0.73057   0.28129   0.00000  Uiso   1.00
C915   C     0.38314   0.72287   0.21500   0.00000  Uiso   1.00
H916   H     0.35837   0.69802   0.20714   0.00000  Uiso   1.00
H917   H     0.41133   0.70330   0.22147   0.00000  Uiso   1.00
H918   H     0.38735   0.74549   0.18604   0.00000  Uiso   1.00
N919   N     0.62548   0.91874   0.24603   0.00000  Uiso   1.00
H920   H     0.63606   0.94393   0.22564   0.00000  Uiso   1.00
C921   C     0.61589   0.93549   0.28979   0.00000  Uiso   1.00
H922   H     0.64323   0.94899   0.30787   0.00000  Uiso   1.00
H923   H     0.60251   0.90805   0.30936   0.00000  Uiso   1.00
H924   H     0.59276   0.96250   0.28635   0.00000  Uiso   1.00
N925   N     0.62420   0.75076   0.23218   0.00000  Uiso   1.00
H926   H     0.63134   0.73667   0.20188   0.00000  Uiso   1.00
C927   C     0.61786   0.71802   0.26682   0.00000  Uiso   1.00
H928   H     0.64088   0.69070   0.26539   0.00000  Uiso   1.00
H929   H     0.58777   0.70193   0.26076   0.00000  Uiso   1.00
H930   H     0.61915   0.73459   0.30029   0.00000  Uiso   1.00
N931   N     0.37554   0.91641   0.23067   0.00000  Uiso   1.00
H932   H     0.36527   0.93286   0.20241   0.00000  Uiso   1.00
C933   C     0.38584   0.94687   0.26750   0.00000  Uiso   1.00
H934   H     0.36415   0.97560   0.26870   0.00000  Uiso   1.00
H935   H     0.41636   0.96145   0.26242   0.00000  Uiso   1.00
H936   H     0.38593   0.92853   0.29962   0.00000  Uiso   1.00
N937   N     0.49547   0.71255   0.16929   0.00000  Uiso   1.00
H938   H     0.52225   0.71242   0.15246   0.00000  Uiso   1.00
C939   C     0.45917   0.70696   0.14129   0.00000  Uiso   1.00
H940   H     0.44363   0.74041   0.13817   0.00000  Uiso   1.00
H941   H     0.43799   0.68121   0.15463   0.00000  Uiso   1.00
H942   H     0.46746   0.69548   0.10744   0.00000  Uiso   1.00
N943   N     0.48804   0.95604   0.32926   0.00000  Uiso   1.00
H944   H     0.51120   0.94477   0.35001   0.00000  Uiso   1.00
C945   C     0.45290   0.97418   0.35128   0.00000  Uiso   1.00
H946   H     0.43208   0.94552   0.35861   0.00000  Uiso   1.00
H947   H     0.43633   0.99969   0.33058   0.00000  Uiso   1.00
H948   H     0.46201   0.99077   0.38338   0.00000  Uiso   1.00
N949   N     0.52907   0.71430   0.32486   0.00000  Uiso   1.00
H950   H     0.54837   0.73908   0.31368   0.00000  Uiso   1.00
C951   C     0.54916   0.68955   0.36068   0.00000  Uiso   1.00
H952   H     0.57127   0.71248   0.37856   0.00000  Uiso   1.00
H953   H     0.56634   0.99331   0.34792   0.00000  Uiso   1.00
H954   H     0.52718   0.67914   0.38567   0.00000  Uiso   1.00
N955   N     0.51168   0.95309   0.17057   0.00000  Uiso   1.00
H956   H     0.49375   0.96117   0.14328   0.00000  Uiso   1.00
C957   C     0.55436   0.95070   0.16118   0.00000  Uiso   1.00
H958   H     0.55830   0.93352   0.12848   0.00000  Uiso   1.00
H959   H     0.57031   0.93009   0.18666   0.00000  Uiso   1.00
H960   H     0.56813   0.98545   0.16039   0.00000  Uiso   1.00
C961   C     0.75421   0.83329   0.24863   0.00000  Uiso   1.00
C962   C     0.91246   0.83349   0.24899   0.00000  Uiso   1.00
C963   C     0.75960   0.84278   0.02173   0.00000  Uiso   1.00
C964   C     0.90425   0.81432   0.47844   0.00000  Uiso   1.00
C965   C     0.68747   0.79173   0.24778   0.00000  Uiso   1.00
C966   C     0.97919   0.87578   0.24506   0.00000  Uiso   1.00
C967   C     0.97847   0.79200   0.24423   0.00000  Uiso   1.00
C968   C     0.68807   0.87513   0.24111   0.00000  Uiso   1.00
C969   C     0.95728   0.83388   0.24679   0.00000  Uiso   1.00
C970   C     0.70939   0.83338   0.24606   0.00000  Uiso   1.00
C971   C     0.83041   0.69044   0.21103   0.00000  Uiso   1.00
C972   C     0.83275   0.97659   0.28891   0.00000  Uiso   1.00
C973   C     0.84109   0.69170   0.28843   0.00000  Uiso   1.00
C974   C     0.83569   0.97525   0.21122   0.00000  Uiso   1.00
C975   C     0.83252   0.83306   0.16491   0.00000  Uiso   1.00
C976   C     0.83361   0.83351   0.33516   0.00000  Uiso   1.00
C977   C     0.86891   0.82585   0.40750   0.00000  Uiso   1.00
C978   C     0.79605   0.83711   0.09295   0.00000  Uiso   1.00
C979   C     0.83272   0.83354   0.38346   0.00000  Uiso   1.00
C980   C     0.83280   0.83227   0.11673   0.00000  Uiso   1.00
C981   C     0.79564   0.83863   0.40474   0.00000  Uiso   1.00
C982   C     0.86941   0.82484   0.09526   0.00000  Uiso   1.00
C983   C     0.79487   0.83839   0.45191   0.00000  Uiso   1.00
C984   C     0.86991   0.82420   0.04818   0.00000  Uiso   1.00
C985   C     0.83190   0.83067   0.47650   0.00000  Uiso   1.00
C986   C     0.83258   0.83043   0.02367   0.00000  Uiso   1.00
C987   C     0.86843   0.82316   0.45404   0.00000  Uiso   1.00
C988   C     0.79586   0.83648   0.04620   0.00000  Uiso   1.00
C989   C     0.75864   0.84499   0.47561   0.00000  Uiso   1.00
C990   C     0.90601   0.81690   0.02447   0.00000  Uiso   1.00
Cu991  Cu    0.83333   0.88022   0.25000   0.00000  Uiso   1.00
Cu992  Cu    0.83333   0.78645   0.25000   0.00000  Uiso   1.00
H993   H     0.73122   0.84783   0.03809   0.00000  Uiso   1.00
H994   H     0.93225   0.80684   0.46213   0.00000  Uiso   1.00
N995   N     0.83333   0.95069   0.25000   0.00000  Uiso   1.00
N996   N     0.83333   0.71598   0.25000   0.00000  Uiso   1.00
O997   O     0.77321   0.87291   0.24999   0.00000  Uiso   1.00
O998   O     0.89345   0.79375   0.25000   0.00000  Uiso   1.00
O999   O     0.89345   0.87291   0.25000   0.00000  Uiso   1.00
O1000  O     0.77321   0.79375   0.24999   0.00000  Uiso   1.00
O1001  O     0.83332   0.87293   0.18513   0.00000  Uiso   1.00
O1002  O     0.83334   0.79373   0.31487   0.00000  Uiso   1.00
O1003  O     0.83334   0.87293   0.31487   0.00000  Uiso   1.00
O1004  O     0.83332   0.79373   0.18513   0.00000  Uiso   1.00
N1005  N     0.90578   0.82213   0.38411   0.00000  Uiso   1.00
H1006  H     0.92169   0.79236   0.38979   0.00000  Uiso   1.00
C1007  C     0.93094   0.86289   0.38620   0.00000  Uiso   1.00
H1008  H     0.94378   0.86904   0.42021   0.00000  Uiso   1.00
H1009  H     0.91274   0.89331   0.37653   0.00000  Uiso   1.00
H1010  H     0.95664   0.85854   0.36356   0.00000  Uiso   1.00
N1011  N     0.75927   0.83967   0.11672   0.00000  Uiso   1.00
H1012  H     0.73679   0.81736   0.10548   0.00000  Uiso   1.00
C1013  C     0.74490   0.88555   0.12553   0.00000  Uiso   1.00
H1014  H     0.74042   0.90481   0.09419   0.00000  Uiso   1.00
H1015  H     0.76679   0.90440   0.14774   0.00000  Uiso   1.00
H1016  H     0.71539   0.88353   0.14216   0.00000  Uiso   1.00
C1017  C     0.75899   0.84212   0.37698   0.00000  Uiso   1.00
N1018  N     0.72988   0.84482   0.35472   0.00000  Uiso   1.00
C1019  C     0.90555   0.81658   0.12271   0.00000  Uiso   1.00
N1020  N     0.93432   0.80997   0.14461   0.00000  Uiso   1.00
N1021  N     0.72076   0.85483   0.45397   0.00000  Uiso   1.00
H1022  H     0.69676   0.83651   0.46614   0.00000  Uiso   1.00
C1023  C     0.71194   0.90325   0.45107   0.00000  Uiso   1.00
H1024  H     0.68359   0.90814   0.43087   0.00000  Uiso   1.00
H1025  H     0.73695   0.92161   0.43476   0.00000  Uiso   1.00
H1026  H     0.70778   0.91813   0.48478   0.00000  Uiso   1.00
N1027  N     0.94489   0.81320   0.04597   0.00000  Uiso   1.00
H1028  H     0.96266   0.78763   0.03292   0.00000  Uiso   1.00
C1029  C     0.96666   0.85629   0.05031   0.00000  Uiso   1.00
H1030  H     0.99507   0.85122   0.07032   0.00000  Uiso   1.00
H1031  H     0.94803   0.88226   0.06758   0.00000  Uiso   1.00
H1032  H     0.97447   0.86918   0.01703   0.00000  Uiso   1.00
N1033  N     0.70788   0.74936   0.25443   0.00000  Uiso   1.00
H1034  H     0.69915   0.73057   0.28129   0.00000  Uiso   1.00
C1035  C     0.71647   0.72287   0.21500   0.00000  Uiso   1.00
H1036  H     0.69170   0.69802   0.20714   0.00000  Uiso   1.00
H1037  H     0.74467   0.70330   0.22147   0.00000  Uiso   1.00
H1038  H     0.72068   0.74549   0.18604   0.00000  Uiso   1.00
N1039  N     0.95881   0.91874   0.24603   0.00000  Uiso   1.00
H1040  H     0.96939   0.94393   0.22564   0.00000  Uiso   1.00
C1041  C     0.94922   0.93549   0.28979   0.00000  Uiso   1.00
H1042  H     0.97657   0.94899   0.30787   0.00000  Uiso   1.00
H1043  H     0.93585   0.90805   0.30936   0.00000  Uiso   1.00
H1044  H     0.92609   0.96250   0.28635   0.00000  Uiso   1.00
N1045  N     0.95753   0.75076   0.23218   0.00000  Uiso   1.00
H1046  H     0.96468   0.73667   0.20188   0.00000  Uiso   1.00
C1047  C     0.95120   0.71802   0.26682   0.00000  Uiso   1.00
H1048  H     0.97421   0.69070   0.26539   0.00000  Uiso   1.00
H1049  H     0.92110   0.70193   0.26076   0.00000  Uiso   1.00
H1050  H     0.95248   0.73459   0.30029   0.00000  Uiso   1.00
N1051  N     0.70887   0.91641   0.23067   0.00000  Uiso   1.00
H1052  H     0.69860   0.93286   0.20241   0.00000  Uiso   1.00
C1053  C     0.71917   0.94687   0.26750   0.00000  Uiso   1.00
H1054  H     0.69748   0.97560   0.26870   0.00000  Uiso   1.00
H1055  H     0.74969   0.96145   0.26242   0.00000  Uiso   1.00
H1056  H     0.71926   0.92853   0.29962   0.00000  Uiso   1.00
N1057  N     0.82881   0.71255   0.16929   0.00000  Uiso   1.00
H1058  H     0.85558   0.71242   0.15246   0.00000  Uiso   1.00
C1059  C     0.79251   0.70696   0.14129   0.00000  Uiso   1.00
H1060  H     0.77697   0.74041   0.13817   0.00000  Uiso   1.00
H1061  H     0.77132   0.68121   0.15463   0.00000  Uiso   1.00
H1062  H     0.80079   0.69548   0.10744   0.00000  Uiso   1.00
N1063  N     0.82137   0.95604   0.32926   0.00000  Uiso   1.00
H1064  H     0.84453   0.94477   0.35001   0.00000  Uiso   1.00
C1065  C     0.78623   0.97418   0.35128   0.00000  Uiso   1.00
H1066  H     0.76542   0.94552   0.35861   0.00000  Uiso   1.00
H1067  H     0.76966   0.99969   0.33058   0.00000  Uiso   1.00
H1068  H     0.79534   0.99077   0.38338   0.00000  Uiso   1.00
N1069  N     0.86241   0.71430   0.32486   0.00000  Uiso   1.00
H1070  H     0.88171   0.73908   0.31368   0.00000  Uiso   1.00
C1071  C     0.88249   0.68955   0.36068   0.00000  Uiso   1.00
H1072  H     0.90461   0.71248   0.37856   0.00000  Uiso   1.00
H1073  H     0.89967   0.99331   0.34792   0.00000  Uiso   1.00
H1074  H     0.86051   0.67914   0.38567   0.00000  Uiso   1.00
N1075  N     0.84501   0.95309   0.17057   0.00000  Uiso   1.00
H1076  H     0.82708   0.96117   0.14328   0.00000  Uiso   1.00
C1077  C     0.88770   0.95070   0.16118   0.00000  Uiso   1.00
H1078  H     0.89163   0.93352   0.12848   0.00000  Uiso   1.00
H1079  H     0.90364   0.93009   0.18666   0.00000  Uiso   1.00
H1080  H     0.90147   0.98545   0.16039   0.00000  Uiso   1.00
C1081  C     0.08755   0.16662   0.74863   0.00000  Uiso   1.00
C1082  C     0.24579   0.16682   0.74899   0.00000  Uiso   1.00
C1083  C     0.09293   0.17611   0.52173   0.00000  Uiso   1.00
C1084  C     0.23758   0.14766   0.97844   0.00000  Uiso   1.00
C1085  C     0.02081   0.12506   0.74778   0.00000  Uiso   1.00
C1086  C     0.31253   0.20911   0.74506   0.00000  Uiso   1.00
C1087  C     0.31181   0.12534   0.74423   0.00000  Uiso   1.00
C1088  C     0.02141   0.20846   0.74111   0.00000  Uiso   1.00
C1089  C     0.29062   0.16721   0.74679   0.00000  Uiso   1.00
C1090  C     0.04273   0.16671   0.74606   0.00000  Uiso   1.00
C1091  C     0.16375   0.02377   0.71103   0.00000  Uiso   1.00
C1092  C     0.16608   0.30992   0.78891   0.00000  Uiso   1.00
C1093  C     0.17442   0.02503   0.78843   0.00000  Uiso   1.00
C1094  C     0.16903   0.30858   0.71122   0.00000  Uiso   1.00
C1095  C     0.16585   0.16640   0.66491   0.00000  Uiso   1.00
C1096  C     0.16695   0.16684   0.83516   0.00000  Uiso   1.00
C1097  C     0.20224   0.15918   0.90750   0.00000  Uiso   1.00
C1098  C     0.12938   0.17044   0.59295   0.00000  Uiso   1.00
C1099  C     0.16605   0.16688   0.88346   0.00000  Uiso   1.00
C1100  C     0.16614   0.16560   0.61673   0.00000  Uiso   1.00
C1101  C     0.12898   0.17196   0.90474   0.00000  Uiso   1.00
C1102  C     0.20275   0.15818   0.59526   0.00000  Uiso   1.00
C1103  C     0.12820   0.17173   0.95191   0.00000  Uiso   1.00
C1104  C     0.20324   0.15754   0.54818   0.00000  Uiso   1.00
C1105  C     0.16524   0.16401   0.97650   0.00000  Uiso   1.00
C1106  C     0.16592   0.16377   0.52367   0.00000  Uiso   1.00
C1107  C     0.20176   0.15650   0.95404   0.00000  Uiso   1.00
C1108  C     0.12919   0.16981   0.54620   0.00000  Uiso   1.00
C1109  C     0.09198   0.17832   0.97561   0.00000  Uiso   1.00
C1110  C     0.23935   0.15023   0.52447   0.00000  Uiso   1.00
Cu1111 Cu    0.16667   0.21355   0.75000   0.00000  Uiso   1.00
Cu1112 Cu    0.16667   0.11978   0.75000   0.00000  Uiso   1.00
H1113  H     0.06455   0.18117   0.53809   0.00000  Uiso   1.00
H1114  H     0.26558   0.14018   0.96213   0.00000  Uiso   1.00
N1115  N     0.16667   0.28402   0.75000   0.00000  Uiso   1.00
N1116  N     0.16667   0.04931   0.75000   0.00000  Uiso   1.00
O1117  O     0.10655   0.20625   0.74999   0.00000  Uiso   1.00
O1118  O     0.22679   0.12709   0.75000   0.00000  Uiso   1.00
O1119  O     0.22679   0.20625   0.75000   0.00000  Uiso   1.00
O1120  O     0.10655   0.12709   0.74999   0.00000  Uiso   1.00
O1121  O     0.16666   0.20627   0.68513   0.00000  Uiso   1.00
O1122  O     0.16668   0.12707   0.81487   0.00000  Uiso   1.00
O1123  O     0.16668   0.20627   0.81487   0.00000  Uiso   1.00
O1124  O     0.16666   0.12707   0.68513   0.00000  Uiso   1.00
N1125  N     0.23911   0.15547   0.88411   0.00000  Uiso   1.00
H1126  H     0.25502   0.12570   0.88979   0.00000  Uiso   1.00
C1127  C     0.26427   0.19622   0.88620   0.00000  Uiso   1.00
H1128  H     0.27711   0.20237   0.92021   0.00000  Uiso   1.00
H1129  H     0.24608   0.22665   0.87653   0.00000  Uiso   1.00
H1130  H     0.28998   0.19187   0.86356   0.00000  Uiso   1.00
N1131  N     0.09260   0.17300   0.61672   0.00000  Uiso   1.00
H1132  H     0.07012   0.15069   0.60548   0.00000  Uiso   1.00
C1133  C     0.07823   0.21889   0.62553   0.00000  Uiso   1.00
H1134  H     0.07376   0.23814   0.59419   0.00000  Uiso   1.00
H1135  H     0.10012   0.23773   0.64774   0.00000  Uiso   1.00
H1136  H     0.04872   0.21686   0.64216   0.00000  Uiso   1.00
C1137  C     0.09233   0.17546   0.87698   0.00000  Uiso   1.00
N1138  N     0.06322   0.17815   0.85472   0.00000  Uiso   1.00
C1139  C     0.23888   0.14992   0.62271   0.00000  Uiso   1.00
N1140  N     0.26765   0.14331   0.64461   0.00000  Uiso   1.00
N1141  N     0.05409   0.18817   0.95397   0.00000  Uiso   1.00
H1142  H     0.03009   0.16984   0.96614   0.00000  Uiso   1.00
C1143  C     0.04527   0.23659   0.95107   0.00000  Uiso   1.00
H1144  H     0.01692   0.24148   0.93087   0.00000  Uiso   1.00
H1145  H     0.07029   0.25494   0.93476   0.00000  Uiso   1.00
H1146  H     0.04111   0.25146   0.98478   0.00000  Uiso   1.00
N1147  N     0.27823   0.14653   0.54597   0.00000  Uiso   1.00
H1148  H     0.29600   0.12096   0.53292   0.00000  Uiso   1.00
C1149  C     0.29999   0.18962   0.55031   0.00000  Uiso   1.00
H1150  H     0.32841   0.18455   0.57032   0.00000  Uiso   1.00
H1151  H     0.28137   0.21560   0.56758   0.00000  Uiso   1.00
H1152  H     0.30781   0.20252   0.51703   0.00000  Uiso   1.00
N1153  N     0.04122   0.08270   0.75443   0.00000  Uiso   1.00
H1154  H     0.03248   0.06391   0.78129   0.00000  Uiso   1.00
C1155  C     0.04981   0.05621   0.71500   0.00000  Uiso   1.00
H1156  H     0.02504   0.03135   0.70714   0.00000  Uiso   1.00
H1157  H     0.07800   0.03664   0.72147   0.00000  Uiso   1.00
H1158  H     0.05401   0.07882   0.68604   0.00000  Uiso   1.00
N1159  N     0.29215   0.25207   0.74603   0.00000  Uiso   1.00
H1160  H     0.30273   0.27726   0.72564   0.00000  Uiso   1.00
C1161  C     0.28256   0.26883   0.78979   0.00000  Uiso   1.00
H1162  H     0.30990   0.28232   0.80787   0.00000  Uiso   1.00
H1163  H     0.26918   0.24138   0.80936   0.00000  Uiso   1.00
H1164  H     0.25942   0.29584   0.78635   0.00000  Uiso   1.00
N1165  N     0.29087   0.08409   0.73218   0.00000  Uiso   1.00
H1166  H     0.29801   0.07000   0.70188   0.00000  Uiso   1.00
C1167  C     0.28453   0.05136   0.76682   0.00000  Uiso   1.00
H1168  H     0.30755   0.02403   0.76539   0.00000  Uiso   1.00
H1169  H     0.25443   0.03527   0.76076   0.00000  Uiso   1.00
H1170  H     0.28582   0.06792   0.80029   0.00000  Uiso   1.00
N1171  N     0.04220   0.24974   0.73067   0.00000  Uiso   1.00
H1172  H     0.03194   0.26619   0.70241   0.00000  Uiso   1.00
C1173  C     0.05250   0.28021   0.76750   0.00000  Uiso   1.00
H1174  H     0.03081   0.30894   0.76870   0.00000  Uiso   1.00
H1175  H     0.08302   0.29478   0.76242   0.00000  Uiso   1.00
H1176  H     0.05259   0.26186   0.79962   0.00000  Uiso   1.00
N1177  N     0.16214   0.04588   0.66929   0.00000  Uiso   1.00
H1178  H     0.18892   0.04575   0.65246   0.00000  Uiso   1.00
C1179  C     0.12584   0.04029   0.64129   0.00000  Uiso   1.00
H1180  H     0.11030   0.07375   0.63817   0.00000  Uiso   1.00
H1181  H     0.10465   0.01454   0.65463   0.00000  Uiso   1.00
H1182  H     0.13412   0.02882   0.60744   0.00000  Uiso   1.00
N1183  N     0.15471   0.28938   0.82926   0.00000  Uiso   1.00
H1184  H     0.17786   0.27810   0.85001   0.00000  Uiso   1.00
C1185  C     0.11957   0.30751   0.85128   0.00000  Uiso   1.00
H1186  H     0.09875   0.27885   0.85861   0.00000  Uiso   1.00
H1187  H     0.10299   0.33303   0.83058   0.00000  Uiso   1.00
H1188  H     0.12867   0.32410   0.88338   0.00000  Uiso   1.00
N1189  N     0.19574   0.04763   0.82486   0.00000  Uiso   1.00
H1190  H     0.21504   0.07242   0.81368   0.00000  Uiso   1.00
C1191  C     0.21582   0.02288   0.86068   0.00000  Uiso   1.00
H1192  H     0.23794   0.04581   0.87856   0.00000  Uiso   1.00
H1193  H     0.23300   0.32664   0.84792   0.00000  Uiso   1.00
H1194  H     0.19385   0.01247   0.88567   0.00000  Uiso   1.00
N1195  N     0.17834   0.28642   0.67057   0.00000  Uiso   1.00
H1196  H     0.16041   0.29450   0.64328   0.00000  Uiso   1.00
C1197  C     0.22103   0.28403   0.66118   0.00000  Uiso   1.00
H1198  H     0.22496   0.26685   0.62848   0.00000  Uiso   1.00
H1199  H     0.23697   0.26342   0.68666   0.00000  Uiso   1.00
H1200  H     0.23480   0.31878   0.66039   0.00000  Uiso   1.00
C1201  C     0.42088   0.16662   0.74863   0.00000  Uiso   1.00
C1202  C     0.57912   0.16682   0.74899   0.00000  Uiso   1.00
C1203  C     0.42626   0.17611   0.52173   0.00000  Uiso   1.00
C1204  C     0.57091   0.14766   0.97844   0.00000  Uiso   1.00
C1205  C     0.35414   0.12506   0.74778   0.00000  Uiso   1.00
C1206  C     0.64586   0.20911   0.74506   0.00000  Uiso   1.00
C1207  C     0.64514   0.12534   0.74423   0.00000  Uiso   1.00
C1208  C     0.35474   0.20846   0.74111   0.00000  Uiso   1.00
C1209  C     0.62395   0.16721   0.74679   0.00000  Uiso   1.00
C1210  C     0.37606   0.16671   0.74606   0.00000  Uiso   1.00
C1211  C     0.49708   0.02377   0.71103   0.00000  Uiso   1.00
C1212  C     0.49942   0.30992   0.78891   0.00000  Uiso   1.00
C1213  C     0.50776   0.02503   0.78843   0.00000  Uiso   1.00
C1214  C     0.50236   0.30858   0.71122   0.00000  Uiso   1.00
C1215  C     0.49918   0.16640   0.66491   0.00000  Uiso   1.00
C1216  C     0.50028   0.16684   0.83516   0.00000  Uiso   1.00
C1217  C     0.53557   0.15918   0.90750   0.00000  Uiso   1.00
C1218  C     0.46272   0.17044   0.59295   0.00000  Uiso   1.00
C1219  C     0.49939   0.16688   0.88346   0.00000  Uiso   1.00
C1220  C     0.49947   0.16560   0.61673   0.00000  Uiso   1.00
C1221  C     0.46231   0.17196   0.90474   0.00000  Uiso   1.00
C1222  C     0.53608   0.15818   0.59526   0.00000  Uiso   1.00
C1223  C     0.46154   0.17173   0.95191   0.00000  Uiso   1.00
C1224  C     0.53657   0.15754   0.54818   0.00000  Uiso   1.00
C1225  C     0.49857   0.16401   0.97650   0.00000  Uiso   1.00
C1226  C     0.49925   0.16377   0.52367   0.00000  Uiso   1.00
C1227  C     0.53510   0.15650   0.95404   0.00000  Uiso   1.00
C1228  C     0.46252   0.16981   0.54620   0.00000  Uiso   1.00
C1229  C     0.42531   0.17832   0.97561   0.00000  Uiso   1.00
C1230  C     0.57268   0.15023   0.52447   0.00000  Uiso   1.00
Cu1231 Cu    0.50000   0.21355   0.75000   0.00000  Uiso   1.00
Cu1232 Cu    0.50000   0.11978   0.75000   0.00000  Uiso   1.00
H1233  H     0.39789   0.18117   0.53809   0.00000  Uiso   1.00
H1234  H     0.59892   0.14018   0.96213   0.00000  Uiso   1.00
N1235  N     0.50000   0.28402   0.75000   0.00000  Uiso   1.00
N1236  N     0.50000   0.04931   0.75000   0.00000  Uiso   1.00
O1237  O     0.43988   0.20625   0.74999   0.00000  Uiso   1.00
O1238  O     0.56012   0.12709   0.75000   0.00000  Uiso   1.00
O1239  O     0.56012   0.20625   0.75000   0.00000  Uiso   1.00
O1240  O     0.43988   0.12709   0.74999   0.00000  Uiso   1.00
O1241  O     0.49999   0.20627   0.68513   0.00000  Uiso   1.00
O1242  O     0.50001   0.12707   0.81487   0.00000  Uiso   1.00
O1243  O     0.50001   0.20627   0.81487   0.00000  Uiso   1.00
O1244  O     0.49999   0.12707   0.68513   0.00000  Uiso   1.00
N1245  N     0.57245   0.15547   0.88411   0.00000  Uiso   1.00
H1246  H     0.58836   0.12570   0.88979   0.00000  Uiso   1.00
C1247  C     0.59761   0.19622   0.88620   0.00000  Uiso   1.00
H1248  H     0.61045   0.20237   0.92021   0.00000  Uiso   1.00
H1249  H     0.57941   0.22665   0.87653   0.00000  Uiso   1.00
H1250  H     0.62331   0.19187   0.86356   0.00000  Uiso   1.00
N1251  N     0.42593   0.17300   0.61672   0.00000  Uiso   1.00
H1252  H     0.40346   0.15069   0.60548   0.00000  Uiso   1.00
C1253  C     0.41157   0.21889   0.62553   0.00000  Uiso   1.00
H1254  H     0.40709   0.23814   0.59419   0.00000  Uiso   1.00
H1255  H     0.43346   0.23773   0.64774   0.00000  Uiso   1.00
H1256  H     0.38206   0.21686   0.64216   0.00000  Uiso   1.00
C1257  C     0.42566   0.17546   0.87698   0.00000  Uiso   1.00
N1258  N     0.39655   0.17815   0.85472   0.00000  Uiso   1.00
C1259  C     0.57222   0.14992   0.62271   0.00000  Uiso   1.00
N1260  N     0.60098   0.14331   0.64461   0.00000  Uiso   1.00
N1261  N     0.38743   0.18817   0.95397   0.00000  Uiso   1.00
H1262  H     0.36343   0.16984   0.96614   0.00000  Uiso   1.00
C1263  C     0.37860   0.23659   0.95107   0.00000  Uiso   1.00
H1264  H     0.35026   0.24148   0.93087   0.00000  Uiso   1.00
H1265  H     0.40362   0.25494   0.93476   0.00000  Uiso   1.00
H1266  H     0.37444   0.25146   0.98478   0.00000  Uiso   1.00
N1267  N     0.61156   0.14653   0.54597   0.00000  Uiso   1.00
H1268  H     0.62933   0.12096   0.53292   0.00000  Uiso   1.00
C1269  C     0.63332   0.18962   0.55031   0.00000  Uiso   1.00
H1270  H     0.66174   0.18455   0.57032   0.00000  Uiso   1.00
H1271  H     0.61470   0.21560   0.56758   0.00000  Uiso   1.00
H1272  H     0.64114   0.20252   0.51703   0.00000  Uiso   1.00
N1273  N     0.37455   0.08270   0.75443   0.00000  Uiso   1.00
H1274  H     0.36582   0.06391   0.78129   0.00000  Uiso   1.00
C1275  C     0.38314   0.05621   0.71500   0.00000  Uiso   1.00
H1276  H     0.35837   0.03135   0.70714   0.00000  Uiso   1.00
H1277  H     0.41133   0.03664   0.72147   0.00000  Uiso   1.00
H1278  H     0.38735   0.07882   0.68604   0.00000  Uiso   1.00
N1279  N     0.62548   0.25207   0.74603   0.00000  Uiso   1.00
H1280  H     0.63606   0.27726   0.72564   0.00000  Uiso   1.00
C1281  C     0.61589   0.26883   0.78979   0.00000  Uiso   1.00
H1282  H     0.64323   0.28232   0.80787   0.00000  Uiso   1.00
H1283  H     0.60251   0.24138   0.80936   0.00000  Uiso   1.00
H1284  H     0.59276   0.29584   0.78635   0.00000  Uiso   1.00
N1285  N     0.62420   0.08409   0.73218   0.00000  Uiso   1.00
H1286  H     0.63134   0.07000   0.70188   0.00000  Uiso   1.00
C1287  C     0.61786   0.05136   0.76682   0.00000  Uiso   1.00
H1288  H     0.64088   0.02403   0.76539   0.00000  Uiso   1.00
H1289  H     0.58777   0.03527   0.76076   0.00000  Uiso   1.00
H1290  H     0.61915   0.06792   0.80029   0.00000  Uiso   1.00
N1291  N     0.37554   0.24974   0.73067   0.00000  Uiso   1.00
H1292  H     0.36527   0.26619   0.70241   0.00000  Uiso   1.00
C1293  C     0.38584   0.28021   0.76750   0.00000  Uiso   1.00
H1294  H     0.36415   0.30894   0.76870   0.00000  Uiso   1.00
H1295  H     0.41636   0.29478   0.76242   0.00000  Uiso   1.00
H1296  H     0.38593   0.26186   0.79962   0.00000  Uiso   1.00
N1297  N     0.49547   0.04588   0.66929   0.00000  Uiso   1.00
H1298  H     0.52225   0.04575   0.65246   0.00000  Uiso   1.00
C1299  C     0.45917   0.04029   0.64129   0.00000  Uiso   1.00
H1300  H     0.44363   0.07375   0.63817   0.00000  Uiso   1.00
H1301  H     0.43799   0.01454   0.65463   0.00000  Uiso   1.00
H1302  H     0.46746   0.02882   0.60744   0.00000  Uiso   1.00
N1303  N     0.48804   0.28938   0.82926   0.00000  Uiso   1.00
H1304  H     0.51120   0.27810   0.85001   0.00000  Uiso   1.00
C1305  C     0.45290   0.30751   0.85128   0.00000  Uiso   1.00
H1306  H     0.43208   0.27885   0.85861   0.00000  Uiso   1.00
H1307  H     0.43633   0.33303   0.83058   0.00000  Uiso   1.00
H1308  H     0.46201   0.32410   0.88338   0.00000  Uiso   1.00
N1309  N     0.52907   0.04763   0.82486   0.00000  Uiso   1.00
H1310  H     0.54837   0.07242   0.81368   0.00000  Uiso   1.00
C1311  C     0.54916   0.02288   0.86068   0.00000  Uiso   1.00
H1312  H     0.57127   0.04581   0.87856   0.00000  Uiso   1.00
H1313  H     0.56634   0.32664   0.84792   0.00000  Uiso   1.00
H1314  H     0.52718   0.01247   0.88567   0.00000  Uiso   1.00
N1315  N     0.51168   0.28642   0.67057   0.00000  Uiso   1.00
H1316  H     0.49375   0.29450   0.64328   0.00000  Uiso   1.00
C1317  C     0.55436   0.28403   0.66118   0.00000  Uiso   1.00
H1318  H     0.55830   0.26685   0.62848   0.00000  Uiso   1.00
H1319  H     0.57031   0.26342   0.68666   0.00000  Uiso   1.00
H1320  H     0.56813   0.31878   0.66039   0.00000  Uiso   1.00
C1321  C     0.75421   0.16662   0.74863   0.00000  Uiso   1.00
C1322  C     0.91246   0.16682   0.74899   0.00000  Uiso   1.00
C1323  C     0.75960   0.17611   0.52173   0.00000  Uiso   1.00
C1324  C     0.90425   0.14766   0.97844   0.00000  Uiso   1.00
C1325  C     0.68747   0.12506   0.74778   0.00000  Uiso   1.00
C1326  C     0.97919   0.20911   0.74506   0.00000  Uiso   1.00
C1327  C     0.97847   0.12534   0.74423   0.00000  Uiso   1.00
C1328  C     0.68807   0.20846   0.74111   0.00000  Uiso   1.00
C1329  C     0.95728   0.16721   0.74679   0.00000  Uiso   1.00
C1330  C     0.70939   0.16671   0.74606   0.00000  Uiso   1.00
C1331  C     0.83041   0.02377   0.71103   0.00000  Uiso   1.00
C1332  C     0.83275   0.30992   0.78891   0.00000  Uiso   1.00
C1333  C     0.84109   0.02503   0.78843   0.00000  Uiso   1.00
C1334  C     0.83569   0.30858   0.71122   0.00000  Uiso   1.00
C1335  C     0.83252   0.16640   0.66491   0.00000  Uiso   1.00
C1336  C     0.83361   0.16684   0.83516   0.00000  Uiso   1.00
C1337  C     0.86891   0.15918   0.90750   0.00000  Uiso   1.00
C1338  C     0.79605   0.17044   0.59295   0.00000  Uiso   1.00
C1339  C     0.83272   0.16688   0.88346   0.00000  Uiso   1.00
C1340  C     0.83280   0.16560   0.61673   0.00000  Uiso   1.00
C1341  C     0.79564   0.17196   0.90474   0.00000  Uiso   1.00
C1342  C     0.86941   0.15818   0.59526   0.00000  Uiso   1.00
C1343  C     0.79487   0.17173   0.95191   0.00000  Uiso   1.00
C1344  C     0.86991   0.15754   0.54818   0.00000  Uiso   1.00
C1345  C     0.83190   0.16401   0.97650   0.00000  Uiso   1.00
C1346  C     0.83258   0.16377   0.52367   0.00000  Uiso   1.00
C1347  C     0.86843   0.15650   0.95404   0.00000  Uiso   1.00
C1348  C     0.79586   0.16981   0.54620   0.00000  Uiso   1.00
C1349  C     0.75864   0.17832   0.97561   0.00000  Uiso   1.00
C1350  C     0.90601   0.15023   0.52447   0.00000  Uiso   1.00
Cu1351 Cu    0.83333   0.21355   0.75000   0.00000  Uiso   1.00
Cu1352 Cu    0.83333   0.11978   0.75000   0.00000  Uiso   1.00
H1353  H     0.73122   0.18117   0.53809   0.00000  Uiso   1.00
H1354  H     0.93225   0.14018   0.96213   0.00000  Uiso   1.00
N1355  N     0.83333   0.28402   0.75000   0.00000  Uiso   1.00
N1356  N     0.83333   0.04931   0.75000   0.00000  Uiso   1.00
O1357  O     0.77321   0.20625   0.74999   0.00000  Uiso   1.00
O1358  O     0.89345   0.12709   0.75000   0.00000  Uiso   1.00
O1359  O     0.89345   0.20625   0.75000   0.00000  Uiso   1.00
O1360  O     0.77321   0.12709   0.74999   0.00000  Uiso   1.00
O1361  O     0.83332   0.20627   0.68513   0.00000  Uiso   1.00
O1362  O     0.83334   0.12707   0.81487   0.00000  Uiso   1.00
O1363  O     0.83334   0.20627   0.81487   0.00000  Uiso   1.00
O1364  O     0.83332   0.12707   0.68513   0.00000  Uiso   1.00
N1365  N     0.90578   0.15547   0.88411   0.00000  Uiso   1.00
H1366  H     0.92169   0.12570   0.88979   0.00000  Uiso   1.00
C1367  C     0.93094   0.19622   0.88620   0.00000  Uiso   1.00
H1368  H     0.94378   0.20237   0.92021   0.00000  Uiso   1.00
H1369  H     0.91274   0.22665   0.87653   0.00000  Uiso   1.00
H1370  H     0.95664   0.19187   0.86356   0.00000  Uiso   1.00
N1371  N     0.75927   0.17300   0.61672   0.00000  Uiso   1.00
H1372  H     0.73679   0.15069   0.60548   0.00000  Uiso   1.00
C1373  C     0.74490   0.21889   0.62553   0.00000  Uiso   1.00
H1374  H     0.74042   0.23814   0.59419   0.00000  Uiso   1.00
H1375  H     0.76679   0.23773   0.64774   0.00000  Uiso   1.00
H1376  H     0.71539   0.21686   0.64216   0.00000  Uiso   1.00
C1377  C     0.75899   0.17546   0.87698   0.00000  Uiso   1.00
N1378  N     0.72988   0.17815   0.85472   0.00000  Uiso   1.00
C1379  C     0.90555   0.14992   0.62271   0.00000  Uiso   1.00
N1380  N     0.93432   0.14331   0.64461   0.00000  Uiso   1.00
N1381  N     0.72076   0.18817   0.95397   0.00000  Uiso   1.00
H1382  H     0.69676   0.16984   0.96614   0.00000  Uiso   1.00
C1383  C     0.71194   0.23659   0.95107   0.00000  Uiso   1.00
H1384  H     0.68359   0.24148   0.93087   0.00000  Uiso   1.00
H1385  H     0.73695   0.25494   0.93476   0.00000  Uiso   1.00
H1386  H     0.70778   0.25146   0.98478   0.00000  Uiso   1.00
N1387  N     0.94489   0.14653   0.54597   0.00000  Uiso   1.00
H1388  H     0.96266   0.12096   0.53292   0.00000  Uiso   1.00
C1389  C     0.96666   0.18962   0.55031   0.00000  Uiso   1.00
H1390  H     0.99507   0.18455   0.57032   0.00000  Uiso   1.00
H1391  H     0.94803   0.21560   0.56758   0.00000  Uiso   1.00
H1392  H     0.97447   0.20252   0.51703   0.00000  Uiso   1.00
N1393  N     0.70788   0.08270   0.75443   0.00000  Uiso   1.00
H1394  H     0.69915   0.06391   0.78129   0.00000  Uiso   1.00
C1395  C     0.71647   0.05621   0.71500   0.00000  Uiso   1.00
H1396  H     0.69170   0.03135   0.70714   0.00000  Uiso   1.00
H1397  H     0.74467   0.03664   0.72147   0.00000  Uiso   1.00
H1398  H     0.72068   0.07882   0.68604   0.00000  Uiso   1.00
N1399  N     0.95881   0.25207   0.74603   0.00000  Uiso   1.00
H1400  H     0.96939   0.27726   0.72564   0.00000  Uiso   1.00
C1401  C     0.94922   0.26883   0.78979   0.00000  Uiso   1.00
H1402  H     0.97657   0.28232   0.80787   0.00000  Uiso   1.00
H1403  H     0.93585   0.24138   0.80936   0.00000  Uiso   1.00
H1404  H     0.92609   0.29584   0.78635   0.00000  Uiso   1.00
N1405  N     0.95753   0.08409   0.73218   0.00000  Uiso   1.00
H1406  H     0.96468   0.07000   0.70188   0.00000  Uiso   1.00
C1407  C     0.95120   0.05136   0.76682   0.00000  Uiso   1.00
H1408  H     0.97421   0.02403   0.76539   0.00000  Uiso   1.00
H1409  H     0.92110   0.03527   0.76076   0.00000  Uiso   1.00
H1410  H     0.95248   0.06792   0.80029   0.00000  Uiso   1.00
N1411  N     0.70887   0.24974   0.73067   0.00000  Uiso   1.00
H1412  H     0.69860   0.26619   0.70241   0.00000  Uiso   1.00
C1413  C     0.71917   0.28021   0.76750   0.00000  Uiso   1.00
H1414  H     0.69748   0.30894   0.76870   0.00000  Uiso   1.00
H1415  H     0.74969   0.29478   0.76242   0.00000  Uiso   1.00
H1416  H     0.71926   0.26186   0.79962   0.00000  Uiso   1.00
N1417  N     0.82881   0.04588   0.66929   0.00000  Uiso   1.00
H1418  H     0.85558   0.04575   0.65246   0.00000  Uiso   1.00
C1419  C     0.79251   0.04029   0.64129   0.00000  Uiso   1.00
H1420  H     0.77697   0.07375   0.63817   0.00000  Uiso   1.00
H1421  H     0.77132   0.01454   0.65463   0.00000  Uiso   1.00
H1422  H     0.80079   0.02882   0.60744   0.00000  Uiso   1.00
N1423  N     0.82137   0.28938   0.82926   0.00000  Uiso   1.00
H1424  H     0.84453   0.27810   0.85001   0.00000  Uiso   1.00
C1425  C     0.78623   0.30751   0.85128   0.00000  Uiso   1.00
H1426  H     0.76542   0.27885   0.85861   0.00000  Uiso   1.00
H1427  H     0.76966   0.33303   0.83058   0.00000  Uiso   1.00
H1428  H     0.79534   0.32410   0.88338   0.00000  Uiso   1.00
N1429  N     0.86241   0.04763   0.82486   0.00000  Uiso   1.00
H1430  H     0.88171   0.07242   0.81368   0.00000  Uiso   1.00
C1431  C     0.88249   0.02288   0.86068   0.00000  Uiso   1.00
H1432  H     0.90461   0.04581   0.87856   0.00000  Uiso   1.00
H1433  H     0.89967   0.32664   0.84792   0.00000  Uiso   1.00
H1434  H     0.86051   0.01247   0.88567   0.00000  Uiso   1.00
N1435  N     0.84501   0.28642   0.67057   0.00000  Uiso   1.00
H1436  H     0.82708   0.29450   0.64328   0.00000  Uiso   1.00
C1437  C     0.88770   0.28403   0.66118   0.00000  Uiso   1.00
H1438  H     0.89163   0.26685   0.62848   0.00000  Uiso   1.00
H1439  H     0.90364   0.26342   0.68666   0.00000  Uiso   1.00
H1440  H     0.90147   0.31878   0.66039   0.00000  Uiso   1.00
C1441  C     0.08755   0.49995   0.74863   0.00000  Uiso   1.00
C1442  C     0.24579   0.50016   0.74899   0.00000  Uiso   1.00
C1443  C     0.09293   0.50945   0.52173   0.00000  Uiso   1.00
C1444  C     0.23758   0.48099   0.97844   0.00000  Uiso   1.00
C1445  C     0.02081   0.45839   0.74778   0.00000  Uiso   1.00
C1446  C     0.31253   0.54244   0.74506   0.00000  Uiso   1.00
C1447  C     0.31181   0.45867   0.74423   0.00000  Uiso   1.00
C1448  C     0.02141   0.54179   0.74111   0.00000  Uiso   1.00
C1449  C     0.29062   0.50054   0.74679   0.00000  Uiso   1.00
C1450  C     0.04273   0.50005   0.74606   0.00000  Uiso   1.00
C1451  C     0.16375   0.35710   0.71103   0.00000  Uiso   1.00
C1452  C     0.16608   0.64326   0.78891   0.00000  Uiso   1.00
C1453  C     0.17442   0.35836   0.78843   0.00000  Uiso   1.00
C1454  C     0.16903   0.64191   0.71122   0.00000  Uiso   1.00
C1455  C     0.16585   0.49973   0.66491   0.00000  Uiso   1.00
C1456  C     0.16695   0.50017   0.83516   0.00000  Uiso   1.00
C1457  C     0.20224   0.49251   0.90750   0.00000  Uiso   1.00
C1458  C     0.12938   0.50377   0.59295   0.00000  Uiso   1.00
C1459  C     0.16605   0.50021   0.88346   0.00000  Uiso   1.00
C1460  C     0.16614   0.49893   0.61673   0.00000  Uiso   1.00
C1461  C     0.12898   0.50529   0.90474   0.00000  Uiso   1.00
C1462  C     0.20275   0.49151   0.59526   0.00000  Uiso   1.00
C1463  C     0.12820   0.50506   0.95191   0.00000  Uiso   1.00
C1464  C     0.20324   0.49087   0.54818   0.00000  Uiso   1.00
C1465  C     0.16524   0.49734   0.97650   0.00000  Uiso   1.00
C1466  C     0.16592   0.49710   0.52367   0.00000  Uiso   1.00
C1467  C     0.20176   0.48983   0.95404   0.00000  Uiso   1.00
C1468  C     0.12919   0.50314   0.54620   0.00000  Uiso   1.00
C1469  C     0.09198   0.51166   0.97561   0.00000  Uiso   1.00
C1470  C     0.23935   0.48356   0.52447   0.00000  Uiso   1.00
Cu1471 Cu    0.16667   0.54689   0.75000   0.00000  Uiso   1.00
Cu1472 Cu    0.16667   0.45311   0.75000   0.00000  Uiso   1.00
H1473  H     0.06455   0.51450   0.53809   0.00000  Uiso   1.00
H1474  H     0.26558   0.47351   0.96213   0.00000  Uiso   1.00
N1475  N     0.16667   0.61736   0.75000   0.00000  Uiso   1.00
N1476  N     0.16667   0.38264   0.75000   0.00000  Uiso   1.00
O1477  O     0.10655   0.53958   0.74999   0.00000  Uiso   1.00
O1478  O     0.22679   0.46042   0.75000   0.00000  Uiso   1.00
O1479  O     0.22679   0.53958   0.75000   0.00000  Uiso   1.00
O1480  O     0.10655   0.46042   0.74999   0.00000  Uiso   1.00
O1481  O     0.16666   0.53960   0.68513   0.00000  Uiso   1.00
O1482  O     0.16668   0.46040   0.81487   0.00000  Uiso   1.00
O1483  O     0.16668   0.53960   0.81487   0.00000  Uiso   1.00
O1484  O     0.16666   0.46040   0.68513   0.00000  Uiso   1.00
N1485  N     0.23911   0.48880   0.88411   0.00000  Uiso   1.00
H1486  H     0.25502   0.45903   0.88979   0.00000  Uiso   1.00
C1487  C     0.26427   0.52956   0.88620   0.00000  Uiso   1.00
H1488  H     0.27711   0.53570   0.92021   0.00000  Uiso   1.00
H1489  H     0.24608   0.55998   0.87653   0.00000  Uiso   1.00
H1490  H     0.28998   0.52521   0.86356   0.00000  Uiso   1.00
N1491  N     0.09260   0.50634   0.61672   0.00000  Uiso   1.00
H1492  H     0.07012   0.48402   0.60548   0.00000  Uiso   1.00
C1493  C     0.07823   0.55222   0.62553   0.00000  Uiso   1.00
H1494  H     0.07376   0.57148   0.59419   0.00000  Uiso   1.00
H1495  H     0.10012   0.57107   0.64774   0.00000  Uiso   1.00
H1496  H     0.04872   0.55019   0.64216   0.00000  Uiso   1.00
C1497  C     0.09233   0.50879   0.87698   0.00000  Uiso   1.00
N1498  N     0.06322   0.51148   0.85472   0.00000  Uiso   1.00
C1499  C     0.23888   0.48325   0.62271   0.00000  Uiso   1.00
N1500  N     0.26765   0.47664   0.64461   0.00000  Uiso   1.00
N1501  N     0.05409   0.52150   0.95397   0.00000  Uiso   1.00
H1502  H     0.03009   0.50317   0.96614   0.00000  Uiso   1.00
C1503  C     0.04527   0.56992   0.95107   0.00000  Uiso   1.00
H1504  H     0.01692   0.57481   0.93087   0.00000  Uiso   1.00
H1505  H     0.07029   0.58827   0.93476   0.00000  Uiso   1.00
H1506  H     0.04111   0.58480   0.98478   0.00000  Uiso   1.00
N1507  N     0.27823   0.47987   0.54597   0.00000  Uiso   1.00
H1508  H     0.29600   0.45430   0.53292   0.00000  Uiso   1.00
C1509  C     0.29999   0.52296   0.55031   0.00000  Uiso   1.00
H1510  H     0.32841   0.51789   0.57032   0.00000  Uiso   1.00
H1511  H     0.28137   0.54893   0.56758   0.00000  Uiso   1.00
H1512  H     0.30781   0.53585   0.51703   0.00000  Uiso   1.00
N1513  N     0.04122   0.41603   0.75443   0.00000  Uiso   1.00
H1514  H     0.03248   0.39724   0.78129   0.00000  Uiso   1.00
C1515  C     0.04981   0.38954   0.71500   0.00000  Uiso   1.00
H1516  H     0.02504   0.36469   0.70714   0.00000  Uiso   1.00
H1517  H     0.07800   0.36997   0.72147   0.00000  Uiso   1.00
H1518  H     0.05401   0.41215   0.68604   0.00000  Uiso   1.00
N1519  N     0.29215   0.58541   0.74603   0.00000  Uiso   1.00
H1520  H     0.30273   0.61060   0.72564   0.00000  Uiso   1.00
C1521  C     0.28256   0.60216   0.78979   0.00000  Uiso   1.00
H1522  H     0.30990   0.61565   0.80787   0.00000  Uiso   1.00
H1523  H     0.26918   0.57471   0.80936   0.00000  Uiso   1.00
H1524  H     0.25942   0.62917   0.78635   0.00000  Uiso   1.00
N1525  N     0.29087   0.41742   0.73218   0.00000  Uiso   1.00
H1526  H     0.29801   0.40333   0.70188   0.00000  Uiso   1.00
C1527  C     0.28453   0.38469   0.76682   0.00000  Uiso   1.00
H1528  H     0.30755   0.35736   0.76539   0.00000  Uiso   1.00
H1529  H     0.25443   0.36860   0.76076   0.00000  Uiso   1.00
H1530  H     0.28582   0.40125   0.80029   0.00000  Uiso   1.00
N1531  N     0.04220   0.58307   0.73067   0.00000  Uiso   1.00
H1532  H     0.03194   0.59952   0.70241   0.00000  Uiso   1.00
C1533  C     0.05250   0.61354   0.76750   0.00000  Uiso   1.00
H1534  H     0.03081   0.64227   0.76870   0.00000  Uiso   1.00
H1535  H     0.08302   0.62811   0.76242   0.00000  Uiso   1.00
H1536  H     0.05259   0.59519   0.79962   0.00000  Uiso   1.00
N1537  N     0.16214   0.37922   0.66929   0.00000  Uiso   1.00
H1538  H     0.18892   0.37909   0.65246   0.00000  Uiso   1.00
C1539  C     0.12584   0.37362   0.64129   0.00000  Uiso   1.00
H1540  H     0.11030   0.40708   0.63817   0.00000  Uiso   1.00
H1541  H     0.10465   0.34788   0.65463   0.00000  Uiso   1.00
H1542  H     0.13412   0.36215   0.60744   0.00000  Uiso   1.00
N1543  N     0.15471   0.62271   0.82926   0.00000  Uiso   1.00
H1544  H     0.17786   0.61144   0.85001   0.00000  Uiso   1.00
C1545  C     0.11957   0.64085   0.85128   0.00000  Uiso   1.00
H1546  H     0.09875   0.61219   0.85861   0.00000  Uiso   1.00
H1547  H     0.10299   0.66636   0.83058   0.00000  Uiso   1.00
H1548  H     0.12867   0.65744   0.88338   0.00000  Uiso   1.00
N1549  N     0.19574   0.38097   0.82486   0.00000  Uiso   1.00
H1550  H     0.21504   0.40575   0.81368   0.00000  Uiso   1.00
C1551  C     0.21582   0.35622   0.86068   0.00000  Uiso   1.00
H1552  H     0.23794   0.37914   0.87856   0.00000  Uiso   1.00
H1553  H     0.23300   0.65997   0.84792   0.00000  Uiso   1.00
H1554  H     0.19385   0.34580   0.88567   0.00000  Uiso   1.00
N1555  N     0.17834   0.61975   0.67057   0.00000  Uiso   1.00
H1556  H     0.16041   0.62783   0.64328   0.00000  Uiso   1.00
C1557  C     0.22103   0.61737   0.66118   0.00000  Uiso   1.00
H1558  H     0.22496   0.60018   0.62848   0.00000  Uiso   1.00
H1559  H     0.23697   0.59676   0.68666   0.00000  Uiso   1.00
H1560  H     0.23480   0.65212   0.66039   0.00000  Uiso   1.00
C1561  C     0.42088   0.49995   0.74863   0.00000  Uiso   1.00
C1562  C     0.57912   0.50016   0.74899   0.00000  Uiso   1.00
C1563  C     0.42626   0.50945   0.52173   0.00000  Uiso   1.00
C1564  C     0.57091   0.48099   0.97844   0.00000  Uiso   1.00
C1565  C     0.35414   0.45839   0.74778   0.00000  Uiso   1.00
C1566  C     0.64586   0.54244   0.74506   0.00000  Uiso   1.00
C1567  C     0.64514   0.45867   0.74423   0.00000  Uiso   1.00
C1568  C     0.35474   0.54179   0.74111   0.00000  Uiso   1.00
C1569  C     0.62395   0.50054   0.74679   0.00000  Uiso   1.00
C1570  C     0.37606   0.50005   0.74606   0.00000  Uiso   1.00
C1571  C     0.49708   0.35710   0.71103   0.00000  Uiso   1.00
C1572  C     0.49942   0.64326   0.78891   0.00000  Uiso   1.00
C1573  C     0.50776   0.35836   0.78843   0.00000  Uiso   1.00
C1574  C     0.50236   0.64191   0.71122   0.00000  Uiso   1.00
C1575  C     0.49918   0.49973   0.66491   0.00000  Uiso   1.00
C1576  C     0.50028   0.50017   0.83516   0.00000  Uiso   1.00
C1577  C     0.53557   0.49251   0.90750   0.00000  Uiso   1.00
C1578  C     0.46272   0.50377   0.59295   0.00000  Uiso   1.00
C1579  C     0.49939   0.50021   0.88346   0.00000  Uiso   1.00
C1580  C     0.49947   0.49893   0.61673   0.00000  Uiso   1.00
C1581  C     0.46231   0.50529   0.90474   0.00000  Uiso   1.00
C1582  C     0.53608   0.49151   0.59526   0.00000  Uiso   1.00
C1583  C     0.46154   0.50506   0.95191   0.00000  Uiso   1.00
C1584  C     0.53657   0.49087   0.54818   0.00000  Uiso   1.00
C1585  C     0.49857   0.49734   0.97650   0.00000  Uiso   1.00
C1586  C     0.49925   0.49710   0.52367   0.00000  Uiso   1.00
C1587  C     0.53510   0.48983   0.95404   0.00000  Uiso   1.00
C1588  C     0.46252   0.50314   0.54620   0.00000  Uiso   1.00
C1589  C     0.42531   0.51166   0.97561   0.00000  Uiso   1.00
C1590  C     0.57268   0.48356   0.52447   0.00000  Uiso   1.00
Cu1591 Cu    0.50000   0.54689   0.75000   0.00000  Uiso   1.00
Cu1592 Cu    0.50000   0.45311   0.75000   0.00000  Uiso   1.00
H1593  H     0.39789   0.51450   0.53809   0.00000  Uiso   1.00
H1594  H     0.59892   0.47351   0.96213   0.00000  Uiso   1.00
N1595  N     0.50000   0.61736   0.75000   0.00000  Uiso   1.00
N1596  N     0.50000   0.38264   0.75000   0.00000  Uiso   1.00
O1597  O     0.43988   0.53958   0.74999   0.00000  Uiso   1.00
O1598  O     0.56012   0.46042   0.75000   0.00000  Uiso   1.00
O1599  O     0.56012   0.53958   0.75000   0.00000  Uiso   1.00
O1600  O     0.43988   0.46042   0.74999   0.00000  Uiso   1.00
O1601  O     0.49999   0.53960   0.68513   0.00000  Uiso   1.00
O1602  O     0.50001   0.46040   0.81487   0.00000  Uiso   1.00
O1603  O     0.50001   0.53960   0.81487   0.00000  Uiso   1.00
O1604  O     0.49999   0.46040   0.68513   0.00000  Uiso   1.00
N1605  N     0.57245   0.48880   0.88411   0.00000  Uiso   1.00
H1606  H     0.58836   0.45903   0.88979   0.00000  Uiso   1.00
C1607  C     0.59761   0.52956   0.88620   0.00000  Uiso   1.00
H1608  H     0.61045   0.53570   0.92021   0.00000  Uiso   1.00
H1609  H     0.57941   0.55998   0.87653   0.00000  Uiso   1.00
H1610  H     0.62331   0.52521   0.86356   0.00000  Uiso   1.00
N1611  N     0.42593   0.50634   0.61672   0.00000  Uiso   1.00
H1612  H     0.40346   0.48402   0.60548   0.00000  Uiso   1.00
C1613  C     0.41157   0.55222   0.62553   0.00000  Uiso   1.00
H1614  H     0.40709   0.57148   0.59419   0.00000  Uiso   1.00
H1615  H     0.43346   0.57107   0.64774   0.00000  Uiso   1.00
H1616  H     0.38206   0.55019   0.64216   0.00000  Uiso   1.00
C1617  C     0.42566   0.50879   0.87698   0.00000  Uiso   1.00
N1618  N     0.39655   0.51148   0.85472   0.00000  Uiso   1.00
C1619  C     0.57222   0.48325   0.62271   0.00000  Uiso   1.00
N1620  N     0.60098   0.47664   0.64461   0.00000  Uiso   1.00
N1621  N     0.38743   0.52150   0.95397   0.00000  Uiso   1.00
H1622  H     0.36343   0.50317   0.96614   0.00000  Uiso   1.00
C1623  C     0.37860   0.56992   0.95107   0.00000  Uiso   1.00
H1624  H     0.35026   0.57481   0.93087   0.00000  Uiso   1.00
H1625  H     0.40362   0.58827   0.93476   0.00000  Uiso   1.00
H1626  H     0.37444   0.58480   0.98478   0.00000  Uiso   1.00
N1627  N     0.61156   0.47987   0.54597   0.00000  Uiso   1.00
H1628  H     0.62933   0.45430   0.53292   0.00000  Uiso   1.00
C1629  C     0.63332   0.52296   0.55031   0.00000  Uiso   1.00
H1630  H     0.66174   0.51789   0.57032   0.00000  Uiso   1.00
H1631  H     0.61470   0.54893   0.56758   0.00000  Uiso   1.00
H1632  H     0.64114   0.53585   0.51703   0.00000  Uiso   1.00
N1633  N     0.37455   0.41603   0.75443   0.00000  Uiso   1.00
H1634  H     0.36582   0.39724   0.78129   0.00000  Uiso   1.00
C1635  C     0.38314   0.38954   0.71500   0.00000  Uiso   1.00
H1636  H     0.35837   0.36469   0.70714   0.00000  Uiso   1.00
H1637  H     0.41133   0.36997   0.72147   0.00000  Uiso   1.00
H1638  H     0.38735   0.41215   0.68604   0.00000  Uiso   1.00
N1639  N     0.62548   0.58541   0.74603   0.00000  Uiso   1.00
H1640  H     0.63606   0.61060   0.72564   0.00000  Uiso   1.00
C1641  C     0.61589   0.60216   0.78979   0.00000  Uiso   1.00
H1642  H     0.64323   0.61565   0.80787   0.00000  Uiso   1.00
H1643  H     0.60251   0.57471   0.80936   0.00000  Uiso   1.00
H1644  H     0.59276   0.62917   0.78635   0.00000  Uiso   1.00
N1645  N     0.62420   0.41742   0.73218   0.00000  Uiso   1.00
H1646  H     0.63134   0.40333   0.70188   0.00000  Uiso   1.00
C1647  C     0.61786   0.38469   0.76682   0.00000  Uiso   1.00
H1648  H     0.64088   0.35736   0.76539   0.00000  Uiso   1.00
H1649  H     0.58777   0.36860   0.76076   0.00000  Uiso   1.00
H1650  H     0.61915   0.40125   0.80029   0.00000  Uiso   1.00
N1651  N     0.37554   0.58307   0.73067   0.00000  Uiso   1.00
H1652  H     0.36527   0.59952   0.70241   0.00000  Uiso   1.00
C1653  C     0.38584   0.61354   0.76750   0.00000  Uiso   1.00
H1654  H     0.36415   0.64227   0.76870   0.00000  Uiso   1.00
H1655  H     0.41636   0.62811   0.76242   0.00000  Uiso   1.00
H1656  H     0.38593   0.59519   0.79962   0.00000  Uiso   1.00
N1657  N     0.49547   0.37922   0.66929   0.00000  Uiso   1.00
H1658  H     0.52225   0.37909   0.65246   0.00000  Uiso   1.00
C1659  C     0.45917   0.37362   0.64129   0.00000  Uiso   1.00
H1660  H     0.44363   0.40708   0.63817   0.00000  Uiso   1.00
H1661  H     0.43799   0.34788   0.65463   0.00000  Uiso   1.00
H1662  H     0.46746   0.36215   0.60744   0.00000  Uiso   1.00
N1663  N     0.48804   0.62271   0.82926   0.00000  Uiso   1.00
H1664  H     0.51120   0.61144   0.85001   0.00000  Uiso   1.00
C1665  C     0.45290   0.64085   0.85128   0.00000  Uiso   1.00
H1666  H     0.43208   0.61219   0.85861   0.00000  Uiso   1.00
H1667  H     0.43633   0.66636   0.83058   0.00000  Uiso   1.00
H1668  H     0.46201   0.65744   0.88338   0.00000  Uiso   1.00
N1669  N     0.52907   0.38097   0.82486   0.00000  Uiso   1.00
H1670  H     0.54837   0.40575   0.81368   0.00000  Uiso   1.00
C1671  C     0.54916   0.35622   0.86068   0.00000  Uiso   1.00
H1672  H     0.57127   0.37914   0.87856   0.00000  Uiso   1.00
H1673  H     0.56634   0.65997   0.84792   0.00000  Uiso   1.00
H1674  H     0.52718   0.34580   0.88567   0.00000  Uiso   1.00
N1675  N     0.51168   0.61975   0.67057   0.00000  Uiso   1.00
H1676  H     0.49375   0.62783   0.64328   0.00000  Uiso   1.00
C1677  C     0.55436   0.61737   0.66118   0.00000  Uiso   1.00
H1678  H     0.55830   0.60018   0.62848   0.00000  Uiso   1.00
H1679  H     0.57031   0.59676   0.68666   0.00000  Uiso   1.00
H1680  H     0.56813   0.65212   0.66039   0.00000  Uiso   1.00
C1681  C     0.75421   0.49995   0.74863   0.00000  Uiso   1.00
C1682  C     0.91246   0.50016   0.74899   0.00000  Uiso   1.00
C1683  C     0.75960   0.50945   0.52173   0.00000  Uiso   1.00
C1684  C     0.90425   0.48099   0.97844   0.00000  Uiso   1.00
C1685  C     0.68747   0.45839   0.74778   0.00000  Uiso   1.00
C1686  C     0.97919   0.54244   0.74506   0.00000  Uiso   1.00
C1687  C     0.97847   0.45867   0.74423   0.00000  Uiso   1.00
C1688  C     0.68807   0.54179   0.74111   0.00000  Uiso   1.00
C1689  C     0.95728   0.50054   0.74679   0.00000  Uiso   1.00
C1690  C     0.70939   0.50005   0.74606   0.00000  Uiso   1.00
C1691  C     0.83041   0.35710   0.71103   0.00000  Uiso   1.00
C1692  C     0.83275   0.64326   0.78891   0.00000  Uiso   1.00
C1693  C     0.84109   0.35836   0.78843   0.00000  Uiso   1.00
C1694  C     0.83569   0.64191   0.71122   0.00000  Uiso   1.00
C1695  C     0.83252   0.49973   0.66491   0.00000  Uiso   1.00
C1696  C     0.83361   0.50017   0.83516   0.00000  Uiso   1.00
C1697  C     0.86891   0.49251   0.90750   0.00000  Uiso   1.00
C1698  C     0.79605   0.50377   0.59295   0.00000  Uiso   1.00
C1699  C     0.83272   0.50021   0.88346   0.00000  Uiso   1.00
C1700  C     0.83280   0.49893   0.61673   0.00000  Uiso   1.00
C1701  C     0.79564   0.50529   0.90474   0.00000  Uiso   1.00
C1702  C     0.86941   0.49151   0.59526   0.00000  Uiso   1.00
C1703  C     0.79487   0.50506   0.95191   0.00000  Uiso   1.00
C1704  C     0.86991   0.49087   0.54818   0.00000  Uiso   1.00
C1705  C     0.83190   0.49734   0.97650   0.00000  Uiso   1.00
C1706  C     0.83258   0.49710   0.52367   0.00000  Uiso   1.00
C1707  C     0.86843   0.48983   0.95404   0.00000  Uiso   1.00
C1708  C     0.79586   0.50314   0.54620   0.00000  Uiso   1.00
C1709  C     0.75864   0.51166   0.97561   0.00000  Uiso   1.00
C1710  C     0.90601   0.48356   0.52447   0.00000  Uiso   1.00
Cu1711 Cu    0.83333   0.54689   0.75000   0.00000  Uiso   1.00
Cu1712 Cu    0.83333   0.45311   0.75000   0.00000  Uiso   1.00
H1713  H     0.73122   0.51450   0.53809   0.00000  Uiso   1.00
H1714  H     0.93225   0.47351   0.96213   0.00000  Uiso   1.00
N1715  N     0.83333   0.61736   0.75000   0.00000  Uiso   1.00
N1716  N     0.83333   0.38264   0.75000   0.00000  Uiso   1.00
O1717  O     0.77321   0.53958   0.74999   0.00000  Uiso   1.00
O1718  O     0.89345   0.46042   0.75000   0.00000  Uiso   1.00
O1719  O     0.89345   0.53958   0.75000   0.00000  Uiso   1.00
O1720  O     0.77321   0.46042   0.74999   0.00000  Uiso   1.00
O1721  O     0.83332   0.53960   0.68513   0.00000  Uiso   1.00
O1722  O     0.83334   0.46040   0.81487   0.00000  Uiso   1.00
O1723  O     0.83334   0.53960   0.81487   0.00000  Uiso   1.00
O1724  O     0.83332   0.46040   0.68513   0.00000  Uiso   1.00
N1725  N     0.90578   0.48880   0.88411   0.00000  Uiso   1.00
H1726  H     0.92169   0.45903   0.88979   0.00000  Uiso   1.00
C1727  C     0.93094   0.52956   0.88620   0.00000  Uiso   1.00
H1728  H     0.94378   0.53570   0.92021   0.00000  Uiso   1.00
H1729  H     0.91274   0.55998   0.87653   0.00000  Uiso   1.00
H1730  H     0.95664   0.52521   0.86356   0.00000  Uiso   1.00
N1731  N     0.75927   0.50634   0.61672   0.00000  Uiso   1.00
H1732  H     0.73679   0.48402   0.60548   0.00000  Uiso   1.00
C1733  C     0.74490   0.55222   0.62553   0.00000  Uiso   1.00
H1734  H     0.74042   0.57148   0.59419   0.00000  Uiso   1.00
H1735  H     0.76679   0.57107   0.64774   0.00000  Uiso   1.00
H1736  H     0.71539   0.55019   0.64216   0.00000  Uiso   1.00
C1737  C     0.75899   0.50879   0.87698   0.00000  Uiso   1.00
N1738  N     0.72988   0.51148   0.85472   0.00000  Uiso   1.00
C1739  C     0.90555   0.48325   0.62271   0.00000  Uiso   1.00
N1740  N     0.93432   0.47664   0.64461   0.00000  Uiso   1.00
N1741  N     0.72076   0.52150   0.95397   0.00000  Uiso   1.00
H1742  H     0.69676   0.50317   0.96614   0.00000  Uiso   1.00
C1743  C     0.71194   0.56992   0.95107   0.00000  Uiso   1.00
H1744  H     0.68359   0.57481   0.93087   0.00000  Uiso   1.00
H1745  H     0.73695   0.58827   0.93476   0.00000  Uiso   1.00
H1746  H     0.70778   0.58480   0.98478   0.00000  Uiso   1.00
N1747  N     0.94489   0.47987   0.54597   0.00000  Uiso   1.00
H1748  H     0.96266   0.45430   0.53292   0.00000  Uiso   1.00
C1749  C     0.96666   0.52296   0.55031   0.00000  Uiso   1.00
H1750  H     0.99507   0.51789   0.57032   0.00000  Uiso   1.00
H1751  H     0.94803   0.54893   0.56758   0.00000  Uiso   1.00
H1752  H     0.97447   0.53585   0.51703   0.00000  Uiso   1.00
N1753  N     0.70788   0.41603   0.75443   0.00000  Uiso   1.00
H1754  H     0.69915   0.39724   0.78129   0.00000  Uiso   1.00
C1755  C     0.71647   0.38954   0.71500   0.00000  Uiso   1.00
H1756  H     0.69170   0.36469   0.70714   0.00000  Uiso   1.00
H1757  H     0.74467   0.36997   0.72147   0.00000  Uiso   1.00
H1758  H     0.72068   0.41215   0.68604   0.00000  Uiso   1.00
N1759  N     0.95881   0.58541   0.74603   0.00000  Uiso   1.00
H1760  H     0.96939   0.61060   0.72564   0.00000  Uiso   1.00
C1761  C     0.94922   0.60216   0.78979   0.00000  Uiso   1.00
H1762  H     0.97657   0.61565   0.80787   0.00000  Uiso   1.00
H1763  H     0.93585   0.57471   0.80936   0.00000  Uiso   1.00
H1764  H     0.92609   0.62917   0.78635   0.00000  Uiso   1.00
N1765  N     0.95753   0.41742   0.73218   0.00000  Uiso   1.00
H1766  H     0.96468   0.40333   0.70188   0.00000  Uiso   1.00
C1767  C     0.95120   0.38469   0.76682   0.00000  Uiso   1.00
H1768  H     0.97421   0.35736   0.76539   0.00000  Uiso   1.00
H1769  H     0.92110   0.36860   0.76076   0.00000  Uiso   1.00
H1770  H     0.95248   0.40125   0.80029   0.00000  Uiso   1.00
N1771  N     0.70887   0.58307   0.73067   0.00000  Uiso   1.00
H1772  H     0.69860   0.59952   0.70241   0.00000  Uiso   1.00
C1773  C     0.71917   0.61354   0.76750   0.00000  Uiso   1.00
H1774  H     0.69748   0.64227   0.76870   0.00000  Uiso   1.00
H1775  H     0.74969   0.62811   0.76242   0.00000  Uiso   1.00
H1776  H     0.71926   0.59519   0.79962   0.00000  Uiso   1.00
N1777  N     0.82881   0.37922   0.66929   0.00000  Uiso   1.00
H1778  H     0.85558   0.37909   0.65246   0.00000  Uiso   1.00
C1779  C     0.79251   0.37362   0.64129   0.00000  Uiso   1.00
H1780  H     0.77697   0.40708   0.63817   0.00000  Uiso   1.00
H1781  H     0.77132   0.34788   0.65463   0.00000  Uiso   1.00
H1782  H     0.80079   0.36215   0.60744   0.00000  Uiso   1.00
N1783  N     0.82137   0.62271   0.82926   0.00000  Uiso   1.00
H1784  H     0.84453   0.61144   0.85001   0.00000  Uiso   1.00
C1785  C     0.78623   0.64085   0.85128   0.00000  Uiso   1.00
H1786  H     0.76542   0.61219   0.85861   0.00000  Uiso   1.00
H1787  H     0.76966   0.66636   0.83058   0.00000  Uiso   1.00
H1788  H     0.79534   0.65744   0.88338   0.00000  Uiso   1.00
N1789  N     0.86241   0.38097   0.82486   0.00000  Uiso   1.00
H1790  H     0.88171   0.40575   0.81368   0.00000  Uiso   1.00
C1791  C     0.88249   0.35622   0.86068   0.00000  Uiso   1.00
H1792  H     0.90461   0.37914   0.87856   0.00000  Uiso   1.00
H1793  H     0.89967   0.65997   0.84792   0.00000  Uiso   1.00
H1794  H     0.86051   0.34580   0.88567   0.00000  Uiso   1.00
N1795  N     0.84501   0.61975   0.67057   0.00000  Uiso   1.00
H1796  H     0.82708   0.62783   0.64328   0.00000  Uiso   1.00
C1797  C     0.88770   0.61737   0.66118   0.00000  Uiso   1.00
H1798  H     0.89163   0.60018   0.62848   0.00000  Uiso   1.00
H1799  H     0.90364   0.59676   0.68666   0.00000  Uiso   1.00
H1800  H     0.90147   0.65212   0.66039   0.00000  Uiso   1.00
C1801  C     0.08755   0.83329   0.74863   0.00000  Uiso   1.00
C1802  C     0.24579   0.83349   0.74899   0.00000  Uiso   1.00
C1803  C     0.09293   0.84278   0.52173   0.00000  Uiso   1.00
C1804  C     0.23758   0.81432   0.97844   0.00000  Uiso   1.00
C1805  C     0.02081   0.79173   0.74778   0.00000  Uiso   1.00
C1806  C     0.31253   0.87578   0.74506   0.00000  Uiso   1.00
C1807  C     0.31181   0.79200   0.74423   0.00000  Uiso   1.00
C1808  C     0.02141   0.87513   0.74111   0.00000  Uiso   1.00
C1809  C     0.29062   0.83388   0.74679   0.00000  Uiso   1.00
C1810  C     0.04273   0.83338   0.74606   0.00000  Uiso   1.00
C1811  C     0.16375   0.69044   0.71103   0.00000  Uiso   1.00
C1812  C     0.16608   0.97659   0.78891   0.00000  Uiso   1.00
C1813  C     0.17442   0.69170   0.78843   0.00000  Uiso   1.00
C1814  C     0.16903   0.97525   0.71122   0.00000  Uiso   1.00
C1815  C     0.16585   0.83306   0.66491   0.00000  Uiso   1.00
C1816  C     0.16695   0.83351   0.83516   0.00000  Uiso   1.00
C1817  C     0.20224   0.82585   0.90750   0.00000  Uiso   1.00
C1818  C     0.12938   0.83711   0.59295   0.00000  Uiso   1.00
C1819  C     0.16605   0.83354   0.88346   0.00000  Uiso   1.00
C1820  C     0.16614   0.83227   0.61673   0.00000  Uiso   1.00
C1821  C     0.12898   0.83863   0.90474   0.00000  Uiso   1.00
C1822  C     0.20275   0.82484   0.59526   0.00000  Uiso   1.00
C1823  C     0.12820   0.83839   0.95191   0.00000  Uiso   1.00
C1824  C     0.20324   0.82420   0.54818   0.00000  Uiso   1.00
C1825  C     0.16524   0.83067   0.97650   0.00000  Uiso   1.00
C1826  C     0.16592   0.83043   0.52367   0.00000  Uiso   1.00
C1827  C     0.20176   0.82316   0.95404   0.00000  Uiso   1.00
C1828  C     0.12919   0.83648   0.54620   0.00000  Uiso   1.00
C1829  C     0.09198   0.84499   0.97561   0.00000  Uiso   1.00
C1830  C     0.23935   0.81690   0.52447   0.00000  Uiso   1.00
Cu1831 Cu    0.16667   0.88022   0.75000   0.00000  Uiso   1.00
Cu1832 Cu    0.16667   0.78645   0.75000   0.00000  Uiso   1.00
H1833  H     0.06455   0.84783   0.53809   0.00000  Uiso   1.00
H1834  H     0.26558   0.80684   0.96213   0.00000  Uiso   1.00
N1835  N     0.16667   0.95069   0.75000   0.00000  Uiso   1.00
N1836  N     0.16667   0.71598   0.75000   0.00000  Uiso   1.00
O1837  O     0.10655   0.87291   0.74999   0.00000  Uiso   1.00
O1838  O     0.22679   0.79375   0.75000   0.00000  Uiso   1.00
O1839  O     0.22679   0.87291   0.75000   0.00000  Uiso   1.00
O1840  O     0.10655   0.79375   0.74999   0.00000  Uiso   1.00
O1841  O     0.16666   0.87293   0.68513   0.00000  Uiso   1.00
O1842  O     0.16668   0.79373   0.81487   0.00000  Uiso   1.00
O1843  O     0.16668   0.87293   0.81487   0.00000  Uiso   1.00
O1844  O     0.16666   0.79373   0.68513   0.00000  Uiso   1.00
N1845  N     0.23911   0.82213   0.88411   0.00000  Uiso   1.00
H1846  H     0.25502   0.79236   0.88979   0.00000  Uiso   1.00
C1847  C     0.26427   0.86289   0.88620   0.00000  Uiso   1.00
H1848  H     0.27711   0.86904   0.92021   0.00000  Uiso   1.00
H1849  H     0.24608   0.89331   0.87653   0.00000  Uiso   1.00
H1850  H     0.28998   0.85854   0.86356   0.00000  Uiso   1.00
N1851  N     0.09260   0.83967   0.61672   0.00000  Uiso   1.00
H1852  H     0.07012   0.81736   0.60548   0.00000  Uiso   1.00
C1853  C     0.07823   0.88555   0.62553   0.00000  Uiso   1.00
H1854  H     0.07376   0.90481   0.59419   0.00000  Uiso   1.00
H1855  H     0.10012   0.90440   0.64774   0.00000  Uiso   1.00
H1856  H     0.04872   0.88353   0.64216   0.00000  Uiso   1.00
C1857  C     0.09233   0.84212   0.87698   0.00000  Uiso   1.00
N1858  N     0.06322   0.84482   0.85472   0.00000  Uiso   1.00
C1859  C     0.23888   0.81658   0.62271   0.00000  Uiso   1.00
N1860  N     0.26765   0.80997   0.64461   0.00000  Uiso   1.00
N1861  N     0.05409   0.85483   0.95397   0.00000  Uiso   1.00
H1862  H     0.03009   0.83651   0.96614   0.00000  Uiso   1.00
C1863  C     0.04527   0.90325   0.95107   0.00000  Uiso   1.00
H1864  H     0.01692   0.90814   0.93087   0.00000  Uiso   1.00
H1865  H     0.07029   0.92161   0.93476   0.00000  Uiso   1.00
H1866  H     0.04111   0.91813   0.98478   0.00000  Uiso   1.00
N1867  N     0.27823   0.81320   0.54597   0.00000  Uiso   1.00
H1868  H     0.29600   0.78763   0.53292   0.00000  Uiso   1.00
C1869  C     0.29999   0.85629   0.55031   0.00000  Uiso   1.00
H1870  H     0.32841   0.85122   0.57032   0.00000  Uiso   1.00
H1871  H     0.28137   0.88226   0.56758   0.00000  Uiso   1.00
H1872  H     0.30781   0.86918   0.51703   0.00000  Uiso   1.00
N1873  N     0.04122   0.74936   0.75443   0.00000  Uiso   1.00
H1874  H     0.03248   0.73057   0.78129   0.00000  Uiso   1.00
C1875  C     0.04981   0.72287   0.71500   0.00000  Uiso   1.00
H1876  H     0.02504   0.69802   0.70714   0.00000  Uiso   1.00
H1877  H     0.07800   0.70330   0.72147   0.00000  Uiso   1.00
H1878  H     0.05401   0.74549   0.68604   0.00000  Uiso   1.00
N1879  N     0.29215   0.91874   0.74603   0.00000  Uiso   1.00
H1880  H     0.30273   0.94393   0.72564   0.00000  Uiso   1.00
C1881  C     0.28256   0.93549   0.78979   0.00000  Uiso   1.00
H1882  H     0.30990   0.94899   0.80787   0.00000  Uiso   1.00
H1883  H     0.26918   0.90805   0.80936   0.00000  Uiso   1.00
H1884  H     0.25942   0.96250   0.78635   0.00000  Uiso   1.00
N1885  N     0.29087   0.75076   0.73218   0.00000  Uiso   1.00
H1886  H     0.29801   0.73667   0.70188   0.00000  Uiso   1.00
C1887  C     0.28453   0.71802   0.76682   0.00000  Uiso   1.00
H1888  H     0.30755   0.69070   0.76539   0.00000  Uiso   1.00
H1889  H     0.25443   0.70193   0.76076   0.00000  Uiso   1.00
H1890  H     0.28582   0.73459   0.80029   0.00000  Uiso   1.00
N1891  N     0.04220   0.91641   0.73067   0.00000  Uiso   1.00
H1892  H     0.03194   0.93286   0.70241   0.00000  Uiso   1.00
C1893  C     0.05250   0.94687   0.76750   0.00000  Uiso   1.00
H1894  H     0.03081   0.97560   0.76870   0.00000  Uiso   1.00
H1895  H     0.08302   0.96145   0.76242   0.00000  Uiso   1.00
H1896  H     0.05259   0.92853   0.79962   0.00000  Uiso   1.00
N1897  N     0.16214   0.71255   0.66929   0.00000  Uiso   1.00
H1898  H     0.18892   0.71242   0.65246   0.00000  Uiso   1.00
C1899  C     0.12584   0.70696   0.64129   0.00000  Uiso   1.00
H1900  H     0.11030   0.74041   0.63817   0.00000  Uiso   1.00
H1901  H     0.10465   0.68121   0.65463   0.00000  Uiso   1.00
H1902  H     0.13412   0.69548   0.60744   0.00000  Uiso   1.00
N1903  N     0.15471   0.95604   0.82926   0.00000  Uiso   1.00
H1904  H     0.17786   0.94477   0.85001   0.00000  Uiso   1.00
C1905  C     0.11957   0.97418   0.85128   0.00000  Uiso   1.00
H1906  H     0.09875   0.94552   0.85861   0.00000  Uiso   1.00
H1907  H     0.10299   0.99969   0.83058   0.00000  Uiso   1.00
H1908  H     0.12867   0.99077   0.88338   0.00000  Uiso   1.00
N1909  N     0.19574   0.71430   0.82486   0.00000  Uiso   1.00
H1910  H     0.21504   0.73908   0.81368   0.00000  Uiso   1.00
C1911  C     0.21582   0.68955   0.86068   0.00000  Uiso   1.00
H1912  H     0.23794   0.71248   0.87856   0.00000  Uiso   1.00
H1913  H     0.23300   0.99331   0.84792   0.00000  Uiso   1.00
H1914  H     0.19385   0.67914   0.88567   0.00000  Uiso   1.00
N1915  N     0.17834   0.95309   0.67057   0.00000  Uiso   1.00
H1916  H     0.16041   0.96117   0.64328   0.00000  Uiso   1.00
C1917  C     0.22103   0.95070   0.66118   0.00000  Uiso   1.00
H1918  H     0.22496   0.93352   0.62848   0.00000  Uiso   1.00
H1919  H     0.23697   0.93009   0.68666   0.00000  Uiso   1.00
H1920  H     0.23480   0.98545   0.66039   0.00000  Uiso   1.00
C1921  C     0.42088   0.83329   0.74863   0.00000  Uiso   1.00
C1922  C     0.57912   0.83349   0.74899   0.00000  Uiso   1.00
C1923  C     0.42626   0.84278   0.52173   0.00000  Uiso   1.00
C1924  C     0.57091   0.81432   0.97844   0.00000  Uiso   1.00
C1925  C     0.35414   0.79173   0.74778   0.00000  Uiso   1.00
C1926  C     0.64586   0.87578   0.74506   0.00000  Uiso   1.00
C1927  C     0.64514   0.79200   0.74423   0.00000  Uiso   1.00
C1928  C     0.35474   0.87513   0.74111   0.00000  Uiso   1.00
C1929  C     0.62395   0.83388   0.74679   0.00000  Uiso   1.00
C1930  C     0.37606   0.83338   0.74606   0.00000  Uiso   1.00
C1931  C     0.49708   0.69044   0.71103   0.00000  Uiso   1.00
C1932  C     0.49942   0.97659   0.78891   0.00000  Uiso   1.00
C1933  C     0.50776   0.69170   0.78843   0.00000  Uiso   1.00
C1934  C     0.50236   0.97525   0.71122   0.00000  Uiso   1.00
C1935  C     0.49918   0.83306   0.66491   0.00000  Uiso   1.00
C1936  C     0.50028   0.83351   0.83516   0.00000  Uiso   1.00
C1937  C     0.53557   0.82585   0.90750   0.00000  Uiso   1.00
C1938  C     0.46272   0.83711   0.59295   0.00000  Uiso   1.00
C1939  C     0.49939   0.83354   0.88346   0.00000  Uiso   1.00
C1940  C     0.49947   0.83227   0.61673   0.00000  Uiso   1.00
C1941  C     0.46231   0.83863   0.90474   0.00000  Uiso   1.00
C1942  C     0.53608   0.82484   0.59526   0.00000  Uiso   1.00
C1943  C     0.46154   0.83839   0.95191   0.00000  Uiso   1.00
C1944  C     0.53657   0.82420   0.54818   0.00000  Uiso   1.00
C1945  C     0.49857   0.83067   0.97650   0.00000  Uiso   1.00
C1946  C     0.49925   0.83043   0.52367   0.00000  Uiso   1.00
C1947  C     0.53510   0.82316   0.95404   0.00000  Uiso   1.00
C1948  C     0.46252   0.83648   0.54620   0.00000  Uiso   1.00
C1949  C     0.42531   0.84499   0.97561   0.00000  Uiso   1.00
C1950  C     0.57268   0.81690   0.52447   0.00000  Uiso   1.00
Cu1951 Cu    0.50000   0.88022   0.75000   0.00000  Uiso   1.00
Cu1952 Cu    0.50000   0.78645   0.75000   0.00000  Uiso   1.00
H1953  H     0.39789   0.84783   0.53809   0.00000  Uiso   1.00
H1954  H     0.59892   0.80684   0.96213   0.00000  Uiso   1.00
N1955  N     0.50000   0.95069   0.75000   0.00000  Uiso   1.00
N1956  N     0.50000   0.71598   0.75000   0.00000  Uiso   1.00
O1957  O     0.43988   0.87291   0.74999   0.00000  Uiso   1.00
O1958  O     0.56012   0.79375   0.75000   0.00000  Uiso   1.00
O1959  O     0.56012   0.87291   0.75000   0.00000  Uiso   1.00
O1960  O     0.43988   0.79375   0.74999   0.00000  Uiso   1.00
O1961  O     0.49999   0.87293   0.68513   0.00000  Uiso   1.00
O1962  O     0.50001   0.79373   0.81487   0.00000  Uiso   1.00
O1963  O     0.50001   0.87293   0.81487   0.00000  Uiso   1.00
O1964  O     0.49999   0.79373   0.68513   0.00000  Uiso   1.00
N1965  N     0.57245   0.82213   0.88411   0.00000  Uiso   1.00
H1966  H     0.58836   0.79236   0.88979   0.00000  Uiso   1.00
C1967  C     0.59761   0.86289   0.88620   0.00000  Uiso   1.00
H1968  H     0.61045   0.86904   0.92021   0.00000  Uiso   1.00
H1969  H     0.57941   0.89331   0.87653   0.00000  Uiso   1.00
H1970  H     0.62331   0.85854   0.86356   0.00000  Uiso   1.00
N1971  N     0.42593   0.83967   0.61672   0.00000  Uiso   1.00
H1972  H     0.40346   0.81736   0.60548   0.00000  Uiso   1.00
C1973  C     0.41157   0.88555   0.62553   0.00000  Uiso   1.00
H1974  H     0.40709   0.90481   0.59419   0.00000  Uiso   1.00
H1975  H     0.43346   0.90440   0.64774   0.00000  Uiso   1.00
H1976  H     0.38206   0.88353   0.64216   0.00000  Uiso   1.00
C1977  C     0.42566   0.84212   0.87698   0.00000  Uiso   1.00
N1978  N     0.39655   0.84482   0.85472   0.00000  Uiso   1.00
C1979  C     0.57222   0.81658   0.62271   0.00000  Uiso   1.00
N1980  N     0.60098   0.80997   0.64461   0.00000  Uiso   1.00
N1981  N     0.38743   0.85483   0.95397   0.00000  Uiso   1.00
H1982  H     0.36343   0.83651   0.96614   0.00000  Uiso   1.00
C1983  C     0.37860   0.90325   0.95107   0.00000  Uiso   1.00
H1984  H     0.35026   0.90814   0.93087   0.00000  Uiso   1.00
H1985  H     0.40362   0.92161   0.93476   0.00000  Uiso   1.00
H1986  H     0.37444   0.91813   0.98478   0.00000  Uiso   1.00
N1987  N     0.61156   0.81320   0.54597   0.00000  Uiso   1.00
H1988  H     0.62933   0.78763   0.53292   0.00000  Uiso   1.00
C1989  C     0.63332   0.85629   0.55031   0.00000  Uiso   1.00
H1990  H     0.66174   0.85122   0.57032   0.00000  Uiso   1.00
H1991  H     0.61470   0.88226   0.56758   0.00000  Uiso   1.00
H1992  H     0.64114   0.86918   0.51703   0.00000  Uiso   1.00
N1993  N     0.37455   0.74936   0.75443   0.00000  Uiso   1.00
H1994  H     0.36582   0.73057   0.78129   0.00000  Uiso   1.00
C1995  C     0.38314   0.72287   0.71500   0.00000  Uiso   1.00
H1996  H     0.35837   0.69802   0.70714   0.00000  Uiso   1.00
H1997  H     0.41133   0.70330   0.72147   0.00000  Uiso   1.00
H1998  H     0.38735   0.74549   0.68604   0.00000  Uiso   1.00
N1999  N     0.62548   0.91874   0.74603   0.00000  Uiso   1.00
H2000  H     0.63606   0.94393   0.72564   0.00000  Uiso   1.00
C2001  C     0.61589   0.93549   0.78979   0.00000  Uiso   1.00
H2002  H     0.64323   0.94899   0.80787   0.00000  Uiso   1.00
H2003  H     0.60251   0.90805   0.80936   0.00000  Uiso   1.00
H2004  H     0.59276   0.96250   0.78635   0.00000  Uiso   1.00
N2005  N     0.62420   0.75076   0.73218   0.00000  Uiso   1.00
H2006  H     0.63134   0.73667   0.70188   0.00000  Uiso   1.00
C2007  C     0.61786   0.71802   0.76682   0.00000  Uiso   1.00
H2008  H     0.64088   0.69070   0.76539   0.00000  Uiso   1.00
H2009  H     0.58777   0.70193   0.76076   0.00000  Uiso   1.00
H2010  H     0.61915   0.73459   0.80029   0.00000  Uiso   1.00
N2011  N     0.37554   0.91641   0.73067   0.00000  Uiso   1.00
H2012  H     0.36527   0.93286   0.70241   0.00000  Uiso   1.00
C2013  C     0.38584   0.94687   0.76750   0.00000  Uiso   1.00
H2014  H     0.36415   0.97560   0.76870   0.00000  Uiso   1.00
H2015  H     0.41636   0.96145   0.76242   0.00000  Uiso   1.00
H2016  H     0.38593   0.92853   0.79962   0.00000  Uiso   1.00
N2017  N     0.49547   0.71255   0.66929   0.00000  Uiso   1.00
H2018  H     0.52225   0.71242   0.65246   0.00000  Uiso   1.00
C2019  C     0.45917   0.70696   0.64129   0.00000  Uiso   1.00
H2020  H     0.44363   0.74041   0.63817   0.00000  Uiso   1.00
H2021  H     0.43799   0.68121   0.65463   0.00000  Uiso   1.00
H2022  H     0.46746   0.69548   0.60744   0.00000  Uiso   1.00
N2023  N     0.48804   0.95604   0.82926   0.00000  Uiso   1.00
H2024  H     0.51120   0.94477   0.85001   0.00000  Uiso   1.00
C2025  C     0.45290   0.97418   0.85128   0.00000  Uiso   1.00
H2026  H     0.43208   0.94552   0.85861   0.00000  Uiso   1.00
H2027  H     0.43633   0.99969   0.83058   0.00000  Uiso   1.00
H2028  H     0.46201   0.99077   0.88338   0.00000  Uiso   1.00
N2029  N     0.52907   0.71430   0.82486   0.00000  Uiso   1.00
H2030  H     0.54837   0.73908   0.81368   0.00000  Uiso   1.00
C2031  C     0.54916   0.68955   0.86068   0.00000  Uiso   1.00
H2032  H     0.57127   0.71248   0.87856   0.00000  Uiso   1.00
H2033  H     0.56634   0.99331   0.84792   0.00000  Uiso   1.00
H2034  H     0.52718   0.67914   0.88567   0.00000  Uiso   1.00
N2035  N     0.51168   0.95309   0.67057   0.00000  Uiso   1.00
H2036  H     0.49375   0.96117   0.64328   0.00000  Uiso   1.00
C2037  C     0.55436   0.95070   0.66118   0.00000  Uiso   1.00
H2038  H     0.55830   0.93352   0.62848   0.00000  Uiso   1.00
H2039  H     0.57031   0.93009   0.68666   0.00000  Uiso   1.00
H2040  H     0.56813   0.98545   0.66039   0.00000  Uiso   1.00
C2041  C     0.75421   0.83329   0.74863   0.00000  Uiso   1.00
C2042  C     0.91246   0.83349   0.74899   0.00000  Uiso   1.00
C2043  C     0.75960   0.84278   0.52173   0.00000  Uiso   1.00
C2044  C     0.90425   0.81432   0.97844   0.00000  Uiso   1.00
C2045  C     0.68747   0.79173   0.74778   0.00000  Uiso   1.00
C2046  C     0.97919   0.87578   0.74506   0.00000  Uiso   1.00
C2047  C     0.97847   0.79200   0.74423   0.00000  Uiso   1.00
C2048  C     0.68807   0.87513   0.74111   0.00000  Uiso   1.00
C2049  C     0.95728   0.83388   0.74679   0.00000  Uiso   1.00
C2050  C     0.70939   0.83338   0.74606   0.00000  Uiso   1.00
C2051  C     0.83041   0.69044   0.71103   0.00000  Uiso   1.00
C2052  C     0.83275   0.97659   0.78891   0.00000  Uiso   1.00
C2053  C     0.84109   0.69170   0.78843   0.00000  Uiso   1.00
C2054  C     0.83569   0.97525   0.71122   0.00000  Uiso   1.00
C2055  C     0.83252   0.83306   0.66491   0.00000  Uiso   1.00
C2056  C     0.83361   0.83351   0.83516   0.00000  Uiso   1.00
C2057  C     0.86891   0.82585   0.90750   0.00000  Uiso   1.00
C2058  C     0.79605   0.83711   0.59295   0.00000  Uiso   1.00
C2059  C     0.83272   0.83354   0.88346   0.00000  Uiso   1.00
C2060  C     0.83280   0.83227   0.61673   0.00000  Uiso   1.00
C2061  C     0.79564   0.83863   0.90474   0.00000  Uiso   1.00
C2062  C     0.86941   0.82484   0.59526   0.00000  Uiso   1.00
C2063  C     0.79487   0.83839   0.95191   0.00000  Uiso   1.00
C2064  C     0.86991   0.82420   0.54818   0.00000  Uiso   1.00
C2065  C     0.83190   0.83067   0.97650   0.00000  Uiso   1.00
C2066  C     0.83258   0.83043   0.52367   0.00000  Uiso   1.00
C2067  C     0.86843   0.82316   0.95404   0.00000  Uiso   1.00
C2068  C     0.79586   0.83648   0.54620   0.00000  Uiso   1.00
C2069  C     0.75864   0.84499   0.97561   0.00000  Uiso   1.00
C2070  C     0.90601   0.81690   0.52447   0.00000  Uiso   1.00
Cu2071 Cu    0.83333   0.88022   0.75000   0.00000  Uiso   1.00
Cu2072 Cu    0.83333   0.78645   0.75000   0.00000  Uiso   1.00
H2073  H     0.73122   0.84783   0.53809   0.00000  Uiso   1.00
H2074  H     0.93225   0.80684   0.96213   0.00000  Uiso   1.00
N2075  N     0.83333   0.95069   0.75000   0.00000  Uiso   1.00
N2076  N     0.83333   0.71598   0.75000   0.00000  Uiso   1.00
O2077  O     0.77321   0.87291   0.74999   0.00000  Uiso   1.00
O2078  O     0.89345   0.79375   0.75000   0.00000  Uiso   1.00
O2079  O     0.89345   0.87291   0.75000   0.00000  Uiso   1.00
O2080  O     0.77321   0.79375   0.74999   0.00000  Uiso   1.00
O2081  O     0.83332   0.87293   0.68513   0.00000  Uiso   1.00
O2082  O     0.83334   0.79373   0.81487   0.00000  Uiso   1.00
O2083  O     0.83334   0.87293   0.81487   0.00000  Uiso   1.00
O2084  O     0.83332   0.79373   0.68513   0.00000  Uiso   1.00
N2085  N     0.90578   0.82213   0.88411   0.00000  Uiso   1.00
H2086  H     0.92169   0.79236   0.88979   0.00000  Uiso   1.00
C2087  C     0.93094   0.86289   0.88620   0.00000  Uiso   1.00
H2088  H     0.94378   0.86904   0.92021   0.00000  Uiso   1.00
H2089  H     0.91274   0.89331   0.87653   0.00000  Uiso   1.00
H2090  H     0.95664   0.85854   0.86356   0.00000  Uiso   1.00
N2091  N     0.75927   0.83967   0.61672   0.00000  Uiso   1.00
H2092  H     0.73679   0.81736   0.60548   0.00000  Uiso   1.00
C2093  C     0.74490   0.88555   0.62553   0.00000  Uiso   1.00
H2094  H     0.74042   0.90481   0.59419   0.00000  Uiso   1.00
H2095  H     0.76679   0.90440   0.64774   0.00000  Uiso   1.00
H2096  H     0.71539   0.88353   0.64216   0.00000  Uiso   1.00
C2097  C     0.75899   0.84212   0.87698   0.00000  Uiso   1.00
N2098  N     0.72988   0.84482   0.85472   0.00000  Uiso   1.00
C2099  C     0.90555   0.81658   0.62271   0.00000  Uiso   1.00
N2100  N     0.93432   0.80997   0.64461   0.00000  Uiso   1.00
N2101  N     0.72076   0.85483   0.95397   0.00000  Uiso   1.00
H2102  H     0.69676   0.83651   0.96614   0.00000  Uiso   1.00
C2103  C     0.71194   0.90325   0.95107   0.00000  Uiso   1.00
H2104  H     0.68359   0.90814   0.93087   0.00000  Uiso   1.00
H2105  H     0.73695   0.92161   0.93476   0.00000  Uiso   1.00
H2106  H     0.70778   0.91813   0.98478   0.00000  Uiso   1.00
N2107  N     0.94489   0.81320   0.54597   0.00000  Uiso   1.00
H2108  H     0.96266   0.78763   0.53292   0.00000  Uiso   1.00
C2109  C     0.96666   0.85629   0.55031   0.00000  Uiso   1.00
H2110  H     0.99507   0.85122   0.57032   0.00000  Uiso   1.00
H2111  H     0.94803   0.88226   0.56758   0.00000  Uiso   1.00
H2112  H     0.97447   0.86918   0.51703   0.00000  Uiso   1.00
N2113  N     0.70788   0.74936   0.75443   0.00000  Uiso   1.00
H2114  H     0.69915   0.73057   0.78129   0.00000  Uiso   1.00
C2115  C     0.71647   0.72287   0.71500   0.00000  Uiso   1.00
H2116  H     0.69170   0.69802   0.70714   0.00000  Uiso   1.00
H2117  H     0.74467   0.70330   0.72147   0.00000  Uiso   1.00
H2118  H     0.72068   0.74549   0.68604   0.00000  Uiso   1.00
N2119  N     0.95881   0.91874   0.74603   0.00000  Uiso   1.00
H2120  H     0.96939   0.94393   0.72564   0.00000  Uiso   1.00
C2121  C     0.94922   0.93549   0.78979   0.00000  Uiso   1.00
H2122  H     0.97657   0.94899   0.80787   0.00000  Uiso   1.00
H2123  H     0.93585   0.90805   0.80936   0.00000  Uiso   1.00
H2124  H     0.92609   0.96250   0.78635   0.00000  Uiso   1.00
N2125  N     0.95753   0.75076   0.73218   0.00000  Uiso   1.00
H2126  H     0.96468   0.73667   0.70188   0.00000  Uiso   1.00
C2127  C     0.95120   0.71802   0.76682   0.00000  Uiso   1.00
H2128  H     0.97421   0.69070   0.76539   0.00000  Uiso   1.00
H2129  H     0.92110   0.70193   0.76076   0.00000  Uiso   1.00
H2130  H     0.95248   0.73459   0.80029   0.00000  Uiso   1.00
N2131  N     0.70887   0.91641   0.73067   0.00000  Uiso   1.00
H2132  H     0.69860   0.93286   0.70241   0.00000  Uiso   1.00
C2133  C     0.71917   0.94687   0.76750   0.00000  Uiso   1.00
H2134  H     0.69748   0.97560   0.76870   0.00000  Uiso   1.00
H2135  H     0.74969   0.96145   0.76242   0.00000  Uiso   1.00
H2136  H     0.71926   0.92853   0.79962   0.00000  Uiso   1.00
N2137  N     0.82881   0.71255   0.66929   0.00000  Uiso   1.00
H2138  H     0.85558   0.71242   0.65246   0.00000  Uiso   1.00
C2139  C     0.79251   0.70696   0.64129   0.00000  Uiso   1.00
H2140  H     0.77697   0.74041   0.63817   0.00000  Uiso   1.00
H2141  H     0.77132   0.68121   0.65463   0.00000  Uiso   1.00
H2142  H     0.80079   0.69548   0.60744   0.00000  Uiso   1.00
N2143  N     0.82137   0.95604   0.82926   0.00000  Uiso   1.00
H2144  H     0.84453   0.94477   0.85001   0.00000  Uiso   1.00
C2145  C     0.78623   0.97418   0.85128   0.00000  Uiso   1.00
H2146  H     0.76542   0.94552   0.85861   0.00000  Uiso   1.00
H2147  H     0.76966   0.99969   0.83058   0.00000  Uiso   1.00
H2148  H     0.79534   0.99077   0.88338   0.00000  Uiso   1.00
N2149  N     0.86241   0.71430   0.82486   0.00000  Uiso   1.00
H2150  H     0.88171   0.73908   0.81368   0.00000  Uiso   1.00
C2151  C     0.88249   0.68955   0.86068   0.00000  Uiso   1.00
H2152  H     0.90461   0.71248   0.87856   0.00000  Uiso   1.00
H2153  H     0.89967   0.99331   0.84792   0.00000  Uiso   1.00
H2154  H     0.86051   0.67914   0.88567   0.00000  Uiso   1.00
N2155  N     0.84501   0.95309   0.67057   0.00000  Uiso   1.00
H2156  H     0.82708   0.96117   0.64328   0.00000  Uiso   1.00
C2157  C     0.88770   0.95070   0.66118   0.00000  Uiso   1.00
H2158  H     0.89163   0.93352   0.62848   0.00000  Uiso   1.00
H2159  H     0.90364   0.93009   0.68666   0.00000  Uiso   1.00
H2160  H     0.90147   0.98545   0.66039   0.00000  Uiso   1.00
loop_
_geom_bond_atom_site_label_1
_geom_bond_atom_site_label_2
_geom_bond_distance
_geom_bond_site_symmetry_2
_ccdc_geom_bond_type
C1     O40     1.316   .     A
C1     O37     1.312   .     A
C1     C10     1.477   .     S
C2     O39     1.313   .     A
C2     O38     1.317   .     A
C2     C9      1.481   .     S
C3     H33     1.080   .     S
C3     C28     1.399   .     A
C3     C1109   1.390   1_554 S
C4     C27     1.398   .     A
C4     H34     1.080   .     S
C4     C1110   1.386   .     S
C5     C10     1.414   .     A
C5     N73     1.424   .     S
C5     C247    1.397   1_455 S
C6     C9      1.420   .     A
C6     N79     1.426   .     S
C6     C128    1.401   .     S
C7     C9      1.413   .     A
C7     N85     1.423   .     S
C7     C125    1.397   .     S
C8     N91     1.426   .     S
C8     C10     1.416   .     A
C8     C246    1.401   1_455 S
C11    N36     1.383   .     A
C11    N97     1.419   .     S
C11    C734    1.428   1_545 S
C12    N35     1.387   .     A
C12    N103    1.421   .     S
C12    C373    1.439   .     S
C13    N109    1.437   .     S
C13    N36     1.382   .     A
C13    C732    1.439   1_545 S
C14    N115    1.420   .     S
C14    N35     1.381   .     A
C14    C371    1.428   .     S
C15    O44     1.305   .     A
C15    C20     1.451   .     S
C15    O41     1.306   .     A
C16    O43     1.309   .     A
C16    O42     1.305   .     A
C16    C19     1.455   .     S
C17    C27     1.405   .     A
C17    N45     1.427   .     S
C17    C19     1.397   .     A
C18    C20     1.398   .     A
C18    N51     1.428   .     S
C18    C28     1.407   .     A
C19    C21     1.405   .     A
C20    C22     1.403   .     A
C21    C57     1.453   .     S
C21    C23     1.421   .     A
C22    C59     1.452   .     S
C22    C24     1.418   .     A
C23    C29     1.422   .     A
C23    C25     1.429   .     A
C24    C26     1.429   .     A
C24    C30     1.422   .     A
C25    C27     1.415   .     A
C25    C1106   1.420   .     S
C26    C28     1.416   .     A
C26    C1105   1.420   1_554 S
C29    N61     1.423   .     S
C29    C1083   1.390   .     S
C30    N67     1.424   .     S
C30    C1084   1.386   1_554 S
Cu31   O43     1.967   .     S
Cu31   O37     1.993   .     S
Cu31   O41     1.962   .     S
Cu31   Cu32    2.737   .     S
Cu31   O39     1.995   .     S
Cu31   N35     2.057   .     S
Cu32   N36     2.057   .     S
Cu32   O38     1.993   .     S
Cu32   O44     1.967   .     S
Cu32   O40     1.995   .     S
Cu32   O42     1.962   .     S
N45    C47     1.447   .     S
N45    H46     1.030   .     S
C47    H49     1.111   .     S
C47    H48     1.109   .     S
C47    H50     1.110   .     S
N51    H52     1.031   .     S
N51    C53     1.447   .     S
C53    H54     1.110   .     S
C53    H55     1.109   .     S
C53    H56     1.109   .     S
C57    N58     1.158   .     T
C59    N60     1.157   .     T
N61    C63     1.447   .     S
N61    H62     1.032   .     S
C63    H65     1.111   .     S
C63    H66     1.112   .     S
C63    H64     1.110   .     S
N67    H68     1.032   .     S
N67    C69     1.448   .     S
C69    H71     1.111   .     S
C69    H72     1.111   .     S
C69    H70     1.110   .     S
N73    H74     1.030   .     S
N73    C75     1.445   .     S
C75    H76     1.108   .     S
C75    H77     1.107   .     S
C75    H78     1.111   .     S
N79    C81     1.444   .     S
N79    H80     1.030   .     S
C81    H82     1.108   .     S
C81    H83     1.098   .     S
C81    H84     1.103   .     S
N85    C87     1.442   .     S
N85    H86     1.030   .     S
C87    H88     1.105   .     S
C87    H89     1.105   .     S
C87    H90     1.112   .     S
N91    C93     1.445   .     S
N91    H92     1.031   .     S
C93    H94     1.105   .     S
C93    H95     1.106   .     S
C93    H96     1.111   .     S
N97    C99     1.451   .     S
N97    H98     1.031   .     S
C99    H100    1.108   .     S
C99    H102    1.111   .     S
C99    H101    1.110   .     S
N103   C105    1.451   .     S
N103   H104    1.030   .     S
C105   H107    1.111   .     S
C105   H108    1.108   .     S
C105   H106    1.108   .     S
N109   H110    1.028   .     S
N109   C111    1.450   .     S
C111   H112    1.110   .     S
C111   H114    1.104   .     S
C111   H833    1.106   1_545 S
H113   C471    1.106   .     S
N115   C117    1.446   .     S
N115   H116    1.028   .     S
C117   H119    1.103   .     S
C117   H120    1.110   .     S
C117   H118    1.111   .     S
C121   O160    1.316   .     A
C121   O157    1.312   .     A
C121   C130    1.477   .     S
C122   O159    1.313   .     A
C122   O158    1.317   .     A
C122   C129    1.481   .     S
C123   H153    1.080   .     S
C123   C148    1.399   .     A
C123   C1229   1.390   1_554 S
C124   C147    1.398   .     A
C124   H154    1.080   .     S
C124   C1230   1.386   .     S
C125   C130    1.414   .     A
C125   N193    1.424   .     S
C126   C129    1.420   .     A
C126   N199    1.426   .     S
C126   C248    1.401   .     S
C127   C129    1.413   .     A
C127   N205    1.423   .     S
C127   C245    1.397   .     S
C128   N211    1.426   .     S
C128   C130    1.416   .     A
C131   N156    1.383   .     A
C131   N217    1.419   .     S
C131   C854    1.428   1_545 S
C132   N155    1.387   .     A
C132   N223    1.421   .     S
C132   C493    1.439   .     S
C133   N229    1.437   .     S
C133   N156    1.382   .     A
C133   C852    1.439   1_545 S
C134   N235    1.420   .     S
C134   N155    1.381   .     A
C134   C491    1.428   .     S
C135   O164    1.305   .     A
C135   C140    1.451   .     S
C135   O161    1.306   .     A
C136   O163    1.309   .     A
C136   O162    1.305   .     A
C136   C139    1.455   .     S
C137   C147    1.405   .     A
C137   N165    1.427   .     S
C137   C139    1.397   .     A
C138   C140    1.398   .     A
C138   N171    1.428   .     S
C138   C148    1.407   .     A
C139   C141    1.405   .     A
C140   C142    1.403   .     A
C141   C177    1.453   .     S
C141   C143    1.421   .     A
C142   C179    1.452   .     S
C142   C144    1.418   .     A
C143   C149    1.422   .     A
C143   C145    1.429   .     A
C144   C146    1.429   .     A
C144   C150    1.422   .     A
C145   C147    1.415   .     A
C145   C1226   1.420   .     S
C146   C148    1.416   .     A
C146   C1225   1.420   1_554 S
C149   N181    1.423   .     S
C149   C1203   1.390   .     S
C150   N187    1.424   .     S
C150   C1204   1.386   1_554 S
Cu151  O163    1.967   .     S
Cu151  O157    1.993   .     S
Cu151  O161    1.962   .     S
Cu151  Cu152   2.737   .     S
Cu151  O159    1.995   .     S
Cu151  N155    2.057   .     S
Cu152  N156    2.057   .     S
Cu152  O158    1.993   .     S
Cu152  O164    1.967   .     S
Cu152  O160    1.995   .     S
Cu152  O162    1.962   .     S
N165   C167    1.447   .     S
N165   H166    1.030   .     S
C167   H169    1.111   .     S
C167   H168    1.109   .     S
C167   H170    1.110   .     S
N171   H172    1.031   .     S
N171   C173    1.447   .     S
C173   H174    1.110   .     S
C173   H175    1.109   .     S
C173   H176    1.109   .     S
C177   N178    1.158   .     T
C179   N180    1.157   .     T
N181   C183    1.447   .     S
N181   H182    1.032   .     S
C183   H185    1.111   .     S
C183   H186    1.112   .     S
C183   H184    1.110   .     S
N187   H188    1.032   .     S
N187   C189    1.448   .     S
C189   H191    1.111   .     S
C189   H192    1.111   .     S
C189   H190    1.110   .     S
N193   H194    1.030   .     S
N193   C195    1.445   .     S
C195   H196    1.108   .     S
C195   H197    1.107   .     S
C195   H198    1.111   .     S
N199   C201    1.444   .     S
N199   H200    1.030   .     S
C201   H202    1.108   .     S
C201   H203    1.098   .     S
C201   H204    1.103   .     S
N205   C207    1.442   .     S
N205   H206    1.030   .     S
C207   H208    1.105   .     S
C207   H209    1.105   .     S
C207   H210    1.112   .     S
N211   C213    1.445   .     S
N211   H212    1.031   .     S
C213   H214    1.105   .     S
C213   H215    1.106   .     S
C213   H216    1.111   .     S
N217   C219    1.451   .     S
N217   H218    1.031   .     S
C219   H220    1.108   .     S
C219   H222    1.111   .     S
C219   H221    1.110   .     S
N223   C225    1.451   .     S
N223   H224    1.030   .     S
C225   H227    1.111   .     S
C225   H228    1.108   .     S
C225   H226    1.108   .     S
N229   H230    1.028   .     S
N229   C231    1.450   .     S
C231   H232    1.110   .     S
C231   H234    1.104   .     S
C231   H953    1.106   1_545 S
H233   C591    1.106   .     S
N235   C237    1.446   .     S
N235   H236    1.028   .     S
C237   H239    1.103   .     S
C237   H240    1.110   .     S
C237   H238    1.111   .     S
C241   O280    1.316   .     A
C241   O277    1.312   .     A
C241   C250    1.477   .     S
C242   O279    1.313   .     A
C242   O278    1.317   .     A
C242   C249    1.481   .     S
C243   H273    1.080   .     S
C243   C268    1.399   .     A
C243   C1349   1.390   1_554 S
C244   C267    1.398   .     A
C244   H274    1.080   .     S
C244   C1350   1.386   .     S
C245   C250    1.414   .     A
C245   N313    1.424   .     S
C246   C249    1.420   .     A
C246   N319    1.426   .     S
C246   C8      1.401   1_655 S
C247   C249    1.413   .     A
C247   N325    1.423   .     S
C247   C5      1.397   1_655 S
C248   N331    1.426   .     S
C248   C250    1.416   .     A
C251   N276    1.383   .     A
C251   N337    1.419   .     S
C251   C974    1.428   1_545 S
C252   N275    1.387   .     A
C252   N343    1.421   .     S
C252   C613    1.439   .     S
C253   N349    1.437   .     S
C253   N276    1.382   .     A
C253   C972    1.439   1_545 S
C254   N355    1.420   .     S
C254   N275    1.381   .     A
C254   C611    1.428   .     S
C255   O284    1.305   .     A
C255   C260    1.451   .     S
C255   O281    1.306   .     A
C256   O283    1.309   .     A
C256   O282    1.305   .     A
C256   C259    1.455   .     S
C257   C267    1.405   .     A
C257   N285    1.427   .     S
C257   C259    1.397   .     A
C258   C260    1.398   .     A
C258   N291    1.428   .     S
C258   C268    1.407   .     A
C259   C261    1.405   .     A
C260   C262    1.403   .     A
C261   C297    1.453   .     S
C261   C263    1.421   .     A
C262   C299    1.452   .     S
C262   C264    1.418   .     A
C263   C269    1.422   .     A
C263   C265    1.429   .     A
C264   C266    1.429   .     A
C264   C270    1.422   .     A
C265   C267    1.415   .     A
C265   C1346   1.420   .     S
C266   C268    1.416   .     A
C266   C1345   1.420   1_554 S
C269   N301    1.423   .     S
C269   C1323   1.390   .     S
C270   N307    1.424   .     S
C270   C1324   1.386   1_554 S
Cu271  O283    1.967   .     S
Cu271  O277    1.993   .     S
Cu271  O281    1.962   .     S
Cu271  Cu272   2.737   .     S
Cu271  O279    1.995   .     S
Cu271  N275    2.057   .     S
Cu272  N276    2.057   .     S
Cu272  O278    1.993   .     S
Cu272  O284    1.967   .     S
Cu272  O280    1.995   .     S
Cu272  O282    1.962   .     S
N285   C287    1.447   .     S
N285   H286    1.030   .     S
C287   H289    1.111   .     S
C287   H288    1.109   .     S
C287   H290    1.110   .     S
N291   H292    1.031   .     S
N291   C293    1.447   .     S
C293   H294    1.110   .     S
C293   H295    1.109   .     S
C293   H296    1.109   .     S
C297   N298    1.158   .     T
C299   N300    1.157   .     T
N301   C303    1.447   .     S
N301   H302    1.032   .     S
C303   H305    1.111   .     S
C303   H306    1.112   .     S
C303   H304    1.110   .     S
N307   H308    1.032   .     S
N307   C309    1.448   .     S
C309   H311    1.111   .     S
C309   H312    1.111   .     S
C309   H310    1.110   .     S
N313   H314    1.030   .     S
N313   C315    1.445   .     S
C315   H316    1.108   .     S
C315   H317    1.107   .     S
C315   H318    1.111   .     S
N319   C321    1.444   .     S
N319   H320    1.030   .     S
C321   H322    1.108   .     S
C321   H323    1.098   .     S
C321   H324    1.103   .     S
N325   C327    1.442   .     S
N325   H326    1.030   .     S
C327   H328    1.105   .     S
C327   H329    1.105   .     S
C327   H330    1.112   .     S
N331   C333    1.445   .     S
N331   H332    1.031   .     S
C333   H334    1.105   .     S
C333   H335    1.106   .     S
C333   H336    1.111   .     S
N337   C339    1.451   .     S
N337   H338    1.031   .     S
C339   H340    1.108   .     S
C339   H342    1.111   .     S
C339   H341    1.110   .     S
N343   C345    1.451   .     S
N343   H344    1.030   .     S
C345   H347    1.111   .     S
C345   H348    1.108   .     S
C345   H346    1.108   .     S
N349   H350    1.028   .     S
N349   C351    1.450   .     S
C351   H352    1.110   .     S
C351   H354    1.104   .     S
C351   H1073   1.106   1_545 S
H353   C711    1.106   .     S
N355   C357    1.446   .     S
N355   H356    1.028   .     S
C357   H359    1.103   .     S
C357   H360    1.110   .     S
C357   H358    1.111   .     S
C361   O400    1.316   .     A
C361   O397    1.312   .     A
C361   C370    1.477   .     S
C362   O399    1.313   .     A
C362   O398    1.317   .     A
C362   C369    1.481   .     S
C363   H393    1.080   .     S
C363   C388    1.399   .     A
C363   C1469   1.390   1_554 S
C364   C387    1.398   .     A
C364   H394    1.080   .     S
C364   C1470   1.386   .     S
C365   C370    1.414   .     A
C365   N433    1.424   .     S
C365   C607    1.397   1_455 S
C366   C369    1.420   .     A
C366   N439    1.426   .     S
C366   C488    1.401   .     S
C367   C369    1.413   .     A
C367   N445    1.423   .     S
C367   C485    1.397   .     S
C368   N451    1.426   .     S
C368   C370    1.416   .     A
C368   C606    1.401   1_455 S
C371   N396    1.383   .     A
C371   N457    1.419   .     S
C372   N395    1.387   .     A
C372   N463    1.421   .     S
C372   C733    1.439   .     S
C373   N469    1.437   .     S
C373   N396    1.382   .     A
C374   N475    1.420   .     S
C374   N395    1.381   .     A
C374   C731    1.428   .     S
C375   O404    1.305   .     A
C375   C380    1.451   .     S
C375   O401    1.306   .     A
C376   O403    1.309   .     A
C376   O402    1.305   .     A
C376   C379    1.455   .     S
C377   C387    1.405   .     A
C377   N405    1.427   .     S
C377   C379    1.397   .     A
C378   C380    1.398   .     A
C378   N411    1.428   .     S
C378   C388    1.407   .     A
C379   C381    1.405   .     A
C380   C382    1.403   .     A
C381   C417    1.453   .     S
C381   C383    1.421   .     A
C382   C419    1.452   .     S
C382   C384    1.418   .     A
C383   C389    1.422   .     A
C383   C385    1.429   .     A
C384   C386    1.429   .     A
C384   C390    1.422   .     A
C385   C387    1.415   .     A
C385   C1466   1.420   .     S
C386   C388    1.416   .     A
C386   C1465   1.420   1_554 S
C389   N421    1.423   .     S
C389   C1443   1.390   .     S
C390   N427    1.424   .     S
C390   C1444   1.386   1_554 S
Cu391  O403    1.967   .     S
Cu391  O397    1.993   .     S
Cu391  O401    1.962   .     S
Cu391  Cu392   2.737   .     S
Cu391  O399    1.995   .     S
Cu391  N395    2.057   .     S
Cu392  N396    2.057   .     S
Cu392  O398    1.993   .     S
Cu392  O404    1.967   .     S
Cu392  O400    1.995   .     S
Cu392  O402    1.962   .     S
N405   C407    1.447   .     S
N405   H406    1.030   .     S
C407   H409    1.111   .     S
C407   H408    1.109   .     S
C407   H410    1.110   .     S
N411   H412    1.031   .     S
N411   C413    1.447   .     S
C413   H414    1.110   .     S
C413   H415    1.109   .     S
C413   H416    1.109   .     S
C417   N418    1.158   .     T
C419   N420    1.157   .     T
N421   C423    1.447   .     S
N421   H422    1.032   .     S
C423   H425    1.111   .     S
C423   H426    1.112   .     S
C423   H424    1.110   .     S
N427   H428    1.032   .     S
N427   C429    1.448   .     S
C429   H431    1.111   .     S
C429   H432    1.111   .     S
C429   H430    1.110   .     S
N433   H434    1.030   .     S
N433   C435    1.445   .     S
C435   H436    1.108   .     S
C435   H437    1.107   .     S
C435   H438    1.111   .     S
N439   C441    1.444   .     S
N439   H440    1.030   .     S
C441   H442    1.108   .     S
C441   H443    1.098   .     S
C441   H444    1.103   .     S
N445   C447    1.442   .     S
N445   H446    1.030   .     S
C447   H448    1.105   .     S
C447   H449    1.105   .     S
C447   H450    1.112   .     S
N451   C453    1.445   .     S
N451   H452    1.031   .     S
C453   H454    1.105   .     S
C453   H455    1.106   .     S
C453   H456    1.111   .     S
N457   C459    1.451   .     S
N457   H458    1.031   .     S
C459   H460    1.108   .     S
C459   H462    1.111   .     S
C459   H461    1.110   .     S
N463   C465    1.451   .     S
N463   H464    1.030   .     S
C465   H467    1.111   .     S
C465   H468    1.108   .     S
C465   H466    1.108   .     S
N469   H470    1.028   .     S
N469   C471    1.450   .     S
C471   H472    1.110   .     S
C471   H474    1.104   .     S
H473   C831    1.106   .     S
N475   C477    1.446   .     S
N475   H476    1.028   .     S
C477   H479    1.103   .     S
C477   H480    1.110   .     S
C477   H478    1.111   .     S
C481   O520    1.316   .     A
C481   O517    1.312   .     A
C481   C490    1.477   .     S
C482   O519    1.313   .     A
C482   O518    1.317   .     A
C482   C489    1.481   .     S
C483   H513    1.080   .     S
C483   C508    1.399   .     A
C483   C1589   1.390   1_554 S
C484   C507    1.398   .     A
C484   H514    1.080   .     S
C484   C1590   1.386   .     S
C485   C490    1.414   .     A
C485   N553    1.424   .     S
C486   C489    1.420   .     A
C486   N559    1.426   .     S
C486   C608    1.401   .     S
C487   C489    1.413   .     A
C487   N565    1.423   .     S
C487   C605    1.397   .     S
C488   N571    1.426   .     S
C488   C490    1.416   .     A
C491   N516    1.383   .     A
C491   N577    1.419   .     S
C492   N515    1.387   .     A
C492   N583    1.421   .     S
C492   C853    1.439   .     S
C493   N589    1.437   .     S
C493   N516    1.382   .     A
C494   N595    1.420   .     S
C494   N515    1.381   .     A
C494   C851    1.428   .     S
C495   O524    1.305   .     A
C495   C500    1.451   .     S
C495   O521    1.306   .     A
C496   O523    1.309   .     A
C496   O522    1.305   .     A
C496   C499    1.455   .     S
C497   C507    1.405   .     A
C497   N525    1.427   .     S
C497   C499    1.397   .     A
C498   C500    1.398   .     A
C498   N531    1.428   .     S
C498   C508    1.407   .     A
C499   C501    1.405   .     A
C500   C502    1.403   .     A
C501   C537    1.453   .     S
C501   C503    1.421   .     A
C502   C539    1.452   .     S
C502   C504    1.418   .     A
C503   C509    1.422   .     A
C503   C505    1.429   .     A
C504   C506    1.429   .     A
C504   C510    1.422   .     A
C505   C507    1.415   .     A
C505   C1586   1.420   .     S
C506   C508    1.416   .     A
C506   C1585   1.420   1_554 S
C509   N541    1.423   .     S
C509   C1563   1.390   .     S
C510   N547    1.424   .     S
C510   C1564   1.386   1_554 S
Cu511  O523    1.967   .     S
Cu511  O517    1.993   .     S
Cu511  O521    1.962   .     S
Cu511  Cu512   2.737   .     S
Cu511  O519    1.995   .     S
Cu511  N515    2.057   .     S
Cu512  N516    2.057   .     S
Cu512  O518    1.993   .     S
Cu512  O524    1.967   .     S
Cu512  O520    1.995   .     S
Cu512  O522    1.962   .     S
N525   C527    1.447   .     S
N525   H526    1.030   .     S
C527   H529    1.111   .     S
C527   H528    1.109   .     S
C527   H530    1.110   .     S
N531   H532    1.031   .     S
N531   C533    1.447   .     S
C533   H534    1.110   .     S
C533   H535    1.109   .     S
C533   H536    1.109   .     S
C537   N538    1.158   .     T
C539   N540    1.157   .     T
N541   C543    1.447   .     S
N541   H542    1.032   .     S
C543   H545    1.111   .     S
C543   H546    1.112   .     S
C543   H544    1.110   .     S
N547   H548    1.032   .     S
N547   C549    1.448   .     S
C549   H551    1.111   .     S
C549   H552    1.111   .     S
C549   H550    1.110   .     S
N553   H554    1.030   .     S
N553   C555    1.445   .     S
C555   H556    1.108   .     S
C555   H557    1.107   .     S
C555   H558    1.111   .     S
N559   C561    1.444   .     S
N559   H560    1.030   .     S
C561   H562    1.108   .     S
C561   H563    1.098   .     S
C561   H564    1.103   .     S
N565   C567    1.442   .     S
N565   H566    1.030   .     S
C567   H568    1.105   .     S
C567   H569    1.105   .     S
C567   H570    1.112   .     S
N571   C573    1.445   .     S
N571   H572    1.031   .     S
C573   H574    1.105   .     S
C573   H575    1.106   .     S
C573   H576    1.111   .     S
N577   C579    1.451   .     S
N577   H578    1.031   .     S
C579   H580    1.108   .     S
C579   H582    1.111   .     S
C579   H581    1.110   .     S
N583   C585    1.451   .     S
N583   H584    1.030   .     S
C585   H587    1.111   .     S
C585   H588    1.108   .     S
C585   H586    1.108   .     S
N589   H590    1.028   .     S
N589   C591    1.450   .     S
C591   H592    1.110   .     S
C591   H594    1.104   .     S
H593   C951    1.106   .     S
N595   C597    1.446   .     S
N595   H596    1.028   .     S
C597   H599    1.103   .     S
C597   H600    1.110   .     S
C597   H598    1.111   .     S
C601   O640    1.316   .     A
C601   O637    1.312   .     A
C601   C610    1.477   .     S
C602   O639    1.313   .     A
C602   O638    1.317   .     A
C602   C609    1.481   .     S
C603   H633    1.080   .     S
C603   C628    1.399   .     A
C603   C1709   1.390   1_554 S
C604   C627    1.398   .     A
C604   H634    1.080   .     S
C604   C1710   1.386   .     S
C605   C610    1.414   .     A
C605   N673    1.424   .     S
C606   C609    1.420   .     A
C606   N679    1.426   .     S
C606   C368    1.401   1_655 S
C607   C609    1.413   .     A
C607   N685    1.423   .     S
C607   C365    1.397   1_655 S
C608   N691    1.426   .     S
C608   C610    1.416   .     A
C611   N636    1.383   .     A
C611   N697    1.419   .     S
C612   N635    1.387   .     A
C612   N703    1.421   .     S
C612   C973    1.439   .     S
C613   N709    1.437   .     S
C613   N636    1.382   .     A
C614   N715    1.420   .     S
C614   N635    1.381   .     A
C614   C971    1.428   .     S
C615   O644    1.305   .     A
C615   C620    1.451   .     S
C615   O641    1.306   .     A
C616   O643    1.309   .     A
C616   O642    1.305   .     A
C616   C619    1.455   .     S
C617   C627    1.405   .     A
C617   N645    1.427   .     S
C617   C619    1.397   .     A
C618   C620    1.398   .     A
C618   N651    1.428   .     S
C618   C628    1.407   .     A
C619   C621    1.405   .     A
C620   C622    1.403   .     A
C621   C657    1.453   .     S
C621   C623    1.421   .     A
C622   C659    1.452   .     S
C622   C624    1.418   .     A
C623   C629    1.422   .     A
C623   C625    1.429   .     A
C624   C626    1.429   .     A
C624   C630    1.422   .     A
C625   C627    1.415   .     A
C625   C1706   1.420   .     S
C626   C628    1.416   .     A
C626   C1705   1.420   1_554 S
C629   N661    1.423   .     S
C629   C1683   1.390   .     S
C630   N667    1.424   .     S
C630   C1684   1.386   1_554 S
Cu631  O643    1.967   .     S
Cu631  O637    1.993   .     S
Cu631  O641    1.962   .     S
Cu631  Cu632   2.737   .     S
Cu631  O639    1.995   .     S
Cu631  N635    2.057   .     S
Cu632  N636    2.057   .     S
Cu632  O638    1.993   .     S
Cu632  O644    1.967   .     S
Cu632  O640    1.995   .     S
Cu632  O642    1.962   .     S
N645   C647    1.447   .     S
N645   H646    1.030   .     S
C647   H649    1.111   .     S
C647   H648    1.109   .     S
C647   H650    1.110   .     S
N651   H652    1.031   .     S
N651   C653    1.447   .     S
C653   H654    1.110   .     S
C653   H655    1.109   .     S
C653   H656    1.109   .     S
C657   N658    1.158   .     T
C659   N660    1.157   .     T
N661   C663    1.447   .     S
N661   H662    1.032   .     S
C663   H665    1.111   .     S
C663   H666    1.112   .     S
C663   H664    1.110   .     S
N667   H668    1.032   .     S
N667   C669    1.448   .     S
C669   H671    1.111   .     S
C669   H672    1.111   .     S
C669   H670    1.110   .     S
N673   H674    1.030   .     S
N673   C675    1.445   .     S
C675   H676    1.108   .     S
C675   H677    1.107   .     S
C675   H678    1.111   .     S
N679   C681    1.444   .     S
N679   H680    1.030   .     S
C681   H682    1.108   .     S
C681   H683    1.098   .     S
C681   H684    1.103   .     S
N685   C687    1.442   .     S
N685   H686    1.030   .     S
C687   H688    1.105   .     S
C687   H689    1.105   .     S
C687   H690    1.112   .     S
N691   C693    1.445   .     S
N691   H692    1.031   .     S
C693   H694    1.105   .     S
C693   H695    1.106   .     S
C693   H696    1.111   .     S
N697   C699    1.451   .     S
N697   H698    1.031   .     S
C699   H700    1.108   .     S
C699   H702    1.111   .     S
C699   H701    1.110   .     S
N703   C705    1.451   .     S
N703   H704    1.030   .     S
C705   H707    1.111   .     S
C705   H708    1.108   .     S
C705   H706    1.108   .     S
N709   H710    1.028   .     S
N709   C711    1.450   .     S
C711   H712    1.110   .     S
C711   H714    1.104   .     S
H713   C1071   1.106   .     S
N715   C717    1.446   .     S
N715   H716    1.028   .     S
C717   H719    1.103   .     S
C717   H720    1.110   .     S
C717   H718    1.111   .     S
C721   O760    1.316   .     A
C721   O757    1.312   .     A
C721   C730    1.477   .     S
C722   O759    1.313   .     A
C722   O758    1.317   .     A
C722   C729    1.481   .     S
C723   H753    1.080   .     S
C723   C748    1.399   .     A
C723   C1829   1.390   1_554 S
C724   C747    1.398   .     A
C724   H754    1.080   .     S
C724   C1830   1.386   .     S
C725   C730    1.414   .     A
C725   N793    1.424   .     S
C725   C967    1.397   1_455 S
C726   C729    1.420   .     A
C726   N799    1.426   .     S
C726   C848    1.401   .     S
C727   C729    1.413   .     A
C727   N805    1.423   .     S
C727   C845    1.397   .     S
C728   N811    1.426   .     S
C728   C730    1.416   .     A
C728   C966    1.401   1_455 S
C731   N756    1.383   .     A
C731   N817    1.419   .     S
C732   N755    1.387   .     A
C732   N823    1.421   .     S
C732   C13     1.439   1_565 S
C733   N829    1.437   .     S
C733   N756    1.382   .     A
C734   N835    1.420   .     S
C734   N755    1.381   .     A
C734   C11     1.428   1_565 S
C735   O764    1.305   .     A
C735   C740    1.451   .     S
C735   O761    1.306   .     A
C736   O763    1.309   .     A
C736   O762    1.305   .     A
C736   C739    1.455   .     S
C737   C747    1.405   .     A
C737   N765    1.427   .     S
C737   C739    1.397   .     A
C738   C740    1.398   .     A
C738   N771    1.428   .     S
C738   C748    1.407   .     A
C739   C741    1.405   .     A
C740   C742    1.403   .     A
C741   C777    1.453   .     S
C741   C743    1.421   .     A
C742   C779    1.452   .     S
C742   C744    1.418   .     A
C743   C749    1.422   .     A
C743   C745    1.429   .     A
C744   C746    1.429   .     A
C744   C750    1.422   .     A
C745   C747    1.415   .     A
C745   C1826   1.420   .     S
C746   C748    1.416   .     A
C746   C1825   1.420   1_554 S
C749   N781    1.423   .     S
C749   C1803   1.390   .     S
C750   N787    1.424   .     S
C750   C1804   1.386   1_554 S
Cu751  O763    1.967   .     S
Cu751  O757    1.993   .     S
Cu751  O761    1.962   .     S
Cu751  Cu752   2.737   .     S
Cu751  O759    1.995   .     S
Cu751  N755    2.057   .     S
Cu752  N756    2.057   .     S
Cu752  O758    1.993   .     S
Cu752  O764    1.967   .     S
Cu752  O760    1.995   .     S
Cu752  O762    1.962   .     S
N765   C767    1.447   .     S
N765   H766    1.030   .     S
C767   H769    1.111   .     S
C767   H768    1.109   .     S
C767   H770    1.110   .     S
N771   H772    1.031   .     S
N771   C773    1.447   .     S
C773   H774    1.110   .     S
C773   H775    1.109   .     S
C773   H776    1.109   .     S
C777   N778    1.158   .     T
C779   N780    1.157   .     T
N781   C783    1.447   .     S
N781   H782    1.032   .     S
C783   H785    1.111   .     S
C783   H786    1.112   .     S
C783   H784    1.110   .     S
N787   H788    1.032   .     S
N787   C789    1.448   .     S
C789   H791    1.111   .     S
C789   H792    1.111   .     S
C789   H790    1.110   .     S
N793   H794    1.030   .     S
N793   C795    1.445   .     S
C795   H796    1.108   .     S
C795   H797    1.107   .     S
C795   H798    1.111   .     S
N799   C801    1.444   .     S
N799   H800    1.030   .     S
C801   H802    1.108   .     S
C801   H803    1.098   .     S
C801   H804    1.103   .     S
N805   C807    1.442   .     S
N805   H806    1.030   .     S
C807   H808    1.105   .     S
C807   H809    1.105   .     S
C807   H810    1.112   .     S
N811   C813    1.445   .     S
N811   H812    1.031   .     S
C813   H814    1.105   .     S
C813   H815    1.106   .     S
C813   H816    1.111   .     S
N817   C819    1.451   .     S
N817   H818    1.031   .     S
C819   H820    1.108   .     S
C819   H822    1.111   .     S
C819   H821    1.110   .     S
N823   C825    1.451   .     S
N823   H824    1.030   .     S
C825   H827    1.111   .     S
C825   H828    1.108   .     S
C825   H826    1.108   .     S
N829   H830    1.028   .     S
N829   C831    1.450   .     S
C831   H832    1.110   .     S
C831   H834    1.104   .     S
H833   C111    1.106   1_565 S
N835   C837    1.446   .     S
N835   H836    1.028   .     S
C837   H839    1.103   .     S
C837   H840    1.110   .     S
C837   H838    1.111   .     S
C841   O880    1.316   .     A
C841   O877    1.312   .     A
C841   C850    1.477   .     S
C842   O879    1.313   .     A
C842   O878    1.317   .     A
C842   C849    1.481   .     S
C843   H873    1.080   .     S
C843   C868    1.399   .     A
C843   C1949   1.390   1_554 S
C844   C867    1.398   .     A
C844   H874    1.080   .     S
C844   C1950   1.386   .     S
C845   C850    1.414   .     A
C845   N913    1.424   .     S
C846   C849    1.420   .     A
C846   N919    1.426   .     S
C846   C968    1.401   .     S
C847   C849    1.413   .     A
C847   N925    1.423   .     S
C847   C965    1.397   .     S
C848   N931    1.426   .     S
C848   C850    1.416   .     A
C851   N876    1.383   .     A
C851   N937    1.419   .     S
C852   N875    1.387   .     A
C852   N943    1.421   .     S
C852   C133    1.439   1_565 S
C853   N949    1.437   .     S
C853   N876    1.382   .     A
C854   N955    1.420   .     S
C854   N875    1.381   .     A
C854   C131    1.428   1_565 S
C855   O884    1.305   .     A
C855   C860    1.451   .     S
C855   O881    1.306   .     A
C856   O883    1.309   .     A
C856   O882    1.305   .     A
C856   C859    1.455   .     S
C857   C867    1.405   .     A
C857   N885    1.427   .     S
C857   C859    1.397   .     A
C858   C860    1.398   .     A
C858   N891    1.428   .     S
C858   C868    1.407   .     A
C859   C861    1.405   .     A
C860   C862    1.403   .     A
C861   C897    1.453   .     S
C861   C863    1.421   .     A
C862   C899    1.452   .     S
C862   C864    1.418   .     A
C863   C869    1.422   .     A
C863   C865    1.429   .     A
C864   C866    1.429   .     A
C864   C870    1.422   .     A
C865   C867    1.415   .     A
C865   C1946   1.420   .     S
C866   C868    1.416   .     A
C866   C1945   1.420   1_554 S
C869   N901    1.423   .     S
C869   C1923   1.390   .     S
C870   N907    1.424   .     S
C870   C1924   1.386   1_554 S
Cu871  O883    1.967   .     S
Cu871  O877    1.993   .     S
Cu871  O881    1.962   .     S
Cu871  Cu872   2.737   .     S
Cu871  O879    1.995   .     S
Cu871  N875    2.057   .     S
Cu872  N876    2.057   .     S
Cu872  O878    1.993   .     S
Cu872  O884    1.967   .     S
Cu872  O880    1.995   .     S
Cu872  O882    1.962   .     S
N885   C887    1.447   .     S
N885   H886    1.030   .     S
C887   H889    1.111   .     S
C887   H888    1.109   .     S
C887   H890    1.110   .     S
N891   H892    1.031   .     S
N891   C893    1.447   .     S
C893   H894    1.110   .     S
C893   H895    1.109   .     S
C893   H896    1.109   .     S
C897   N898    1.158   .     T
C899   N900    1.157   .     T
N901   C903    1.447   .     S
N901   H902    1.032   .     S
C903   H905    1.111   .     S
C903   H906    1.112   .     S
C903   H904    1.110   .     S
N907   H908    1.032   .     S
N907   C909    1.448   .     S
C909   H911    1.111   .     S
C909   H912    1.111   .     S
C909   H910    1.110   .     S
N913   H914    1.030   .     S
N913   C915    1.445   .     S
C915   H916    1.108   .     S
C915   H917    1.107   .     S
C915   H918    1.111   .     S
N919   C921    1.444   .     S
N919   H920    1.030   .     S
C921   H922    1.108   .     S
C921   H923    1.098   .     S
C921   H924    1.103   .     S
N925   C927    1.442   .     S
N925   H926    1.030   .     S
C927   H928    1.105   .     S
C927   H929    1.105   .     S
C927   H930    1.112   .     S
N931   C933    1.445   .     S
N931   H932    1.031   .     S
C933   H934    1.105   .     S
C933   H935    1.106   .     S
C933   H936    1.111   .     S
N937   C939    1.451   .     S
N937   H938    1.031   .     S
C939   H940    1.108   .     S
C939   H942    1.111   .     S
C939   H941    1.110   .     S
N943   C945    1.451   .     S
N943   H944    1.030   .     S
C945   H947    1.111   .     S
C945   H948    1.108   .     S
C945   H946    1.108   .     S
N949   H950    1.028   .     S
N949   C951    1.450   .     S
C951   H952    1.110   .     S
C951   H954    1.104   .     S
H953   C231    1.106   1_565 S
N955   C957    1.446   .     S
N955   H956    1.028   .     S
C957   H959    1.103   .     S
C957   H960    1.110   .     S
C957   H958    1.111   .     S
C961   O1000   1.316   .     A
C961   O997    1.312   .     A
C961   C970    1.477   .     S
C962   O999    1.313   .     A
C962   O998    1.317   .     A
C962   C969    1.481   .     S
C963   H993    1.080   .     S
C963   C988    1.399   .     A
C963   C2069   1.390   1_554 S
C964   C987    1.398   .     A
C964   H994    1.080   .     S
C964   C2070   1.386   .     S
C965   C970    1.414   .     A
C965   N1033   1.424   .     S
C966   C969    1.420   .     A
C966   N1039   1.426   .     S
C966   C728    1.401   1_655 S
C967   C969    1.413   .     A
C967   N1045   1.423   .     S
C967   C725    1.397   1_655 S
C968   N1051   1.426   .     S
C968   C970    1.416   .     A
C971   N996    1.383   .     A
C971   N1057   1.419   .     S
C972   N995    1.387   .     A
C972   N1063   1.421   .     S
C972   C253    1.439   1_565 S
C973   N1069   1.437   .     S
C973   N996    1.382   .     A
C974   N1075   1.420   .     S
C974   N995    1.381   .     A
C974   C251    1.428   1_565 S
C975   O1004   1.305   .     A
C975   C980    1.451   .     S
C975   O1001   1.306   .     A
C976   O1003   1.309   .     A
C976   O1002   1.305   .     A
C976   C979    1.455   .     S
C977   C987    1.405   .     A
C977   N1005   1.427   .     S
C977   C979    1.397   .     A
C978   C980    1.398   .     A
C978   N1011   1.428   .     S
C978   C988    1.407   .     A
C979   C981    1.405   .     A
C980   C982    1.403   .     A
C981   C1017   1.453   .     S
C981   C983    1.421   .     A
C982   C1019   1.452   .     S
C982   C984    1.418   .     A
C983   C989    1.422   .     A
C983   C985    1.429   .     A
C984   C986    1.429   .     A
C984   C990    1.422   .     A
C985   C987    1.415   .     A
C985   C2066   1.420   .     S
C986   C988    1.416   .     A
C986   C2065   1.420   1_554 S
C989   N1021   1.423   .     S
C989   C2043   1.390   .     S
C990   N1027   1.424   .     S
C990   C2044   1.386   1_554 S
Cu991  O1003   1.967   .     S
Cu991  O997    1.993   .     S
Cu991  O1001   1.962   .     S
Cu991  Cu992   2.737   .     S
Cu991  O999    1.995   .     S
Cu991  N995    2.057   .     S
Cu992  N996    2.057   .     S
Cu992  O998    1.993   .     S
Cu992  O1004   1.967   .     S
Cu992  O1000   1.995   .     S
Cu992  O1002   1.962   .     S
N1005  C1007   1.447   .     S
N1005  H1006   1.030   .     S
C1007  H1009   1.111   .     S
C1007  H1008   1.109   .     S
C1007  H1010   1.110   .     S
N1011  H1012   1.031   .     S
N1011  C1013   1.447   .     S
C1013  H1014   1.110   .     S
C1013  H1015   1.109   .     S
C1013  H1016   1.109   .     S
C1017  N1018   1.158   .     T
C1019  N1020   1.157   .     T
N1021  C1023   1.447   .     S
N1021  H1022   1.032   .     S
C1023  H1025   1.111   .     S
C1023  H1026   1.112   .     S
C1023  H1024   1.110   .     S
N1027  H1028   1.032   .     S
N1027  C1029   1.448   .     S
C1029  H1031   1.111   .     S
C1029  H1032   1.111   .     S
C1029  H1030   1.110   .     S
N1033  H1034   1.030   .     S
N1033  C1035   1.445   .     S
C1035  H1036   1.108   .     S
C1035  H1037   1.107   .     S
C1035  H1038   1.111   .     S
N1039  C1041   1.444   .     S
N1039  H1040   1.030   .     S
C1041  H1042   1.108   .     S
C1041  H1043   1.098   .     S
C1041  H1044   1.103   .     S
N1045  C1047   1.442   .     S
N1045  H1046   1.030   .     S
C1047  H1048   1.105   .     S
C1047  H1049   1.105   .     S
C1047  H1050   1.112   .     S
N1051  C1053   1.445   .     S
N1051  H1052   1.031   .     S
C1053  H1054   1.105   .     S
C1053  H1055   1.106   .     S
C1053  H1056   1.111   .     S
N1057  C1059   1.451   .     S
N1057  H1058   1.031   .     S
C1059  H1060   1.108   .     S
C1059  H1062   1.111   .     S
C1059  H1061   1.110   .     S
N1063  C1065   1.451   .     S
N1063  H1064   1.030   .     S
C1065  H1067   1.111   .     S
C1065  H1068   1.108   .     S
C1065  H1066   1.108   .     S
N1069  H1070   1.028   .     S
N1069  C1071   1.450   .     S
C1071  H1072   1.110   .     S
C1071  H1074   1.104   .     S
H1073  C351    1.106   1_565 S
N1075  C1077   1.446   .     S
N1075  H1076   1.028   .     S
C1077  H1079   1.103   .     S
C1077  H1080   1.110   .     S
C1077  H1078   1.111   .     S
C1081  O1120   1.316   .     A
C1081  O1117   1.312   .     A
C1081  C1090   1.477   .     S
C1082  O1119   1.313   .     A
C1082  O1118   1.317   .     A
C1082  C1089   1.481   .     S
C1083  H1113   1.080   .     S
C1083  C1108   1.399   .     A
C1084  C1107   1.398   .     A
C1084  H1114   1.080   .     S
C1084  C30     1.386   1_556 S
C1085  C1090   1.414   .     A
C1085  N1153   1.424   .     S
C1085  C1327   1.397   1_455 S
C1086  C1089   1.420   .     A
C1086  N1159   1.426   .     S
C1086  C1208   1.401   .     S
C1087  C1089   1.413   .     A
C1087  N1165   1.423   .     S
C1087  C1205   1.397   .     S
C1088  N1171   1.426   .     S
C1088  C1090   1.416   .     A
C1088  C1326   1.401   1_455 S
C1091  N1116   1.383   .     A
C1091  N1177   1.419   .     S
C1091  C1814   1.428   1_545 S
C1092  N1115   1.387   .     A
C1092  N1183   1.421   .     S
C1092  C1453   1.439   .     S
C1093  N1189   1.437   .     S
C1093  N1116   1.382   .     A
C1093  C1812   1.439   1_545 S
C1094  N1195   1.420   .     S
C1094  N1115   1.381   .     A
C1094  C1451   1.428   .     S
C1095  O1124   1.305   .     A
C1095  C1100   1.451   .     S
C1095  O1121   1.306   .     A
C1096  O1123   1.309   .     A
C1096  O1122   1.305   .     A
C1096  C1099   1.455   .     S
C1097  C1107   1.405   .     A
C1097  N1125   1.427   .     S
C1097  C1099   1.397   .     A
C1098  C1100   1.398   .     A
C1098  N1131   1.428   .     S
C1098  C1108   1.407   .     A
C1099  C1101   1.405   .     A
C1100  C1102   1.403   .     A
C1101  C1137   1.453   .     S
C1101  C1103   1.421   .     A
C1102  C1139   1.452   .     S
C1102  C1104   1.418   .     A
C1103  C1109   1.422   .     A
C1103  C1105   1.429   .     A
C1104  C1106   1.429   .     A
C1104  C1110   1.422   .     A
C1105  C1107   1.415   .     A
C1105  C26     1.420   1_556 S
C1106  C1108   1.416   .     A
C1109  N1141   1.423   .     S
C1109  C3      1.390   1_556 S
C1110  N1147   1.424   .     S
Cu1111 O1123   1.967   .     S
Cu1111 O1117   1.993   .     S
Cu1111 O1121   1.962   .     S
Cu1111 Cu1112  2.737   .     S
Cu1111 O1119   1.995   .     S
Cu1111 N1115   2.057   .     S
Cu1112 N1116   2.057   .     S
Cu1112 O1118   1.993   .     S
Cu1112 O1124   1.967   .     S
Cu1112 O1120   1.995   .     S
Cu1112 O1122   1.962   .     S
N1125  C1127   1.447   .     S
N1125  H1126   1.030   .     S
C1127  H1129   1.111   .     S
C1127  H1128   1.109   .     S
C1127  H1130   1.110   .     S
N1131  H1132   1.031   .     S
N1131  C1133   1.447   .     S
C1133  H1134   1.110   .     S
C1133  H1135   1.109   .     S
C1133  H1136   1.109   .     S
C1137  N1138   1.158   .     T
C1139  N1140   1.157   .     T
N1141  C1143   1.447   .     S
N1141  H1142   1.032   .     S
C1143  H1145   1.111   .     S
C1143  H1146   1.112   .     S
C1143  H1144   1.110   .     S
N1147  H1148   1.032   .     S
N1147  C1149   1.448   .     S
C1149  H1151   1.111   .     S
C1149  H1152   1.111   .     S
C1149  H1150   1.110   .     S
N1153  H1154   1.030   .     S
N1153  C1155   1.445   .     S
C1155  H1156   1.108   .     S
C1155  H1157   1.107   .     S
C1155  H1158   1.111   .     S
N1159  C1161   1.444   .     S
N1159  H1160   1.030   .     S
C1161  H1162   1.108   .     S
C1161  H1163   1.098   .     S
C1161  H1164   1.103   .     S
N1165  C1167   1.442   .     S
N1165  H1166   1.030   .     S
C1167  H1168   1.105   .     S
C1167  H1169   1.105   .     S
C1167  H1170   1.112   .     S
N1171  C1173   1.445   .     S
N1171  H1172   1.031   .     S
C1173  H1174   1.105   .     S
C1173  H1175   1.106   .     S
C1173  H1176   1.111   .     S
N1177  C1179   1.451   .     S
N1177  H1178   1.031   .     S
C1179  H1180   1.108   .     S
C1179  H1182   1.111   .     S
C1179  H1181   1.110   .     S
N1183  C1185   1.451   .     S
N1183  H1184   1.030   .     S
C1185  H1187   1.111   .     S
C1185  H1188   1.108   .     S
C1185  H1186   1.108   .     S
N1189  H1190   1.028   .     S
N1189  C1191   1.450   .     S
C1191  H1192   1.110   .     S
C1191  H1194   1.104   .     S
C1191  H1913   1.106   1_545 S
H1193  C1551   1.106   .     S
N1195  C1197   1.446   .     S
N1195  H1196   1.028   .     S
C1197  H1199   1.103   .     S
C1197  H1200   1.110   .     S
C1197  H1198   1.111   .     S
C1201  O1240   1.316   .     A
C1201  O1237   1.312   .     A
C1201  C1210   1.477   .     S
C1202  O1239   1.313   .     A
C1202  O1238   1.317   .     A
C1202  C1209   1.481   .     S
C1203  H1233   1.080   .     S
C1203  C1228   1.399   .     A
C1204  C1227   1.398   .     A
C1204  H1234   1.080   .     S
C1204  C150    1.386   1_556 S
C1205  C1210   1.414   .     A
C1205  N1273   1.424   .     S
C1206  C1209   1.420   .     A
C1206  N1279   1.426   .     S
C1206  C1328   1.401   .     S
C1207  C1209   1.413   .     A
C1207  N1285   1.423   .     S
C1207  C1325   1.397   .     S
C1208  N1291   1.426   .     S
C1208  C1210   1.416   .     A
C1211  N1236   1.383   .     A
C1211  N1297   1.419   .     S
C1211  C1934   1.428   1_545 S
C1212  N1235   1.387   .     A
C1212  N1303   1.421   .     S
C1212  C1573   1.439   .     S
C1213  N1309   1.437   .     S
C1213  N1236   1.382   .     A
C1213  C1932   1.439   1_545 S
C1214  N1315   1.420   .     S
C1214  N1235   1.381   .     A
C1214  C1571   1.428   .     S
C1215  O1244   1.305   .     A
C1215  C1220   1.451   .     S
C1215  O1241   1.306   .     A
C1216  O1243   1.309   .     A
C1216  O1242   1.305   .     A
C1216  C1219   1.455   .     S
C1217  C1227   1.405   .     A
C1217  N1245   1.427   .     S
C1217  C1219   1.397   .     A
C1218  C1220   1.398   .     A
C1218  N1251   1.428   .     S
C1218  C1228   1.407   .     A
C1219  C1221   1.405   .     A
C1220  C1222   1.403   .     A
C1221  C1257   1.453   .     S
C1221  C1223   1.421   .     A
C1222  C1259   1.452   .     S
C1222  C1224   1.418   .     A
C1223  C1229   1.422   .     A
C1223  C1225   1.429   .     A
C1224  C1226   1.429   .     A
C1224  C1230   1.422   .     A
C1225  C1227   1.415   .     A
C1225  C146    1.420   1_556 S
C1226  C1228   1.416   .     A
C1229  N1261   1.423   .     S
C1229  C123    1.390   1_556 S
C1230  N1267   1.424   .     S
Cu1231 O1243   1.967   .     S
Cu1231 O1237   1.993   .     S
Cu1231 O1241   1.962   .     S
Cu1231 Cu1232  2.737   .     S
Cu1231 O1239   1.995   .     S
Cu1231 N1235   2.057   .     S
Cu1232 N1236   2.057   .     S
Cu1232 O1238   1.993   .     S
Cu1232 O1244   1.967   .     S
Cu1232 O1240   1.995   .     S
Cu1232 O1242   1.962   .     S
N1245  C1247   1.447   .     S
N1245  H1246   1.030   .     S
C1247  H1249   1.111   .     S
C1247  H1248   1.109   .     S
C1247  H1250   1.110   .     S
N1251  H1252   1.031   .     S
N1251  C1253   1.447   .     S
C1253  H1254   1.110   .     S
C1253  H1255   1.109   .     S
C1253  H1256   1.109   .     S
C1257  N1258   1.158   .     T
C1259  N1260   1.157   .     T
N1261  C1263   1.447   .     S
N1261  H1262   1.032   .     S
C1263  H1265   1.111   .     S
C1263  H1266   1.112   .     S
C1263  H1264   1.110   .     S
N1267  H1268   1.032   .     S
N1267  C1269   1.448   .     S
C1269  H1271   1.111   .     S
C1269  H1272   1.111   .     S
C1269  H1270   1.110   .     S
N1273  H1274   1.030   .     S
N1273  C1275   1.445   .     S
C1275  H1276   1.108   .     S
C1275  H1277   1.107   .     S
C1275  H1278   1.111   .     S
N1279  C1281   1.444   .     S
N1279  H1280   1.030   .     S
C1281  H1282   1.108   .     S
C1281  H1283   1.098   .     S
C1281  H1284   1.103   .     S
N1285  C1287   1.442   .     S
N1285  H1286   1.030   .     S
C1287  H1288   1.105   .     S
C1287  H1289   1.105   .     S
C1287  H1290   1.112   .     S
N1291  C1293   1.445   .     S
N1291  H1292   1.031   .     S
C1293  H1294   1.105   .     S
C1293  H1295   1.106   .     S
C1293  H1296   1.111   .     S
N1297  C1299   1.451   .     S
N1297  H1298   1.031   .     S
C1299  H1300   1.108   .     S
C1299  H1302   1.111   .     S
C1299  H1301   1.110   .     S
N1303  C1305   1.451   .     S
N1303  H1304   1.030   .     S
C1305  H1307   1.111   .     S
C1305  H1308   1.108   .     S
C1305  H1306   1.108   .     S
N1309  H1310   1.028   .     S
N1309  C1311   1.450   .     S
C1311  H1312   1.110   .     S
C1311  H1314   1.104   .     S
C1311  H2033   1.106   1_545 S
H1313  C1671   1.106   .     S
N1315  C1317   1.446   .     S
N1315  H1316   1.028   .     S
C1317  H1319   1.103   .     S
C1317  H1320   1.110   .     S
C1317  H1318   1.111   .     S
C1321  O1360   1.316   .     A
C1321  O1357   1.312   .     A
C1321  C1330   1.477   .     S
C1322  O1359   1.313   .     A
C1322  O1358   1.317   .     A
C1322  C1329   1.481   .     S
C1323  H1353   1.080   .     S
C1323  C1348   1.399   .     A
C1324  C1347   1.398   .     A
C1324  H1354   1.080   .     S
C1324  C270    1.386   1_556 S
C1325  C1330   1.414   .     A
C1325  N1393   1.424   .     S
C1326  C1329   1.420   .     A
C1326  N1399   1.426   .     S
C1326  C1088   1.401   1_655 S
C1327  C1329   1.413   .     A
C1327  N1405   1.423   .     S
C1327  C1085   1.397   1_655 S
C1328  N1411   1.426   .     S
C1328  C1330   1.416   .     A
C1331  N1356   1.383   .     A
C1331  N1417   1.419   .     S
C1331  C2054   1.428   1_545 S
C1332  N1355   1.387   .     A
C1332  N1423   1.421   .     S
C1332  C1693   1.439   .     S
C1333  N1429   1.437   .     S
C1333  N1356   1.382   .     A
C1333  C2052   1.439   1_545 S
C1334  N1435   1.420   .     S
C1334  N1355   1.381   .     A
C1334  C1691   1.428   .     S
C1335  O1364   1.305   .     A
C1335  C1340   1.451   .     S
C1335  O1361   1.306   .     A
C1336  O1363   1.309   .     A
C1336  O1362   1.305   .     A
C1336  C1339   1.455   .     S
C1337  C1347   1.405   .     A
C1337  N1365   1.427   .     S
C1337  C1339   1.397   .     A
C1338  C1340   1.398   .     A
C1338  N1371   1.428   .     S
C1338  C1348   1.407   .     A
C1339  C1341   1.405   .     A
C1340  C1342   1.403   .     A
C1341  C1377   1.453   .     S
C1341  C1343   1.421   .     A
C1342  C1379   1.452   .     S
C1342  C1344   1.418   .     A
C1343  C1349   1.422   .     A
C1343  C1345   1.429   .     A
C1344  C1346   1.429   .     A
C1344  C1350   1.422   .     A
C1345  C1347   1.415   .     A
C1345  C266    1.420   1_556 S
C1346  C1348   1.416   .     A
C1349  N1381   1.423   .     S
C1349  C243    1.390   1_556 S
C1350  N1387   1.424   .     S
Cu1351 O1363   1.967   .     S
Cu1351 O1357   1.993   .     S
Cu1351 O1361   1.962   .     S
Cu1351 Cu1352  2.737   .     S
Cu1351 O1359   1.995   .     S
Cu1351 N1355   2.057   .     S
Cu1352 N1356   2.057   .     S
Cu1352 O1358   1.993   .     S
Cu1352 O1364   1.967   .     S
Cu1352 O1360   1.995   .     S
Cu1352 O1362   1.962   .     S
N1365  C1367   1.447   .     S
N1365  H1366   1.030   .     S
C1367  H1369   1.111   .     S
C1367  H1368   1.109   .     S
C1367  H1370   1.110   .     S
N1371  H1372   1.031   .     S
N1371  C1373   1.447   .     S
C1373  H1374   1.110   .     S
C1373  H1375   1.109   .     S
C1373  H1376   1.109   .     S
C1377  N1378   1.158   .     T
C1379  N1380   1.157   .     T
N1381  C1383   1.447   .     S
N1381  H1382   1.032   .     S
C1383  H1385   1.111   .     S
C1383  H1386   1.112   .     S
C1383  H1384   1.110   .     S
N1387  H1388   1.032   .     S
N1387  C1389   1.448   .     S
C1389  H1391   1.111   .     S
C1389  H1392   1.111   .     S
C1389  H1390   1.110   .     S
N1393  H1394   1.030   .     S
N1393  C1395   1.445   .     S
C1395  H1396   1.108   .     S
C1395  H1397   1.107   .     S
C1395  H1398   1.111   .     S
N1399  C1401   1.444   .     S
N1399  H1400   1.030   .     S
C1401  H1402   1.108   .     S
C1401  H1403   1.098   .     S
C1401  H1404   1.103   .     S
N1405  C1407   1.442   .     S
N1405  H1406   1.030   .     S
C1407  H1408   1.105   .     S
C1407  H1409   1.105   .     S
C1407  H1410   1.112   .     S
N1411  C1413   1.445   .     S
N1411  H1412   1.031   .     S
C1413  H1414   1.105   .     S
C1413  H1415   1.106   .     S
C1413  H1416   1.111   .     S
N1417  C1419   1.451   .     S
N1417  H1418   1.031   .     S
C1419  H1420   1.108   .     S
C1419  H1422   1.111   .     S
C1419  H1421   1.110   .     S
N1423  C1425   1.451   .     S
N1423  H1424   1.030   .     S
C1425  H1427   1.111   .     S
C1425  H1428   1.108   .     S
C1425  H1426   1.108   .     S
N1429  H1430   1.028   .     S
N1429  C1431   1.450   .     S
C1431  H1432   1.110   .     S
C1431  H1434   1.104   .     S
C1431  H2153   1.106   1_545 S
H1433  C1791   1.106   .     S
N1435  C1437   1.446   .     S
N1435  H1436   1.028   .     S
C1437  H1439   1.103   .     S
C1437  H1440   1.110   .     S
C1437  H1438   1.111   .     S
C1441  O1480   1.316   .     A
C1441  O1477   1.312   .     A
C1441  C1450   1.477   .     S
C1442  O1479   1.313   .     A
C1442  O1478   1.317   .     A
C1442  C1449   1.481   .     S
C1443  H1473   1.080   .     S
C1443  C1468   1.399   .     A
C1444  C1467   1.398   .     A
C1444  H1474   1.080   .     S
C1444  C390    1.386   1_556 S
C1445  C1450   1.414   .     A
C1445  N1513   1.424   .     S
C1445  C1687   1.397   1_455 S
C1446  C1449   1.420   .     A
C1446  N1519   1.426   .     S
C1446  C1568   1.401   .     S
C1447  C1449   1.413   .     A
C1447  N1525   1.423   .     S
C1447  C1565   1.397   .     S
C1448  N1531   1.426   .     S
C1448  C1450   1.416   .     A
C1448  C1686   1.401   1_455 S
C1451  N1476   1.383   .     A
C1451  N1537   1.419   .     S
C1452  N1475   1.387   .     A
C1452  N1543   1.421   .     S
C1452  C1813   1.439   .     S
C1453  N1549   1.437   .     S
C1453  N1476   1.382   .     A
C1454  N1555   1.420   .     S
C1454  N1475   1.381   .     A
C1454  C1811   1.428   .     S
C1455  O1484   1.305   .     A
C1455  C1460   1.451   .     S
C1455  O1481   1.306   .     A
C1456  O1483   1.309   .     A
C1456  O1482   1.305   .     A
C1456  C1459   1.455   .     S
C1457  C1467   1.405   .     A
C1457  N1485   1.427   .     S
C1457  C1459   1.397   .     A
C1458  C1460   1.398   .     A
C1458  N1491   1.428   .     S
C1458  C1468   1.407   .     A
C1459  C1461   1.405   .     A
C1460  C1462   1.403   .     A
C1461  C1497   1.453   .     S
C1461  C1463   1.421   .     A
C1462  C1499   1.452   .     S
C1462  C1464   1.418   .     A
C1463  C1469   1.422   .     A
C1463  C1465   1.429   .     A
C1464  C1466   1.429   .     A
C1464  C1470   1.422   .     A
C1465  C1467   1.415   .     A
C1465  C386    1.420   1_556 S
C1466  C1468   1.416   .     A
C1469  N1501   1.423   .     S
C1469  C363    1.390   1_556 S
C1470  N1507   1.424   .     S
Cu1471 O1483   1.967   .     S
Cu1471 O1477   1.993   .     S
Cu1471 O1481   1.962   .     S
Cu1471 Cu1472  2.737   .     S
Cu1471 O1479   1.995   .     S
Cu1471 N1475   2.057   .     S
Cu1472 N1476   2.057   .     S
Cu1472 O1478   1.993   .     S
Cu1472 O1484   1.967   .     S
Cu1472 O1480   1.995   .     S
Cu1472 O1482   1.962   .     S
N1485  C1487   1.447   .     S
N1485  H1486   1.030   .     S
C1487  H1489   1.111   .     S
C1487  H1488   1.109   .     S
C1487  H1490   1.110   .     S
N1491  H1492   1.031   .     S
N1491  C1493   1.447   .     S
C1493  H1494   1.110   .     S
C1493  H1495   1.109   .     S
C1493  H1496   1.109   .     S
C1497  N1498   1.158   .     T
C1499  N1500   1.157   .     T
N1501  C1503   1.447   .     S
N1501  H1502   1.032   .     S
C1503  H1505   1.111   .     S
C1503  H1506   1.112   .     S
C1503  H1504   1.110   .     S
N1507  H1508   1.032   .     S
N1507  C1509   1.448   .     S
C1509  H1511   1.111   .     S
C1509  H1512   1.111   .     S
C1509  H1510   1.110   .     S
N1513  H1514   1.030   .     S
N1513  C1515   1.445   .     S
C1515  H1516   1.108   .     S
C1515  H1517   1.107   .     S
C1515  H1518   1.111   .     S
N1519  C1521   1.444   .     S
N1519  H1520   1.030   .     S
C1521  H1522   1.108   .     S
C1521  H1523   1.098   .     S
C1521  H1524   1.103   .     S
N1525  C1527   1.442   .     S
N1525  H1526   1.030   .     S
C1527  H1528   1.105   .     S
C1527  H1529   1.105   .     S
C1527  H1530   1.112   .     S
N1531  C1533   1.445   .     S
N1531  H1532   1.031   .     S
C1533  H1534   1.105   .     S
C1533  H1535   1.106   .     S
C1533  H1536   1.111   .     S
N1537  C1539   1.451   .     S
N1537  H1538   1.031   .     S
C1539  H1540   1.108   .     S
C1539  H1542   1.111   .     S
C1539  H1541   1.110   .     S
N1543  C1545   1.451   .     S
N1543  H1544   1.030   .     S
C1545  H1547   1.111   .     S
C1545  H1548   1.108   .     S
C1545  H1546   1.108   .     S
N1549  H1550   1.028   .     S
N1549  C1551   1.450   .     S
C1551  H1552   1.110   .     S
C1551  H1554   1.104   .     S
H1553  C1911   1.106   .     S
N1555  C1557   1.446   .     S
N1555  H1556   1.028   .     S
C1557  H1559   1.103   .     S
C1557  H1560   1.110   .     S
C1557  H1558   1.111   .     S
C1561  O1600   1.316   .     A
C1561  O1597   1.312   .     A
C1561  C1570   1.477   .     S
C1562  O1599   1.313   .     A
C1562  O1598   1.317   .     A
C1562  C1569   1.481   .     S
C1563  H1593   1.080   .     S
C1563  C1588   1.399   .     A
C1564  C1587   1.398   .     A
C1564  H1594   1.080   .     S
C1564  C510    1.386   1_556 S
C1565  C1570   1.414   .     A
C1565  N1633   1.424   .     S
C1566  C1569   1.420   .     A
C1566  N1639   1.426   .     S
C1566  C1688   1.401   .     S
C1567  C1569   1.413   .     A
C1567  N1645   1.423   .     S
C1567  C1685   1.397   .     S
C1568  N1651   1.426   .     S
C1568  C1570   1.416   .     A
C1571  N1596   1.383   .     A
C1571  N1657   1.419   .     S
C1572  N1595   1.387   .     A
C1572  N1663   1.421   .     S
C1572  C1933   1.439   .     S
C1573  N1669   1.437   .     S
C1573  N1596   1.382   .     A
C1574  N1675   1.420   .     S
C1574  N1595   1.381   .     A
C1574  C1931   1.428   .     S
C1575  O1604   1.305   .     A
C1575  C1580   1.451   .     S
C1575  O1601   1.306   .     A
C1576  O1603   1.309   .     A
C1576  O1602   1.305   .     A
C1576  C1579   1.455   .     S
C1577  C1587   1.405   .     A
C1577  N1605   1.427   .     S
C1577  C1579   1.397   .     A
C1578  C1580   1.398   .     A
C1578  N1611   1.428   .     S
C1578  C1588   1.407   .     A
C1579  C1581   1.405   .     A
C1580  C1582   1.403   .     A
C1581  C1617   1.453   .     S
C1581  C1583   1.421   .     A
C1582  C1619   1.452   .     S
C1582  C1584   1.418   .     A
C1583  C1589   1.422   .     A
C1583  C1585   1.429   .     A
C1584  C1586   1.429   .     A
C1584  C1590   1.422   .     A
C1585  C1587   1.415   .     A
C1585  C506    1.420   1_556 S
C1586  C1588   1.416   .     A
C1589  N1621   1.423   .     S
C1589  C483    1.390   1_556 S
C1590  N1627   1.424   .     S
Cu1591 O1603   1.967   .     S
Cu1591 O1597   1.993   .     S
Cu1591 O1601   1.962   .     S
Cu1591 Cu1592  2.737   .     S
Cu1591 O1599   1.995   .     S
Cu1591 N1595   2.057   .     S
Cu1592 N1596   2.057   .     S
Cu1592 O1598   1.993   .     S
Cu1592 O1604   1.967   .     S
Cu1592 O1600   1.995   .     S
Cu1592 O1602   1.962   .     S
N1605  C1607   1.447   .     S
N1605  H1606   1.030   .     S
C1607  H1609   1.111   .     S
C1607  H1608   1.109   .     S
C1607  H1610   1.110   .     S
N1611  H1612   1.031   .     S
N1611  C1613   1.447   .     S
C1613  H1614   1.110   .     S
C1613  H1615   1.109   .     S
C1613  H1616   1.109   .     S
C1617  N1618   1.158   .     T
C1619  N1620   1.157   .     T
N1621  C1623   1.447   .     S
N1621  H1622   1.032   .     S
C1623  H1625   1.111   .     S
C1623  H1626   1.112   .     S
C1623  H1624   1.110   .     S
N1627  H1628   1.032   .     S
N1627  C1629   1.448   .     S
C1629  H1631   1.111   .     S
C1629  H1632   1.111   .     S
C1629  H1630   1.110   .     S
N1633  H1634   1.030   .     S
N1633  C1635   1.445   .     S
C1635  H1636   1.108   .     S
C1635  H1637   1.107   .     S
C1635  H1638   1.111   .     S
N1639  C1641   1.444   .     S
N1639  H1640   1.030   .     S
C1641  H1642   1.108   .     S
C1641  H1643   1.098   .     S
C1641  H1644   1.103   .     S
N1645  C1647   1.442   .     S
N1645  H1646   1.030   .     S
C1647  H1648   1.105   .     S
C1647  H1649   1.105   .     S
C1647  H1650   1.112   .     S
N1651  C1653   1.445   .     S
N1651  H1652   1.031   .     S
C1653  H1654   1.105   .     S
C1653  H1655   1.106   .     S
C1653  H1656   1.111   .     S
N1657  C1659   1.451   .     S
N1657  H1658   1.031   .     S
C1659  H1660   1.108   .     S
C1659  H1662   1.111   .     S
C1659  H1661   1.110   .     S
N1663  C1665   1.451   .     S
N1663  H1664   1.030   .     S
C1665  H1667   1.111   .     S
C1665  H1668   1.108   .     S
C1665  H1666   1.108   .     S
N1669  H1670   1.028   .     S
N1669  C1671   1.450   .     S
C1671  H1672   1.110   .     S
C1671  H1674   1.104   .     S
H1673  C2031   1.106   .     S
N1675  C1677   1.446   .     S
N1675  H1676   1.028   .     S
C1677  H1679   1.103   .     S
C1677  H1680   1.110   .     S
C1677  H1678   1.111   .     S
C1681  O1720   1.316   .     A
C1681  O1717   1.312   .     A
C1681  C1690   1.477   .     S
C1682  O1719   1.313   .     A
C1682  O1718   1.317   .     A
C1682  C1689   1.481   .     S
C1683  H1713   1.080   .     S
C1683  C1708   1.399   .     A
C1684  C1707   1.398   .     A
C1684  H1714   1.080   .     S
C1684  C630    1.386   1_556 S
C1685  C1690   1.414   .     A
C1685  N1753   1.424   .     S
C1686  C1689   1.420   .     A
C1686  N1759   1.426   .     S
C1686  C1448   1.401   1_655 S
C1687  C1689   1.413   .     A
C1687  N1765   1.423   .     S
C1687  C1445   1.397   1_655 S
C1688  N1771   1.426   .     S
C1688  C1690   1.416   .     A
C1691  N1716   1.383   .     A
C1691  N1777   1.419   .     S
C1692  N1715   1.387   .     A
C1692  N1783   1.421   .     S
C1692  C2053   1.439   .     S
C1693  N1789   1.437   .     S
C1693  N1716   1.382   .     A
C1694  N1795   1.420   .     S
C1694  N1715   1.381   .     A
C1694  C2051   1.428   .     S
C1695  O1724   1.305   .     A
C1695  C1700   1.451   .     S
C1695  O1721   1.306   .     A
C1696  O1723   1.309   .     A
C1696  O1722   1.305   .     A
C1696  C1699   1.455   .     S
C1697  C1707   1.405   .     A
C1697  N1725   1.427   .     S
C1697  C1699   1.397   .     A
C1698  C1700   1.398   .     A
C1698  N1731   1.428   .     S
C1698  C1708   1.407   .     A
C1699  C1701   1.405   .     A
C1700  C1702   1.403   .     A
C1701  C1737   1.453   .     S
C1701  C1703   1.421   .     A
C1702  C1739   1.452   .     S
C1702  C1704   1.418   .     A
C1703  C1709   1.422   .     A
C1703  C1705   1.429   .     A
C1704  C1706   1.429   .     A
C1704  C1710   1.422   .     A
C1705  C1707   1.415   .     A
C1705  C626    1.420   1_556 S
C1706  C1708   1.416   .     A
C1709  N1741   1.423   .     S
C1709  C603    1.390   1_556 S
C1710  N1747   1.424   .     S
Cu1711 O1723   1.967   .     S
Cu1711 O1717   1.993   .     S
Cu1711 O1721   1.962   .     S
Cu1711 Cu1712  2.737   .     S
Cu1711 O1719   1.995   .     S
Cu1711 N1715   2.057   .     S
Cu1712 N1716   2.057   .     S
Cu1712 O1718   1.993   .     S
Cu1712 O1724   1.967   .     S
Cu1712 O1720   1.995   .     S
Cu1712 O1722   1.962   .     S
N1725  C1727   1.447   .     S
N1725  H1726   1.030   .     S
C1727  H1729   1.111   .     S
C1727  H1728   1.109   .     S
C1727  H1730   1.110   .     S
N1731  H1732   1.031   .     S
N1731  C1733   1.447   .     S
C1733  H1734   1.110   .     S
C1733  H1735   1.109   .     S
C1733  H1736   1.109   .     S
C1737  N1738   1.158   .     T
C1739  N1740   1.157   .     T
N1741  C1743   1.447   .     S
N1741  H1742   1.032   .     S
C1743  H1745   1.111   .     S
C1743  H1746   1.112   .     S
C1743  H1744   1.110   .     S
N1747  H1748   1.032   .     S
N1747  C1749   1.448   .     S
C1749  H1751   1.111   .     S
C1749  H1752   1.111   .     S
C1749  H1750   1.110   .     S
N1753  H1754   1.030   .     S
N1753  C1755   1.445   .     S
C1755  H1756   1.108   .     S
C1755  H1757   1.107   .     S
C1755  H1758   1.111   .     S
N1759  C1761   1.444   .     S
N1759  H1760   1.030   .     S
C1761  H1762   1.108   .     S
C1761  H1763   1.098   .     S
C1761  H1764   1.103   .     S
N1765  C1767   1.442   .     S
N1765  H1766   1.030   .     S
C1767  H1768   1.105   .     S
C1767  H1769   1.105   .     S
C1767  H1770   1.112   .     S
N1771  C1773   1.445   .     S
N1771  H1772   1.031   .     S
C1773  H1774   1.105   .     S
C1773  H1775   1.106   .     S
C1773  H1776   1.111   .     S
N1777  C1779   1.451   .     S
N1777  H1778   1.031   .     S
C1779  H1780   1.108   .     S
C1779  H1782   1.111   .     S
C1779  H1781   1.110   .     S
N1783  C1785   1.451   .     S
N1783  H1784   1.030   .     S
C1785  H1787   1.111   .     S
C1785  H1788   1.108   .     S
C1785  H1786   1.108   .     S
N1789  H1790   1.028   .     S
N1789  C1791   1.450   .     S
C1791  H1792   1.110   .     S
C1791  H1794   1.104   .     S
H1793  C2151   1.106   .     S
N1795  C1797   1.446   .     S
N1795  H1796   1.028   .     S
C1797  H1799   1.103   .     S
C1797  H1800   1.110   .     S
C1797  H1798   1.111   .     S
C1801  O1840   1.316   .     A
C1801  O1837   1.312   .     A
C1801  C1810   1.477   .     S
C1802  O1839   1.313   .     A
C1802  O1838   1.317   .     A
C1802  C1809   1.481   .     S
C1803  H1833   1.080   .     S
C1803  C1828   1.399   .     A
C1804  C1827   1.398   .     A
C1804  H1834   1.080   .     S
C1804  C750    1.386   1_556 S
C1805  C1810   1.414   .     A
C1805  N1873   1.424   .     S
C1805  C2047   1.397   1_455 S
C1806  C1809   1.420   .     A
C1806  N1879   1.426   .     S
C1806  C1928   1.401   .     S
C1807  C1809   1.413   .     A
C1807  N1885   1.423   .     S
C1807  C1925   1.397   .     S
C1808  N1891   1.426   .     S
C1808  C1810   1.416   .     A
C1808  C2046   1.401   1_455 S
C1811  N1836   1.383   .     A
C1811  N1897   1.419   .     S
C1812  N1835   1.387   .     A
C1812  N1903   1.421   .     S
C1812  C1093   1.439   1_565 S
C1813  N1909   1.437   .     S
C1813  N1836   1.382   .     A
C1814  N1915   1.420   .     S
C1814  N1835   1.381   .     A
C1814  C1091   1.428   1_565 S
C1815  O1844   1.305   .     A
C1815  C1820   1.451   .     S
C1815  O1841   1.306   .     A
C1816  O1843   1.309   .     A
C1816  O1842   1.305   .     A
C1816  C1819   1.455   .     S
C1817  C1827   1.405   .     A
C1817  N1845   1.427   .     S
C1817  C1819   1.397   .     A
C1818  C1820   1.398   .     A
C1818  N1851   1.428   .     S
C1818  C1828   1.407   .     A
C1819  C1821   1.405   .     A
C1820  C1822   1.403   .     A
C1821  C1857   1.453   .     S
C1821  C1823   1.421   .     A
C1822  C1859   1.452   .     S
C1822  C1824   1.418   .     A
C1823  C1829   1.422   .     A
C1823  C1825   1.429   .     A
C1824  C1826   1.429   .     A
C1824  C1830   1.422   .     A
C1825  C1827   1.415   .     A
C1825  C746    1.420   1_556 S
C1826  C1828   1.416   .     A
C1829  N1861   1.423   .     S
C1829  C723    1.390   1_556 S
C1830  N1867   1.424   .     S
Cu1831 O1843   1.967   .     S
Cu1831 O1837   1.993   .     S
Cu1831 O1841   1.962   .     S
Cu1831 Cu1832  2.737   .     S
Cu1831 O1839   1.995   .     S
Cu1831 N1835   2.057   .     S
Cu1832 N1836   2.057   .     S
Cu1832 O1838   1.993   .     S
Cu1832 O1844   1.967   .     S
Cu1832 O1840   1.995   .     S
Cu1832 O1842   1.962   .     S
N1845  C1847   1.447   .     S
N1845  H1846   1.030   .     S
C1847  H1849   1.111   .     S
C1847  H1848   1.109   .     S
C1847  H1850   1.110   .     S
N1851  H1852   1.031   .     S
N1851  C1853   1.447   .     S
C1853  H1854   1.110   .     S
C1853  H1855   1.109   .     S
C1853  H1856   1.109   .     S
C1857  N1858   1.158   .     T
C1859  N1860   1.157   .     T
N1861  C1863   1.447   .     S
N1861  H1862   1.032   .     S
C1863  H1865   1.111   .     S
C1863  H1866   1.112   .     S
C1863  H1864   1.110   .     S
N1867  H1868   1.032   .     S
N1867  C1869   1.448   .     S
C1869  H1871   1.111   .     S
C1869  H1872   1.111   .     S
C1869  H1870   1.110   .     S
N1873  H1874   1.030   .     S
N1873  C1875   1.445   .     S
C1875  H1876   1.108   .     S
C1875  H1877   1.107   .     S
C1875  H1878   1.111   .     S
N1879  C1881   1.444   .     S
N1879  H1880   1.030   .     S
C1881  H1882   1.108   .     S
C1881  H1883   1.098   .     S
C1881  H1884   1.103   .     S
N1885  C1887   1.442   .     S
N1885  H1886   1.030   .     S
C1887  H1888   1.105   .     S
C1887  H1889   1.105   .     S
C1887  H1890   1.112   .     S
N1891  C1893   1.445   .     S
N1891  H1892   1.031   .     S
C1893  H1894   1.105   .     S
C1893  H1895   1.106   .     S
C1893  H1896   1.111   .     S
N1897  C1899   1.451   .     S
N1897  H1898   1.031   .     S
C1899  H1900   1.108   .     S
C1899  H1902   1.111   .     S
C1899  H1901   1.110   .     S
N1903  C1905   1.451   .     S
N1903  H1904   1.030   .     S
C1905  H1907   1.111   .     S
C1905  H1908   1.108   .     S
C1905  H1906   1.108   .     S
N1909  H1910   1.028   .     S
N1909  C1911   1.450   .     S
C1911  H1912   1.110   .     S
C1911  H1914   1.104   .     S
H1913  C1191   1.106   1_565 S
N1915  C1917   1.446   .     S
N1915  H1916   1.028   .     S
C1917  H1919   1.103   .     S
C1917  H1920   1.110   .     S
C1917  H1918   1.111   .     S
C1921  O1960   1.316   .     A
C1921  O1957   1.312   .     A
C1921  C1930   1.477   .     S
C1922  O1959   1.313   .     A
C1922  O1958   1.317   .     A
C1922  C1929   1.481   .     S
C1923  H1953   1.080   .     S
C1923  C1948   1.399   .     A
C1924  C1947   1.398   .     A
C1924  H1954   1.080   .     S
C1924  C870    1.386   1_556 S
C1925  C1930   1.414   .     A
C1925  N1993   1.424   .     S
C1926  C1929   1.420   .     A
C1926  N1999   1.426   .     S
C1926  C2048   1.401   .     S
C1927  C1929   1.413   .     A
C1927  N2005   1.423   .     S
C1927  C2045   1.397   .     S
C1928  N2011   1.426   .     S
C1928  C1930   1.416   .     A
C1931  N1956   1.383   .     A
C1931  N2017   1.419   .     S
C1932  N1955   1.387   .     A
C1932  N2023   1.421   .     S
C1932  C1213   1.439   1_565 S
C1933  N2029   1.437   .     S
C1933  N1956   1.382   .     A
C1934  N2035   1.420   .     S
C1934  N1955   1.381   .     A
C1934  C1211   1.428   1_565 S
C1935  O1964   1.305   .     A
C1935  C1940   1.451   .     S
C1935  O1961   1.306   .     A
C1936  O1963   1.309   .     A
C1936  O1962   1.305   .     A
C1936  C1939   1.455   .     S
C1937  C1947   1.405   .     A
C1937  N1965   1.427   .     S
C1937  C1939   1.397   .     A
C1938  C1940   1.398   .     A
C1938  N1971   1.428   .     S
C1938  C1948   1.407   .     A
C1939  C1941   1.405   .     A
C1940  C1942   1.403   .     A
C1941  C1977   1.453   .     S
C1941  C1943   1.421   .     A
C1942  C1979   1.452   .     S
C1942  C1944   1.418   .     A
C1943  C1949   1.422   .     A
C1943  C1945   1.429   .     A
C1944  C1946   1.429   .     A
C1944  C1950   1.422   .     A
C1945  C1947   1.415   .     A
C1945  C866    1.420   1_556 S
C1946  C1948   1.416   .     A
C1949  N1981   1.423   .     S
C1949  C843    1.390   1_556 S
C1950  N1987   1.424   .     S
Cu1951 O1963   1.967   .     S
Cu1951 O1957   1.993   .     S
Cu1951 O1961   1.962   .     S
Cu1951 Cu1952  2.737   .     S
Cu1951 O1959   1.995   .     S
Cu1951 N1955   2.057   .     S
Cu1952 N1956   2.057   .     S
Cu1952 O1958   1.993   .     S
Cu1952 O1964   1.967   .     S
Cu1952 O1960   1.995   .     S
Cu1952 O1962   1.962   .     S
N1965  C1967   1.447   .     S
N1965  H1966   1.030   .     S
C1967  H1969   1.111   .     S
C1967  H1968   1.109   .     S
C1967  H1970   1.110   .     S
N1971  H1972   1.031   .     S
N1971  C1973   1.447   .     S
C1973  H1974   1.110   .     S
C1973  H1975   1.109   .     S
C1973  H1976   1.109   .     S
C1977  N1978   1.158   .     T
C1979  N1980   1.157   .     T
N1981  C1983   1.447   .     S
N1981  H1982   1.032   .     S
C1983  H1985   1.111   .     S
C1983  H1986   1.112   .     S
C1983  H1984   1.110   .     S
N1987  H1988   1.032   .     S
N1987  C1989   1.448   .     S
C1989  H1991   1.111   .     S
C1989  H1992   1.111   .     S
C1989  H1990   1.110   .     S
N1993  H1994   1.030   .     S
N1993  C1995   1.445   .     S
C1995  H1996   1.108   .     S
C1995  H1997   1.107   .     S
C1995  H1998   1.111   .     S
N1999  C2001   1.444   .     S
N1999  H2000   1.030   .     S
C2001  H2002   1.108   .     S
C2001  H2003   1.098   .     S
C2001  H2004   1.103   .     S
N2005  C2007   1.442   .     S
N2005  H2006   1.030   .     S
C2007  H2008   1.105   .     S
C2007  H2009   1.105   .     S
C2007  H2010   1.112   .     S
N2011  C2013   1.445   .     S
N2011  H2012   1.031   .     S
C2013  H2014   1.105   .     S
C2013  H2015   1.106   .     S
C2013  H2016   1.111   .     S
N2017  C2019   1.451   .     S
N2017  H2018   1.031   .     S
C2019  H2020   1.108   .     S
C2019  H2022   1.111   .     S
C2019  H2021   1.110   .     S
N2023  C2025   1.451   .     S
N2023  H2024   1.030   .     S
C2025  H2027   1.111   .     S
C2025  H2028   1.108   .     S
C2025  H2026   1.108   .     S
N2029  H2030   1.028   .     S
N2029  C2031   1.450   .     S
C2031  H2032   1.110   .     S
C2031  H2034   1.104   .     S
H2033  C1311   1.106   1_565 S
N2035  C2037   1.446   .     S
N2035  H2036   1.028   .     S
C2037  H2039   1.103   .     S
C2037  H2040   1.110   .     S
C2037  H2038   1.111   .     S
C2041  O2080   1.316   .     A
C2041  O2077   1.312   .     A
C2041  C2050   1.477   .     S
C2042  O2079   1.313   .     A
C2042  O2078   1.317   .     A
C2042  C2049   1.481   .     S
C2043  H2073   1.080   .     S
C2043  C2068   1.399   .     A
C2044  C2067   1.398   .     A
C2044  H2074   1.080   .     S
C2044  C990    1.386   1_556 S
C2045  C2050   1.414   .     A
C2045  N2113   1.424   .     S
C2046  C2049   1.420   .     A
C2046  N2119   1.426   .     S
C2046  C1808   1.401   1_655 S
C2047  C2049   1.413   .     A
C2047  N2125   1.423   .     S
C2047  C1805   1.397   1_655 S
C2048  N2131   1.426   .     S
C2048  C2050   1.416   .     A
C2051  N2076   1.383   .     A
C2051  N2137   1.419   .     S
C2052  N2075   1.387   .     A
C2052  N2143   1.421   .     S
C2052  C1333   1.439   1_565 S
C2053  N2149   1.437   .     S
C2053  N2076   1.382   .     A
C2054  N2155   1.420   .     S
C2054  N2075   1.381   .     A
C2054  C1331   1.428   1_565 S
C2055  O2084   1.305   .     A
C2055  C2060   1.451   .     S
C2055  O2081   1.306   .     A
C2056  O2083   1.309   .     A
C2056  O2082   1.305   .     A
C2056  C2059   1.455   .     S
C2057  C2067   1.405   .     A
C2057  N2085   1.427   .     S
C2057  C2059   1.397   .     A
C2058  C2060   1.398   .     A
C2058  N2091   1.428   .     S
C2058  C2068   1.407   .     A
C2059  C2061   1.405   .     A
C2060  C2062   1.403   .     A
C2061  C2097   1.453   .     S
C2061  C2063   1.421   .     A
C2062  C2099   1.452   .     S
C2062  C2064   1.418   .     A
C2063  C2069   1.422   .     A
C2063  C2065   1.429   .     A
C2064  C2066   1.429   .     A
C2064  C2070   1.422   .     A
C2065  C2067   1.415   .     A
C2065  C986    1.420   1_556 S
C2066  C2068   1.416   .     A
C2069  N2101   1.423   .     S
C2069  C963    1.390   1_556 S
C2070  N2107   1.424   .     S
Cu2071 O2083   1.967   .     S
Cu2071 O2077   1.993   .     S
Cu2071 O2081   1.962   .     S
Cu2071 Cu2072  2.737   .     S
Cu2071 O2079   1.995   .     S
Cu2071 N2075   2.057   .     S
Cu2072 N2076   2.057   .     S
Cu2072 O2078   1.993   .     S
Cu2072 O2084   1.967   .     S
Cu2072 O2080   1.995   .     S
Cu2072 O2082   1.962   .     S
N2085  C2087   1.447   .     S
N2085  H2086   1.030   .     S
C2087  H2089   1.111   .     S
C2087  H2088   1.109   .     S
C2087  H2090   1.110   .     S
N2091  H2092   1.031   .     S
N2091  C2093   1.447   .     S
C2093  H2094   1.110   .     S
C2093  H2095   1.109   .     S
C2093  H2096   1.109   .     S
C2097  N2098   1.158   .     T
C2099  N2100   1.157   .     T
N2101  C2103   1.447   .     S
N2101  H2102   1.032   .     S
C2103  H2105   1.111   .     S
C2103  H2106   1.112   .     S
C2103  H2104   1.110   .     S
N2107  H2108   1.032   .     S
N2107  C2109   1.448   .     S
C2109  H2111   1.111   .     S
C2109  H2112   1.111   .     S
C2109  H2110   1.110   .     S
N2113  H2114   1.030   .     S
N2113  C2115   1.445   .     S
C2115  H2116   1.108   .     S
C2115  H2117   1.107   .     S
C2115  H2118   1.111   .     S
N2119  C2121   1.444   .     S
N2119  H2120   1.030   .     S
C2121  H2122   1.108   .     S
C2121  H2123   1.098   .     S
C2121  H2124   1.103   .     S
N2125  C2127   1.442   .     S
N2125  H2126   1.030   .     S
C2127  H2128   1.105   .     S
C2127  H2129   1.105   .     S
C2127  H2130   1.112   .     S
N2131  C2133   1.445   .     S
N2131  H2132   1.031   .     S
C2133  H2134   1.105   .     S
C2133  H2135   1.106   .     S
C2133  H2136   1.111   .     S
N2137  C2139   1.451   .     S
N2137  H2138   1.031   .     S
C2139  H2140   1.108   .     S
C2139  H2142   1.111   .     S
C2139  H2141   1.110   .     S
N2143  C2145   1.451   .     S
N2143  H2144   1.030   .     S
C2145  H2147   1.111   .     S
C2145  H2148   1.108   .     S
C2145  H2146   1.108   .     S
N2149  H2150   1.028   .     S
N2149  C2151   1.450   .     S
C2151  H2152   1.110   .     S
C2151  H2154   1.104   .     S
H2153  C1431   1.106   1_565 S
N2155  C2157   1.446   .     S
N2155  H2156   1.028   .     S
C2157  H2159   1.103   .     S
C2157  H2160   1.110   .     S
C2157  H2158   1.111   .     S
