data_str_m2_o10_o17_pcu_sym.102
_audit_creation_date              2020-01-03
_audit_creation_method            'Materials Studio'
_symmetry_space_group_name_H-M    'P1'
_symmetry_Int_Tables_number       1
_symmetry_cell_setting            triclinic
loop_
_symmetry_equiv_pos_as_xyz
  x,y,z
_cell_length_a                    30.0099
_cell_length_b                    26.2260
_cell_length_c                    22.3453
_cell_angle_alpha                 102.2191
_cell_angle_beta                  93.4949
_cell_angle_gamma                 91.7903
loop_
_atom_site_label
_atom_site_type_symbol
_atom_site_fract_x
_atom_site_fract_y
_atom_site_fract_z
_atom_site_U_iso_or_equiv
_atom_site_adp_type
_atom_site_occupancy
C1     C     0.25136   0.06704   0.15164   0.00000  Uiso   1.00
C2     C     0.25110   0.26632   0.18166   0.00000  Uiso   1.00
C3     C     0.01773   0.07577   0.10941   0.00000  Uiso   1.00
C4     C     0.48188   0.25892   0.21396   0.00000  Uiso   1.00
C5     C     0.25999   0.01257   0.14539   0.00000  Uiso   1.00
C6     C     0.24674   0.32115   0.18908   0.00000  Uiso   1.00
C7     C     0.16456   0.16612   0.16769   0.00000  Uiso   1.00
C8     C     0.33544   0.16679   0.16555   0.00000  Uiso   1.00
C9     C     0.40978   0.21091   0.19804   0.00000  Uiso   1.00
C10    C     0.09092   0.11843   0.14752   0.00000  Uiso   1.00
C11    C     0.38364   0.16820   0.16330   0.00000  Uiso   1.00
C12    C     0.11633   0.16535   0.16908   0.00000  Uiso   1.00
C13    C     0.40354   0.12546   0.12822   0.00000  Uiso   1.00
C14    C     0.09579   0.21255   0.18726   0.00000  Uiso   1.00
C15    C     0.45016   0.12312   0.13033   0.00000  Uiso   1.00
C16    C     0.04925   0.21370   0.18647   0.00000  Uiso   1.00
C17    C     0.47645   0.16760   0.16138   0.00000  Uiso   1.00
C18    C     0.02330   0.16705   0.16259   0.00000  Uiso   1.00
C19    C     0.45598   0.21267   0.19194   0.00000  Uiso   1.00
C20    C     0.04408   0.11986   0.14014   0.00000  Uiso   1.00
C21    C     0.47118   0.07771   0.10202   0.00000  Uiso   1.00
C22    C     0.02783   0.26044   0.20794   0.00000  Uiso   1.00
Cu23   Cu    0.25500   0.17246   0.22813   0.00000  Uiso   1.00
Cu24   Cu    0.24499   0.16087   0.10521   0.00000  Uiso   1.00
H25    H     0.38240   0.09285   0.10267   0.00000  Uiso   1.00
H26    H     0.11644   0.24801   0.20313   0.00000  Uiso   1.00
H27    H     0.03310   0.03994   0.08935   0.00000  Uiso   1.00
H28    H     0.46649   0.29491   0.23338   0.00000  Uiso   1.00
H29    H     0.21400   0.12830   0.31686   0.00000  Uiso   1.00
H30    H     0.28602   0.20491   0.01656   0.00000  Uiso   1.00
N31    N     0.23744   0.15214   0.01284   0.00000  Uiso   1.00
N32    N     0.26255   0.18119   0.32049   0.00000  Uiso   1.00
O33    O     0.25325   0.09538   0.20659   0.00000  Uiso   1.00
O34    O     0.24674   0.23796   0.12674   0.00000  Uiso   1.00
O35    O     0.24480   0.08559   0.10279   0.00000  Uiso   1.00
O36    O     0.25520   0.24774   0.23055   0.00000  Uiso   1.00
O37    O     0.18935   0.17155   0.21857   0.00000  Uiso   1.00
O38    O     0.31064   0.16179   0.11476   0.00000  Uiso   1.00
O39    O     0.18090   0.16176   0.11477   0.00000  Uiso   1.00
O40    O     0.31910   0.17157   0.21857   0.00000  Uiso   1.00
N41    N     0.38998   0.24962   0.24209   0.00000  Uiso   1.00
H42    H     0.40797   0.26108   0.28390   0.00000  Uiso   1.00
C43    C     0.37034   0.29218   0.21965   0.00000  Uiso   1.00
H44    H     0.39210   0.32822   0.23462   0.00000  Uiso   1.00
H45    H     0.33757   0.29980   0.23921   0.00000  Uiso   1.00
H46    H     0.36554   0.28284   0.16891   0.00000  Uiso   1.00
N47    N     0.11236   0.07003   0.14050   0.00000  Uiso   1.00
H48    H     0.09619   0.04169   0.15789   0.00000  Uiso   1.00
C49    C     0.13132   0.05060   0.08262   0.00000  Uiso   1.00
H50    H     0.11488   0.01237   0.06061   0.00000  Uiso   1.00
H51    H     0.16705   0.04388   0.09116   0.00000  Uiso   1.00
H52    H     0.12792   0.07815   0.05120   0.00000  Uiso   1.00
N53    N     0.44585   0.03395   0.06585   0.00000  Uiso   1.00
H54    H     0.46111   0.01607   0.02724   0.00000  Uiso   1.00
C55    C     0.43073   0.33005   0.10028   0.00000  Uiso   1.00
H56    H     0.45972   0.31085   0.11780   0.00000  Uiso   1.00
H57    H     0.40807   0.29974   0.07008   0.00000  Uiso   1.00
H58    H     0.41208   0.01658   0.13929   0.00000  Uiso   1.00
N59    N     0.05187   0.30943   0.22197   0.00000  Uiso   1.00
H60    H     0.03532   0.00457   0.20515   0.00000  Uiso   1.00
C61    C     0.06559   0.32683   0.28611   0.00000  Uiso   1.00
H62    H     0.03594   0.33299   0.31374   0.00000  Uiso   1.00
H63    H     0.08523   0.03106   0.29294   0.00000  Uiso   1.00
H64    H     0.08662   0.29735   0.30162   0.00000  Uiso   1.00
N65    N     0.28949   0.32271   0.09988   0.00000  Uiso   1.00
H66    H     0.30690   0.29102   0.10657   0.00000  Uiso   1.00
C67    C     0.27777   0.32327   0.03634   0.00000  Uiso   1.00
H68    H     0.29780   0.29493   0.00624   0.00000  Uiso   1.00
H69    H     0.28638   0.02889   0.02735   0.00000  Uiso   1.00
H70    H     0.24170   0.31250   0.02453   0.00000  Uiso   1.00
N71    N     0.22418   0.01262   0.24112   0.00000  Uiso   1.00
H72    H     0.24126   0.04028   0.27497   0.00000  Uiso   1.00
C73    C     0.17611   0.01405   0.23461   0.00000  Uiso   1.00
H74    H     0.16176   0.33085   0.27133   0.00000  Uiso   1.00
H75    H     0.16237   0.32429   0.18931   0.00000  Uiso   1.00
H76    H     0.16630   0.05510   0.23954   0.00000  Uiso   1.00
C77    C     0.75136   0.06704   0.15164   0.00000  Uiso   1.00
C78    C     0.75110   0.26632   0.18166   0.00000  Uiso   1.00
C79    C     0.51773   0.07577   0.10941   0.00000  Uiso   1.00
C80    C     0.98188   0.25892   0.21396   0.00000  Uiso   1.00
C81    C     0.75999   0.01257   0.14539   0.00000  Uiso   1.00
C82    C     0.74674   0.32115   0.18908   0.00000  Uiso   1.00
C83    C     0.66456   0.16612   0.16769   0.00000  Uiso   1.00
C84    C     0.83544   0.16679   0.16555   0.00000  Uiso   1.00
C85    C     0.90978   0.21091   0.19804   0.00000  Uiso   1.00
C86    C     0.59092   0.11843   0.14752   0.00000  Uiso   1.00
C87    C     0.88364   0.16820   0.16330   0.00000  Uiso   1.00
C88    C     0.61633   0.16535   0.16908   0.00000  Uiso   1.00
C89    C     0.90354   0.12546   0.12822   0.00000  Uiso   1.00
C90    C     0.59579   0.21255   0.18726   0.00000  Uiso   1.00
C91    C     0.95016   0.12312   0.13033   0.00000  Uiso   1.00
C92    C     0.54925   0.21370   0.18647   0.00000  Uiso   1.00
C93    C     0.97645   0.16760   0.16138   0.00000  Uiso   1.00
C94    C     0.52330   0.16705   0.16259   0.00000  Uiso   1.00
C95    C     0.95598   0.21267   0.19194   0.00000  Uiso   1.00
C96    C     0.54408   0.11986   0.14014   0.00000  Uiso   1.00
C97    C     0.97118   0.07771   0.10202   0.00000  Uiso   1.00
C98    C     0.52783   0.26044   0.20794   0.00000  Uiso   1.00
Cu99   Cu    0.75500   0.17246   0.22813   0.00000  Uiso   1.00
Cu100  Cu    0.74499   0.16087   0.10521   0.00000  Uiso   1.00
H101   H     0.88240   0.09285   0.10267   0.00000  Uiso   1.00
H102   H     0.61644   0.24801   0.20313   0.00000  Uiso   1.00
H103   H     0.53310   0.03994   0.08935   0.00000  Uiso   1.00
H104   H     0.96649   0.29491   0.23338   0.00000  Uiso   1.00
H105   H     0.71400   0.12830   0.31686   0.00000  Uiso   1.00
H106   H     0.78602   0.20491   0.01656   0.00000  Uiso   1.00
N107   N     0.73744   0.15214   0.01284   0.00000  Uiso   1.00
N108   N     0.76255   0.18119   0.32049   0.00000  Uiso   1.00
O109   O     0.75325   0.09538   0.20659   0.00000  Uiso   1.00
O110   O     0.74674   0.23796   0.12674   0.00000  Uiso   1.00
O111   O     0.74480   0.08559   0.10279   0.00000  Uiso   1.00
O112   O     0.75520   0.24774   0.23055   0.00000  Uiso   1.00
O113   O     0.68935   0.17155   0.21857   0.00000  Uiso   1.00
O114   O     0.81064   0.16179   0.11476   0.00000  Uiso   1.00
O115   O     0.68090   0.16176   0.11477   0.00000  Uiso   1.00
O116   O     0.81910   0.17157   0.21857   0.00000  Uiso   1.00
N117   N     0.88998   0.24962   0.24209   0.00000  Uiso   1.00
H118   H     0.90797   0.26108   0.28390   0.00000  Uiso   1.00
C119   C     0.87034   0.29218   0.21965   0.00000  Uiso   1.00
H120   H     0.89210   0.32822   0.23462   0.00000  Uiso   1.00
H121   H     0.83757   0.29980   0.23921   0.00000  Uiso   1.00
H122   H     0.86554   0.28284   0.16891   0.00000  Uiso   1.00
N123   N     0.61236   0.07003   0.14050   0.00000  Uiso   1.00
H124   H     0.59619   0.04169   0.15789   0.00000  Uiso   1.00
C125   C     0.63132   0.05060   0.08262   0.00000  Uiso   1.00
H126   H     0.61488   0.01237   0.06061   0.00000  Uiso   1.00
H127   H     0.66705   0.04388   0.09116   0.00000  Uiso   1.00
H128   H     0.62792   0.07815   0.05120   0.00000  Uiso   1.00
N129   N     0.94585   0.03395   0.06585   0.00000  Uiso   1.00
H130   H     0.96111   0.01607   0.02724   0.00000  Uiso   1.00
C131   C     0.93073   0.33005   0.10028   0.00000  Uiso   1.00
H132   H     0.95972   0.31085   0.11780   0.00000  Uiso   1.00
H133   H     0.90807   0.29974   0.07008   0.00000  Uiso   1.00
H134   H     0.91208   0.01658   0.13929   0.00000  Uiso   1.00
N135   N     0.55187   0.30943   0.22197   0.00000  Uiso   1.00
H136   H     0.53532   0.00457   0.20515   0.00000  Uiso   1.00
C137   C     0.56559   0.32683   0.28611   0.00000  Uiso   1.00
H138   H     0.53594   0.33299   0.31374   0.00000  Uiso   1.00
H139   H     0.58523   0.03106   0.29294   0.00000  Uiso   1.00
H140   H     0.58662   0.29735   0.30162   0.00000  Uiso   1.00
N141   N     0.78949   0.32271   0.09988   0.00000  Uiso   1.00
H142   H     0.80690   0.29102   0.10657   0.00000  Uiso   1.00
C143   C     0.77777   0.32327   0.03634   0.00000  Uiso   1.00
H144   H     0.79780   0.29493   0.00624   0.00000  Uiso   1.00
H145   H     0.78638   0.02889   0.02735   0.00000  Uiso   1.00
H146   H     0.74170   0.31250   0.02453   0.00000  Uiso   1.00
N147   N     0.72418   0.01262   0.24112   0.00000  Uiso   1.00
H148   H     0.74126   0.04028   0.27497   0.00000  Uiso   1.00
C149   C     0.67611   0.01405   0.23461   0.00000  Uiso   1.00
H150   H     0.66176   0.33085   0.27133   0.00000  Uiso   1.00
H151   H     0.66237   0.32429   0.18931   0.00000  Uiso   1.00
H152   H     0.66630   0.05510   0.23954   0.00000  Uiso   1.00
C153   C     0.25136   0.40037   0.15164   0.00000  Uiso   1.00
C154   C     0.25110   0.59965   0.18166   0.00000  Uiso   1.00
C155   C     0.01773   0.40910   0.10941   0.00000  Uiso   1.00
C156   C     0.48188   0.59226   0.21396   0.00000  Uiso   1.00
C157   C     0.25999   0.34590   0.14539   0.00000  Uiso   1.00
C158   C     0.24674   0.65448   0.18908   0.00000  Uiso   1.00
C159   C     0.16456   0.49945   0.16769   0.00000  Uiso   1.00
C160   C     0.33544   0.50013   0.16555   0.00000  Uiso   1.00
C161   C     0.40978   0.54424   0.19804   0.00000  Uiso   1.00
C162   C     0.09092   0.45177   0.14752   0.00000  Uiso   1.00
C163   C     0.38364   0.50153   0.16330   0.00000  Uiso   1.00
C164   C     0.11633   0.49869   0.16908   0.00000  Uiso   1.00
C165   C     0.40354   0.45879   0.12822   0.00000  Uiso   1.00
C166   C     0.09579   0.54589   0.18726   0.00000  Uiso   1.00
C167   C     0.45016   0.45645   0.13033   0.00000  Uiso   1.00
C168   C     0.04925   0.54703   0.18647   0.00000  Uiso   1.00
C169   C     0.47645   0.50094   0.16138   0.00000  Uiso   1.00
C170   C     0.02330   0.50038   0.16259   0.00000  Uiso   1.00
C171   C     0.45598   0.54600   0.19194   0.00000  Uiso   1.00
C172   C     0.04408   0.45319   0.14014   0.00000  Uiso   1.00
C173   C     0.47118   0.41104   0.10202   0.00000  Uiso   1.00
C174   C     0.02783   0.59377   0.20794   0.00000  Uiso   1.00
Cu175  Cu    0.25500   0.50579   0.22813   0.00000  Uiso   1.00
Cu176  Cu    0.24499   0.49421   0.10521   0.00000  Uiso   1.00
H177   H     0.38240   0.42619   0.10267   0.00000  Uiso   1.00
H178   H     0.11644   0.58134   0.20313   0.00000  Uiso   1.00
H179   H     0.03310   0.37327   0.08935   0.00000  Uiso   1.00
H180   H     0.46649   0.62825   0.23338   0.00000  Uiso   1.00
H181   H     0.21400   0.46163   0.31686   0.00000  Uiso   1.00
H182   H     0.28602   0.53824   0.01656   0.00000  Uiso   1.00
N183   N     0.23744   0.48547   0.01284   0.00000  Uiso   1.00
N184   N     0.26255   0.51453   0.32049   0.00000  Uiso   1.00
O185   O     0.25325   0.42871   0.20659   0.00000  Uiso   1.00
O186   O     0.24674   0.57129   0.12674   0.00000  Uiso   1.00
O187   O     0.24480   0.41892   0.10279   0.00000  Uiso   1.00
O188   O     0.25520   0.58108   0.23055   0.00000  Uiso   1.00
O189   O     0.18935   0.50488   0.21857   0.00000  Uiso   1.00
O190   O     0.31064   0.49512   0.11476   0.00000  Uiso   1.00
O191   O     0.18090   0.49510   0.11477   0.00000  Uiso   1.00
O192   O     0.31910   0.50490   0.21857   0.00000  Uiso   1.00
N193   N     0.38998   0.58295   0.24209   0.00000  Uiso   1.00
H194   H     0.40797   0.59441   0.28390   0.00000  Uiso   1.00
C195   C     0.37034   0.62551   0.21965   0.00000  Uiso   1.00
H196   H     0.39210   0.66155   0.23462   0.00000  Uiso   1.00
H197   H     0.33757   0.63313   0.23921   0.00000  Uiso   1.00
H198   H     0.36554   0.61618   0.16891   0.00000  Uiso   1.00
N199   N     0.11236   0.40337   0.14050   0.00000  Uiso   1.00
H200   H     0.09619   0.37502   0.15789   0.00000  Uiso   1.00
C201   C     0.13132   0.38393   0.08262   0.00000  Uiso   1.00
H202   H     0.11488   0.34571   0.06061   0.00000  Uiso   1.00
H203   H     0.16705   0.37721   0.09116   0.00000  Uiso   1.00
H204   H     0.12792   0.41148   0.05120   0.00000  Uiso   1.00
N205   N     0.44585   0.36728   0.06585   0.00000  Uiso   1.00
H206   H     0.46111   0.34940   0.02724   0.00000  Uiso   1.00
C207   C     0.43073   0.66339   0.10028   0.00000  Uiso   1.00
H208   H     0.45972   0.64419   0.11780   0.00000  Uiso   1.00
H209   H     0.40807   0.63308   0.07008   0.00000  Uiso   1.00
H210   H     0.41208   0.34991   0.13929   0.00000  Uiso   1.00
N211   N     0.05187   0.64276   0.22197   0.00000  Uiso   1.00
H212   H     0.03532   0.33791   0.20515   0.00000  Uiso   1.00
C213   C     0.06559   0.66016   0.28611   0.00000  Uiso   1.00
H214   H     0.03594   0.66632   0.31374   0.00000  Uiso   1.00
H215   H     0.08523   0.36439   0.29294   0.00000  Uiso   1.00
H216   H     0.08662   0.63068   0.30162   0.00000  Uiso   1.00
N217   N     0.28949   0.65604   0.09988   0.00000  Uiso   1.00
H218   H     0.30690   0.62435   0.10657   0.00000  Uiso   1.00
C219   C     0.27777   0.65661   0.03634   0.00000  Uiso   1.00
H220   H     0.29780   0.62826   0.00624   0.00000  Uiso   1.00
H221   H     0.28638   0.36223   0.02735   0.00000  Uiso   1.00
H222   H     0.24170   0.64584   0.02453   0.00000  Uiso   1.00
N223   N     0.22418   0.34595   0.24112   0.00000  Uiso   1.00
H224   H     0.24126   0.37361   0.27497   0.00000  Uiso   1.00
C225   C     0.17611   0.34738   0.23461   0.00000  Uiso   1.00
H226   H     0.16176   0.66418   0.27133   0.00000  Uiso   1.00
H227   H     0.16237   0.65762   0.18931   0.00000  Uiso   1.00
H228   H     0.16630   0.38843   0.23954   0.00000  Uiso   1.00
C229   C     0.75136   0.40037   0.15164   0.00000  Uiso   1.00
C230   C     0.75110   0.59965   0.18166   0.00000  Uiso   1.00
C231   C     0.51773   0.40910   0.10941   0.00000  Uiso   1.00
C232   C     0.98188   0.59226   0.21396   0.00000  Uiso   1.00
C233   C     0.75999   0.34590   0.14539   0.00000  Uiso   1.00
C234   C     0.74674   0.65448   0.18908   0.00000  Uiso   1.00
C235   C     0.66456   0.49945   0.16769   0.00000  Uiso   1.00
C236   C     0.83544   0.50013   0.16555   0.00000  Uiso   1.00
C237   C     0.90978   0.54424   0.19804   0.00000  Uiso   1.00
C238   C     0.59092   0.45177   0.14752   0.00000  Uiso   1.00
C239   C     0.88364   0.50153   0.16330   0.00000  Uiso   1.00
C240   C     0.61633   0.49869   0.16908   0.00000  Uiso   1.00
C241   C     0.90354   0.45879   0.12822   0.00000  Uiso   1.00
C242   C     0.59579   0.54589   0.18726   0.00000  Uiso   1.00
C243   C     0.95016   0.45645   0.13033   0.00000  Uiso   1.00
C244   C     0.54925   0.54703   0.18647   0.00000  Uiso   1.00
C245   C     0.97645   0.50094   0.16138   0.00000  Uiso   1.00
C246   C     0.52330   0.50038   0.16259   0.00000  Uiso   1.00
C247   C     0.95598   0.54600   0.19194   0.00000  Uiso   1.00
C248   C     0.54408   0.45319   0.14014   0.00000  Uiso   1.00
C249   C     0.97118   0.41104   0.10202   0.00000  Uiso   1.00
C250   C     0.52783   0.59377   0.20794   0.00000  Uiso   1.00
Cu251  Cu    0.75500   0.50579   0.22813   0.00000  Uiso   1.00
Cu252  Cu    0.74499   0.49421   0.10521   0.00000  Uiso   1.00
H253   H     0.88240   0.42619   0.10267   0.00000  Uiso   1.00
H254   H     0.61644   0.58134   0.20313   0.00000  Uiso   1.00
H255   H     0.53310   0.37327   0.08935   0.00000  Uiso   1.00
H256   H     0.96649   0.62825   0.23338   0.00000  Uiso   1.00
H257   H     0.71400   0.46163   0.31686   0.00000  Uiso   1.00
H258   H     0.78602   0.53824   0.01656   0.00000  Uiso   1.00
N259   N     0.73744   0.48547   0.01284   0.00000  Uiso   1.00
N260   N     0.76255   0.51453   0.32049   0.00000  Uiso   1.00
O261   O     0.75325   0.42871   0.20659   0.00000  Uiso   1.00
O262   O     0.74674   0.57129   0.12674   0.00000  Uiso   1.00
O263   O     0.74480   0.41892   0.10279   0.00000  Uiso   1.00
O264   O     0.75520   0.58108   0.23055   0.00000  Uiso   1.00
O265   O     0.68935   0.50488   0.21857   0.00000  Uiso   1.00
O266   O     0.81064   0.49512   0.11476   0.00000  Uiso   1.00
O267   O     0.68090   0.49510   0.11477   0.00000  Uiso   1.00
O268   O     0.81910   0.50490   0.21857   0.00000  Uiso   1.00
N269   N     0.88998   0.58295   0.24209   0.00000  Uiso   1.00
H270   H     0.90797   0.59441   0.28390   0.00000  Uiso   1.00
C271   C     0.87034   0.62551   0.21965   0.00000  Uiso   1.00
H272   H     0.89210   0.66155   0.23462   0.00000  Uiso   1.00
H273   H     0.83757   0.63313   0.23921   0.00000  Uiso   1.00
H274   H     0.86554   0.61618   0.16891   0.00000  Uiso   1.00
N275   N     0.61236   0.40337   0.14050   0.00000  Uiso   1.00
H276   H     0.59619   0.37502   0.15789   0.00000  Uiso   1.00
C277   C     0.63132   0.38393   0.08262   0.00000  Uiso   1.00
H278   H     0.61488   0.34571   0.06061   0.00000  Uiso   1.00
H279   H     0.66705   0.37721   0.09116   0.00000  Uiso   1.00
H280   H     0.62792   0.41148   0.05120   0.00000  Uiso   1.00
N281   N     0.94585   0.36728   0.06585   0.00000  Uiso   1.00
H282   H     0.96111   0.34940   0.02724   0.00000  Uiso   1.00
C283   C     0.93073   0.66339   0.10028   0.00000  Uiso   1.00
H284   H     0.95972   0.64419   0.11780   0.00000  Uiso   1.00
H285   H     0.90807   0.63308   0.07008   0.00000  Uiso   1.00
H286   H     0.91208   0.34991   0.13929   0.00000  Uiso   1.00
N287   N     0.55187   0.64276   0.22197   0.00000  Uiso   1.00
H288   H     0.53532   0.33791   0.20515   0.00000  Uiso   1.00
C289   C     0.56559   0.66016   0.28611   0.00000  Uiso   1.00
H290   H     0.53594   0.66632   0.31374   0.00000  Uiso   1.00
H291   H     0.58523   0.36439   0.29294   0.00000  Uiso   1.00
H292   H     0.58662   0.63068   0.30162   0.00000  Uiso   1.00
N293   N     0.78949   0.65604   0.09988   0.00000  Uiso   1.00
H294   H     0.80690   0.62435   0.10657   0.00000  Uiso   1.00
C295   C     0.77777   0.65661   0.03634   0.00000  Uiso   1.00
H296   H     0.79780   0.62826   0.00624   0.00000  Uiso   1.00
H297   H     0.78638   0.36223   0.02735   0.00000  Uiso   1.00
H298   H     0.74170   0.64584   0.02453   0.00000  Uiso   1.00
N299   N     0.72418   0.34595   0.24112   0.00000  Uiso   1.00
H300   H     0.74126   0.37361   0.27497   0.00000  Uiso   1.00
C301   C     0.67611   0.34738   0.23461   0.00000  Uiso   1.00
H302   H     0.66176   0.66418   0.27133   0.00000  Uiso   1.00
H303   H     0.66237   0.65762   0.18931   0.00000  Uiso   1.00
H304   H     0.66630   0.38843   0.23954   0.00000  Uiso   1.00
C305   C     0.25136   0.73370   0.15164   0.00000  Uiso   1.00
C306   C     0.25110   0.93298   0.18166   0.00000  Uiso   1.00
C307   C     0.01773   0.74243   0.10941   0.00000  Uiso   1.00
C308   C     0.48188   0.92559   0.21396   0.00000  Uiso   1.00
C309   C     0.25999   0.67923   0.14539   0.00000  Uiso   1.00
C310   C     0.24674   0.98782   0.18908   0.00000  Uiso   1.00
C311   C     0.16456   0.83278   0.16769   0.00000  Uiso   1.00
C312   C     0.33544   0.83346   0.16555   0.00000  Uiso   1.00
C313   C     0.40978   0.87757   0.19804   0.00000  Uiso   1.00
C314   C     0.09092   0.78510   0.14752   0.00000  Uiso   1.00
C315   C     0.38364   0.83486   0.16330   0.00000  Uiso   1.00
C316   C     0.11633   0.83202   0.16908   0.00000  Uiso   1.00
C317   C     0.40354   0.79213   0.12822   0.00000  Uiso   1.00
C318   C     0.09579   0.87922   0.18726   0.00000  Uiso   1.00
C319   C     0.45016   0.78978   0.13033   0.00000  Uiso   1.00
C320   C     0.04925   0.88036   0.18647   0.00000  Uiso   1.00
C321   C     0.47645   0.83427   0.16138   0.00000  Uiso   1.00
C322   C     0.02330   0.83371   0.16259   0.00000  Uiso   1.00
C323   C     0.45598   0.87933   0.19194   0.00000  Uiso   1.00
C324   C     0.04408   0.78652   0.14014   0.00000  Uiso   1.00
C325   C     0.47118   0.74438   0.10202   0.00000  Uiso   1.00
C326   C     0.02783   0.92711   0.20794   0.00000  Uiso   1.00
Cu327  Cu    0.25500   0.83913   0.22813   0.00000  Uiso   1.00
Cu328  Cu    0.24499   0.82754   0.10521   0.00000  Uiso   1.00
H329   H     0.38240   0.75952   0.10267   0.00000  Uiso   1.00
H330   H     0.11644   0.91467   0.20313   0.00000  Uiso   1.00
H331   H     0.03310   0.70661   0.08935   0.00000  Uiso   1.00
H332   H     0.46649   0.96158   0.23338   0.00000  Uiso   1.00
H333   H     0.21400   0.79496   0.31686   0.00000  Uiso   1.00
H334   H     0.28602   0.87158   0.01656   0.00000  Uiso   1.00
N335   N     0.23744   0.81881   0.01284   0.00000  Uiso   1.00
N336   N     0.26255   0.84786   0.32049   0.00000  Uiso   1.00
O337   O     0.25325   0.76204   0.20659   0.00000  Uiso   1.00
O338   O     0.24674   0.90462   0.12674   0.00000  Uiso   1.00
O339   O     0.24480   0.75226   0.10279   0.00000  Uiso   1.00
O340   O     0.25520   0.91441   0.23055   0.00000  Uiso   1.00
O341   O     0.18935   0.83821   0.21857   0.00000  Uiso   1.00
O342   O     0.31064   0.82845   0.11476   0.00000  Uiso   1.00
O343   O     0.18090   0.82843   0.11477   0.00000  Uiso   1.00
O344   O     0.31910   0.83824   0.21857   0.00000  Uiso   1.00
N345   N     0.38998   0.91628   0.24209   0.00000  Uiso   1.00
H346   H     0.40797   0.92774   0.28390   0.00000  Uiso   1.00
C347   C     0.37034   0.95884   0.21965   0.00000  Uiso   1.00
H348   H     0.39210   0.99488   0.23462   0.00000  Uiso   1.00
H349   H     0.33757   0.96647   0.23921   0.00000  Uiso   1.00
H350   H     0.36554   0.94951   0.16891   0.00000  Uiso   1.00
N351   N     0.11236   0.73670   0.14050   0.00000  Uiso   1.00
H352   H     0.09619   0.70835   0.15789   0.00000  Uiso   1.00
C353   C     0.13132   0.71727   0.08262   0.00000  Uiso   1.00
H354   H     0.11488   0.67904   0.06061   0.00000  Uiso   1.00
H355   H     0.16705   0.71055   0.09116   0.00000  Uiso   1.00
H356   H     0.12792   0.74482   0.05120   0.00000  Uiso   1.00
N357   N     0.44585   0.70062   0.06585   0.00000  Uiso   1.00
H358   H     0.46111   0.68273   0.02724   0.00000  Uiso   1.00
C359   C     0.43073   0.99672   0.10028   0.00000  Uiso   1.00
H360   H     0.45972   0.97752   0.11780   0.00000  Uiso   1.00
H361   H     0.40807   0.96641   0.07008   0.00000  Uiso   1.00
H362   H     0.41208   0.68324   0.13929   0.00000  Uiso   1.00
N363   N     0.05187   0.97610   0.22197   0.00000  Uiso   1.00
H364   H     0.03532   0.67124   0.20515   0.00000  Uiso   1.00
C365   C     0.06559   0.99350   0.28611   0.00000  Uiso   1.00
H366   H     0.03594   0.99965   0.31374   0.00000  Uiso   1.00
H367   H     0.08523   0.69772   0.29294   0.00000  Uiso   1.00
H368   H     0.08662   0.96402   0.30162   0.00000  Uiso   1.00
N369   N     0.28949   0.98938   0.09988   0.00000  Uiso   1.00
H370   H     0.30690   0.95769   0.10657   0.00000  Uiso   1.00
C371   C     0.27777   0.98994   0.03634   0.00000  Uiso   1.00
H372   H     0.29780   0.96159   0.00624   0.00000  Uiso   1.00
H373   H     0.28638   0.69556   0.02735   0.00000  Uiso   1.00
H374   H     0.24170   0.97917   0.02453   0.00000  Uiso   1.00
N375   N     0.22418   0.67928   0.24112   0.00000  Uiso   1.00
H376   H     0.24126   0.70694   0.27497   0.00000  Uiso   1.00
C377   C     0.17611   0.68071   0.23461   0.00000  Uiso   1.00
H378   H     0.16176   0.99752   0.27133   0.00000  Uiso   1.00
H379   H     0.16237   0.99095   0.18931   0.00000  Uiso   1.00
H380   H     0.16630   0.72176   0.23954   0.00000  Uiso   1.00
C381   C     0.75136   0.73370   0.15164   0.00000  Uiso   1.00
C382   C     0.75110   0.93298   0.18166   0.00000  Uiso   1.00
C383   C     0.51773   0.74243   0.10941   0.00000  Uiso   1.00
C384   C     0.98188   0.92559   0.21396   0.00000  Uiso   1.00
C385   C     0.75999   0.67923   0.14539   0.00000  Uiso   1.00
C386   C     0.74674   0.98782   0.18908   0.00000  Uiso   1.00
C387   C     0.66456   0.83278   0.16769   0.00000  Uiso   1.00
C388   C     0.83544   0.83346   0.16555   0.00000  Uiso   1.00
C389   C     0.90978   0.87757   0.19804   0.00000  Uiso   1.00
C390   C     0.59092   0.78510   0.14752   0.00000  Uiso   1.00
C391   C     0.88364   0.83486   0.16330   0.00000  Uiso   1.00
C392   C     0.61633   0.83202   0.16908   0.00000  Uiso   1.00
C393   C     0.90354   0.79213   0.12822   0.00000  Uiso   1.00
C394   C     0.59579   0.87922   0.18726   0.00000  Uiso   1.00
C395   C     0.95016   0.78978   0.13033   0.00000  Uiso   1.00
C396   C     0.54925   0.88036   0.18647   0.00000  Uiso   1.00
C397   C     0.97645   0.83427   0.16138   0.00000  Uiso   1.00
C398   C     0.52330   0.83371   0.16259   0.00000  Uiso   1.00
C399   C     0.95598   0.87933   0.19194   0.00000  Uiso   1.00
C400   C     0.54408   0.78652   0.14014   0.00000  Uiso   1.00
C401   C     0.97118   0.74438   0.10202   0.00000  Uiso   1.00
C402   C     0.52783   0.92711   0.20794   0.00000  Uiso   1.00
Cu403  Cu    0.75500   0.83913   0.22813   0.00000  Uiso   1.00
Cu404  Cu    0.74499   0.82754   0.10521   0.00000  Uiso   1.00
H405   H     0.88240   0.75952   0.10267   0.00000  Uiso   1.00
H406   H     0.61644   0.91467   0.20313   0.00000  Uiso   1.00
H407   H     0.53310   0.70661   0.08935   0.00000  Uiso   1.00
H408   H     0.96649   0.96158   0.23338   0.00000  Uiso   1.00
H409   H     0.71400   0.79496   0.31686   0.00000  Uiso   1.00
H410   H     0.78602   0.87158   0.01656   0.00000  Uiso   1.00
N411   N     0.73744   0.81881   0.01284   0.00000  Uiso   1.00
N412   N     0.76255   0.84786   0.32049   0.00000  Uiso   1.00
O413   O     0.75325   0.76204   0.20659   0.00000  Uiso   1.00
O414   O     0.74674   0.90462   0.12674   0.00000  Uiso   1.00
O415   O     0.74480   0.75226   0.10279   0.00000  Uiso   1.00
O416   O     0.75520   0.91441   0.23055   0.00000  Uiso   1.00
O417   O     0.68935   0.83821   0.21857   0.00000  Uiso   1.00
O418   O     0.81064   0.82845   0.11476   0.00000  Uiso   1.00
O419   O     0.68090   0.82843   0.11477   0.00000  Uiso   1.00
O420   O     0.81910   0.83824   0.21857   0.00000  Uiso   1.00
N421   N     0.88998   0.91628   0.24209   0.00000  Uiso   1.00
H422   H     0.90797   0.92774   0.28390   0.00000  Uiso   1.00
C423   C     0.87034   0.95884   0.21965   0.00000  Uiso   1.00
H424   H     0.89210   0.99488   0.23462   0.00000  Uiso   1.00
H425   H     0.83757   0.96647   0.23921   0.00000  Uiso   1.00
H426   H     0.86554   0.94951   0.16891   0.00000  Uiso   1.00
N427   N     0.61236   0.73670   0.14050   0.00000  Uiso   1.00
H428   H     0.59619   0.70835   0.15789   0.00000  Uiso   1.00
C429   C     0.63132   0.71727   0.08262   0.00000  Uiso   1.00
H430   H     0.61488   0.67904   0.06061   0.00000  Uiso   1.00
H431   H     0.66705   0.71055   0.09116   0.00000  Uiso   1.00
H432   H     0.62792   0.74482   0.05120   0.00000  Uiso   1.00
N433   N     0.94585   0.70062   0.06585   0.00000  Uiso   1.00
H434   H     0.96111   0.68273   0.02724   0.00000  Uiso   1.00
C435   C     0.93073   0.99672   0.10028   0.00000  Uiso   1.00
H436   H     0.95972   0.97752   0.11780   0.00000  Uiso   1.00
H437   H     0.90807   0.96641   0.07008   0.00000  Uiso   1.00
H438   H     0.91208   0.68324   0.13929   0.00000  Uiso   1.00
N439   N     0.55187   0.97610   0.22197   0.00000  Uiso   1.00
H440   H     0.53532   0.67124   0.20515   0.00000  Uiso   1.00
C441   C     0.56559   0.99350   0.28611   0.00000  Uiso   1.00
H442   H     0.53594   0.99965   0.31374   0.00000  Uiso   1.00
H443   H     0.58523   0.69772   0.29294   0.00000  Uiso   1.00
H444   H     0.58662   0.96402   0.30162   0.00000  Uiso   1.00
N445   N     0.78949   0.98938   0.09988   0.00000  Uiso   1.00
H446   H     0.80690   0.95769   0.10657   0.00000  Uiso   1.00
C447   C     0.77777   0.98994   0.03634   0.00000  Uiso   1.00
H448   H     0.79780   0.96159   0.00624   0.00000  Uiso   1.00
H449   H     0.78638   0.69556   0.02735   0.00000  Uiso   1.00
H450   H     0.74170   0.97917   0.02453   0.00000  Uiso   1.00
N451   N     0.72418   0.67928   0.24112   0.00000  Uiso   1.00
H452   H     0.74126   0.70694   0.27497   0.00000  Uiso   1.00
C453   C     0.67611   0.68071   0.23461   0.00000  Uiso   1.00
H454   H     0.66176   0.99752   0.27133   0.00000  Uiso   1.00
H455   H     0.66237   0.99095   0.18931   0.00000  Uiso   1.00
H456   H     0.66630   0.72176   0.23954   0.00000  Uiso   1.00
C457   C     0.25136   0.06704   0.48497   0.00000  Uiso   1.00
C458   C     0.25110   0.26632   0.51499   0.00000  Uiso   1.00
C459   C     0.01773   0.07577   0.44274   0.00000  Uiso   1.00
C460   C     0.48188   0.25892   0.54729   0.00000  Uiso   1.00
C461   C     0.25999   0.01257   0.47872   0.00000  Uiso   1.00
C462   C     0.24674   0.32115   0.52241   0.00000  Uiso   1.00
C463   C     0.16456   0.16612   0.50102   0.00000  Uiso   1.00
C464   C     0.33544   0.16679   0.49889   0.00000  Uiso   1.00
C465   C     0.40978   0.21091   0.53137   0.00000  Uiso   1.00
C466   C     0.09092   0.11843   0.48086   0.00000  Uiso   1.00
C467   C     0.38364   0.16820   0.49663   0.00000  Uiso   1.00
C468   C     0.11633   0.16535   0.50241   0.00000  Uiso   1.00
C469   C     0.40354   0.12546   0.46156   0.00000  Uiso   1.00
C470   C     0.09579   0.21255   0.52060   0.00000  Uiso   1.00
C471   C     0.45016   0.12312   0.46366   0.00000  Uiso   1.00
C472   C     0.04925   0.21370   0.51980   0.00000  Uiso   1.00
C473   C     0.47645   0.16760   0.49472   0.00000  Uiso   1.00
C474   C     0.02330   0.16705   0.49592   0.00000  Uiso   1.00
C475   C     0.45598   0.21267   0.52528   0.00000  Uiso   1.00
C476   C     0.04408   0.11986   0.47348   0.00000  Uiso   1.00
C477   C     0.47118   0.07771   0.43535   0.00000  Uiso   1.00
C478   C     0.02783   0.26044   0.54128   0.00000  Uiso   1.00
Cu479  Cu    0.25500   0.17246   0.56146   0.00000  Uiso   1.00
Cu480  Cu    0.24499   0.16087   0.43854   0.00000  Uiso   1.00
H481   H     0.38240   0.09285   0.43601   0.00000  Uiso   1.00
H482   H     0.11644   0.24801   0.53646   0.00000  Uiso   1.00
H483   H     0.03310   0.03994   0.42269   0.00000  Uiso   1.00
H484   H     0.46649   0.29491   0.56671   0.00000  Uiso   1.00
H485   H     0.21400   0.12830   0.65019   0.00000  Uiso   1.00
H486   H     0.28602   0.20491   0.34990   0.00000  Uiso   1.00
N487   N     0.23744   0.15214   0.34617   0.00000  Uiso   1.00
N488   N     0.26255   0.18119   0.65383   0.00000  Uiso   1.00
O489   O     0.25325   0.09538   0.53992   0.00000  Uiso   1.00
O490   O     0.24674   0.23796   0.46008   0.00000  Uiso   1.00
O491   O     0.24480   0.08559   0.43612   0.00000  Uiso   1.00
O492   O     0.25520   0.24774   0.56388   0.00000  Uiso   1.00
O493   O     0.18935   0.17155   0.55191   0.00000  Uiso   1.00
O494   O     0.31064   0.16179   0.44809   0.00000  Uiso   1.00
O495   O     0.18090   0.16176   0.44810   0.00000  Uiso   1.00
O496   O     0.31910   0.17157   0.55190   0.00000  Uiso   1.00
N497   N     0.38998   0.24962   0.57542   0.00000  Uiso   1.00
H498   H     0.40797   0.26108   0.61723   0.00000  Uiso   1.00
C499   C     0.37034   0.29218   0.55298   0.00000  Uiso   1.00
H500   H     0.39210   0.32822   0.56795   0.00000  Uiso   1.00
H501   H     0.33757   0.29980   0.57254   0.00000  Uiso   1.00
H502   H     0.36554   0.28284   0.50225   0.00000  Uiso   1.00
N503   N     0.11236   0.07003   0.47384   0.00000  Uiso   1.00
H504   H     0.09619   0.04169   0.49122   0.00000  Uiso   1.00
C505   C     0.13132   0.05060   0.41595   0.00000  Uiso   1.00
H506   H     0.11488   0.01237   0.39394   0.00000  Uiso   1.00
H507   H     0.16705   0.04388   0.42449   0.00000  Uiso   1.00
H508   H     0.12792   0.07815   0.38453   0.00000  Uiso   1.00
N509   N     0.44585   0.03395   0.39918   0.00000  Uiso   1.00
H510   H     0.46111   0.01607   0.36057   0.00000  Uiso   1.00
C511   C     0.43073   0.33005   0.43361   0.00000  Uiso   1.00
H512   H     0.45972   0.31085   0.45113   0.00000  Uiso   1.00
H513   H     0.40807   0.29974   0.40342   0.00000  Uiso   1.00
H514   H     0.41208   0.01658   0.47263   0.00000  Uiso   1.00
N515   N     0.05187   0.30943   0.55531   0.00000  Uiso   1.00
H516   H     0.03532   0.00457   0.53848   0.00000  Uiso   1.00
C517   C     0.06559   0.32683   0.61945   0.00000  Uiso   1.00
H518   H     0.03594   0.33299   0.64707   0.00000  Uiso   1.00
H519   H     0.08523   0.03106   0.62628   0.00000  Uiso   1.00
H520   H     0.08662   0.29735   0.63495   0.00000  Uiso   1.00
N521   N     0.28949   0.32271   0.43321   0.00000  Uiso   1.00
H522   H     0.30690   0.29102   0.43991   0.00000  Uiso   1.00
C523   C     0.27777   0.32327   0.36967   0.00000  Uiso   1.00
H524   H     0.29780   0.29493   0.33958   0.00000  Uiso   1.00
H525   H     0.28638   0.02889   0.36069   0.00000  Uiso   1.00
H526   H     0.24170   0.31250   0.35787   0.00000  Uiso   1.00
N527   N     0.22418   0.01262   0.57445   0.00000  Uiso   1.00
H528   H     0.24126   0.04028   0.60830   0.00000  Uiso   1.00
C529   C     0.17611   0.01405   0.56795   0.00000  Uiso   1.00
H530   H     0.16176   0.33085   0.60467   0.00000  Uiso   1.00
H531   H     0.16237   0.32429   0.52264   0.00000  Uiso   1.00
H532   H     0.16630   0.05510   0.57288   0.00000  Uiso   1.00
C533   C     0.75136   0.06704   0.48497   0.00000  Uiso   1.00
C534   C     0.75110   0.26632   0.51499   0.00000  Uiso   1.00
C535   C     0.51773   0.07577   0.44274   0.00000  Uiso   1.00
C536   C     0.98188   0.25892   0.54729   0.00000  Uiso   1.00
C537   C     0.75999   0.01257   0.47872   0.00000  Uiso   1.00
C538   C     0.74674   0.32115   0.52241   0.00000  Uiso   1.00
C539   C     0.66456   0.16612   0.50102   0.00000  Uiso   1.00
C540   C     0.83544   0.16679   0.49889   0.00000  Uiso   1.00
C541   C     0.90978   0.21091   0.53137   0.00000  Uiso   1.00
C542   C     0.59092   0.11843   0.48086   0.00000  Uiso   1.00
C543   C     0.88364   0.16820   0.49663   0.00000  Uiso   1.00
C544   C     0.61633   0.16535   0.50241   0.00000  Uiso   1.00
C545   C     0.90354   0.12546   0.46156   0.00000  Uiso   1.00
C546   C     0.59579   0.21255   0.52060   0.00000  Uiso   1.00
C547   C     0.95016   0.12312   0.46366   0.00000  Uiso   1.00
C548   C     0.54925   0.21370   0.51980   0.00000  Uiso   1.00
C549   C     0.97645   0.16760   0.49472   0.00000  Uiso   1.00
C550   C     0.52330   0.16705   0.49592   0.00000  Uiso   1.00
C551   C     0.95598   0.21267   0.52528   0.00000  Uiso   1.00
C552   C     0.54408   0.11986   0.47348   0.00000  Uiso   1.00
C553   C     0.97118   0.07771   0.43535   0.00000  Uiso   1.00
C554   C     0.52783   0.26044   0.54128   0.00000  Uiso   1.00
Cu555  Cu    0.75500   0.17246   0.56146   0.00000  Uiso   1.00
Cu556  Cu    0.74499   0.16087   0.43854   0.00000  Uiso   1.00
H557   H     0.88240   0.09285   0.43601   0.00000  Uiso   1.00
H558   H     0.61644   0.24801   0.53646   0.00000  Uiso   1.00
H559   H     0.53310   0.03994   0.42269   0.00000  Uiso   1.00
H560   H     0.96649   0.29491   0.56671   0.00000  Uiso   1.00
H561   H     0.71400   0.12830   0.65019   0.00000  Uiso   1.00
H562   H     0.78602   0.20491   0.34990   0.00000  Uiso   1.00
N563   N     0.73744   0.15214   0.34617   0.00000  Uiso   1.00
N564   N     0.76255   0.18119   0.65383   0.00000  Uiso   1.00
O565   O     0.75325   0.09538   0.53992   0.00000  Uiso   1.00
O566   O     0.74674   0.23796   0.46008   0.00000  Uiso   1.00
O567   O     0.74480   0.08559   0.43612   0.00000  Uiso   1.00
O568   O     0.75520   0.24774   0.56388   0.00000  Uiso   1.00
O569   O     0.68935   0.17155   0.55191   0.00000  Uiso   1.00
O570   O     0.81064   0.16179   0.44809   0.00000  Uiso   1.00
O571   O     0.68090   0.16176   0.44810   0.00000  Uiso   1.00
O572   O     0.81910   0.17157   0.55190   0.00000  Uiso   1.00
N573   N     0.88998   0.24962   0.57542   0.00000  Uiso   1.00
H574   H     0.90797   0.26108   0.61723   0.00000  Uiso   1.00
C575   C     0.87034   0.29218   0.55298   0.00000  Uiso   1.00
H576   H     0.89210   0.32822   0.56795   0.00000  Uiso   1.00
H577   H     0.83757   0.29980   0.57254   0.00000  Uiso   1.00
H578   H     0.86554   0.28284   0.50225   0.00000  Uiso   1.00
N579   N     0.61236   0.07003   0.47384   0.00000  Uiso   1.00
H580   H     0.59619   0.04169   0.49122   0.00000  Uiso   1.00
C581   C     0.63132   0.05060   0.41595   0.00000  Uiso   1.00
H582   H     0.61488   0.01237   0.39394   0.00000  Uiso   1.00
H583   H     0.66705   0.04388   0.42449   0.00000  Uiso   1.00
H584   H     0.62792   0.07815   0.38453   0.00000  Uiso   1.00
N585   N     0.94585   0.03395   0.39918   0.00000  Uiso   1.00
H586   H     0.96111   0.01607   0.36057   0.00000  Uiso   1.00
C587   C     0.93073   0.33005   0.43361   0.00000  Uiso   1.00
H588   H     0.95972   0.31085   0.45113   0.00000  Uiso   1.00
H589   H     0.90807   0.29974   0.40342   0.00000  Uiso   1.00
H590   H     0.91208   0.01658   0.47263   0.00000  Uiso   1.00
N591   N     0.55187   0.30943   0.55531   0.00000  Uiso   1.00
H592   H     0.53532   0.00457   0.53848   0.00000  Uiso   1.00
C593   C     0.56559   0.32683   0.61945   0.00000  Uiso   1.00
H594   H     0.53594   0.33299   0.64707   0.00000  Uiso   1.00
H595   H     0.58523   0.03106   0.62628   0.00000  Uiso   1.00
H596   H     0.58662   0.29735   0.63495   0.00000  Uiso   1.00
N597   N     0.78949   0.32271   0.43321   0.00000  Uiso   1.00
H598   H     0.80690   0.29102   0.43991   0.00000  Uiso   1.00
C599   C     0.77777   0.32327   0.36967   0.00000  Uiso   1.00
H600   H     0.79780   0.29493   0.33958   0.00000  Uiso   1.00
H601   H     0.78638   0.02889   0.36069   0.00000  Uiso   1.00
H602   H     0.74170   0.31250   0.35787   0.00000  Uiso   1.00
N603   N     0.72418   0.01262   0.57445   0.00000  Uiso   1.00
H604   H     0.74126   0.04028   0.60830   0.00000  Uiso   1.00
C605   C     0.67611   0.01405   0.56795   0.00000  Uiso   1.00
H606   H     0.66176   0.33085   0.60467   0.00000  Uiso   1.00
H607   H     0.66237   0.32429   0.52264   0.00000  Uiso   1.00
H608   H     0.66630   0.05510   0.57288   0.00000  Uiso   1.00
C609   C     0.25136   0.40037   0.48497   0.00000  Uiso   1.00
C610   C     0.25110   0.59965   0.51499   0.00000  Uiso   1.00
C611   C     0.01773   0.40910   0.44274   0.00000  Uiso   1.00
C612   C     0.48188   0.59226   0.54729   0.00000  Uiso   1.00
C613   C     0.25999   0.34590   0.47872   0.00000  Uiso   1.00
C614   C     0.24674   0.65448   0.52241   0.00000  Uiso   1.00
C615   C     0.16456   0.49945   0.50102   0.00000  Uiso   1.00
C616   C     0.33544   0.50013   0.49889   0.00000  Uiso   1.00
C617   C     0.40978   0.54424   0.53137   0.00000  Uiso   1.00
C618   C     0.09092   0.45177   0.48086   0.00000  Uiso   1.00
C619   C     0.38364   0.50153   0.49663   0.00000  Uiso   1.00
C620   C     0.11633   0.49869   0.50241   0.00000  Uiso   1.00
C621   C     0.40354   0.45879   0.46156   0.00000  Uiso   1.00
C622   C     0.09579   0.54589   0.52060   0.00000  Uiso   1.00
C623   C     0.45016   0.45645   0.46366   0.00000  Uiso   1.00
C624   C     0.04925   0.54703   0.51980   0.00000  Uiso   1.00
C625   C     0.47645   0.50094   0.49472   0.00000  Uiso   1.00
C626   C     0.02330   0.50038   0.49592   0.00000  Uiso   1.00
C627   C     0.45598   0.54600   0.52528   0.00000  Uiso   1.00
C628   C     0.04408   0.45319   0.47348   0.00000  Uiso   1.00
C629   C     0.47118   0.41104   0.43535   0.00000  Uiso   1.00
C630   C     0.02783   0.59377   0.54128   0.00000  Uiso   1.00
Cu631  Cu    0.25500   0.50579   0.56146   0.00000  Uiso   1.00
Cu632  Cu    0.24499   0.49421   0.43854   0.00000  Uiso   1.00
H633   H     0.38240   0.42619   0.43601   0.00000  Uiso   1.00
H634   H     0.11644   0.58134   0.53646   0.00000  Uiso   1.00
H635   H     0.03310   0.37327   0.42269   0.00000  Uiso   1.00
H636   H     0.46649   0.62825   0.56671   0.00000  Uiso   1.00
H637   H     0.21400   0.46163   0.65019   0.00000  Uiso   1.00
H638   H     0.28602   0.53824   0.34990   0.00000  Uiso   1.00
N639   N     0.23744   0.48547   0.34617   0.00000  Uiso   1.00
N640   N     0.26255   0.51453   0.65383   0.00000  Uiso   1.00
O641   O     0.25325   0.42871   0.53992   0.00000  Uiso   1.00
O642   O     0.24674   0.57129   0.46008   0.00000  Uiso   1.00
O643   O     0.24480   0.41892   0.43612   0.00000  Uiso   1.00
O644   O     0.25520   0.58108   0.56388   0.00000  Uiso   1.00
O645   O     0.18935   0.50488   0.55191   0.00000  Uiso   1.00
O646   O     0.31064   0.49512   0.44809   0.00000  Uiso   1.00
O647   O     0.18090   0.49510   0.44810   0.00000  Uiso   1.00
O648   O     0.31910   0.50490   0.55190   0.00000  Uiso   1.00
N649   N     0.38998   0.58295   0.57542   0.00000  Uiso   1.00
H650   H     0.40797   0.59441   0.61723   0.00000  Uiso   1.00
C651   C     0.37034   0.62551   0.55298   0.00000  Uiso   1.00
H652   H     0.39210   0.66155   0.56795   0.00000  Uiso   1.00
H653   H     0.33757   0.63313   0.57254   0.00000  Uiso   1.00
H654   H     0.36554   0.61618   0.50225   0.00000  Uiso   1.00
N655   N     0.11236   0.40337   0.47384   0.00000  Uiso   1.00
H656   H     0.09619   0.37502   0.49122   0.00000  Uiso   1.00
C657   C     0.13132   0.38393   0.41595   0.00000  Uiso   1.00
H658   H     0.11488   0.34571   0.39394   0.00000  Uiso   1.00
H659   H     0.16705   0.37721   0.42449   0.00000  Uiso   1.00
H660   H     0.12792   0.41148   0.38453   0.00000  Uiso   1.00
N661   N     0.44585   0.36728   0.39918   0.00000  Uiso   1.00
H662   H     0.46111   0.34940   0.36057   0.00000  Uiso   1.00
C663   C     0.43073   0.66339   0.43361   0.00000  Uiso   1.00
H664   H     0.45972   0.64419   0.45113   0.00000  Uiso   1.00
H665   H     0.40807   0.63308   0.40342   0.00000  Uiso   1.00
H666   H     0.41208   0.34991   0.47263   0.00000  Uiso   1.00
N667   N     0.05187   0.64276   0.55531   0.00000  Uiso   1.00
H668   H     0.03532   0.33791   0.53848   0.00000  Uiso   1.00
C669   C     0.06559   0.66016   0.61945   0.00000  Uiso   1.00
H670   H     0.03594   0.66632   0.64707   0.00000  Uiso   1.00
H671   H     0.08523   0.36439   0.62628   0.00000  Uiso   1.00
H672   H     0.08662   0.63068   0.63495   0.00000  Uiso   1.00
N673   N     0.28949   0.65604   0.43321   0.00000  Uiso   1.00
H674   H     0.30690   0.62435   0.43991   0.00000  Uiso   1.00
C675   C     0.27777   0.65661   0.36967   0.00000  Uiso   1.00
H676   H     0.29780   0.62826   0.33958   0.00000  Uiso   1.00
H677   H     0.28638   0.36223   0.36069   0.00000  Uiso   1.00
H678   H     0.24170   0.64584   0.35787   0.00000  Uiso   1.00
N679   N     0.22418   0.34595   0.57445   0.00000  Uiso   1.00
H680   H     0.24126   0.37361   0.60830   0.00000  Uiso   1.00
C681   C     0.17611   0.34738   0.56795   0.00000  Uiso   1.00
H682   H     0.16176   0.66418   0.60467   0.00000  Uiso   1.00
H683   H     0.16237   0.65762   0.52264   0.00000  Uiso   1.00
H684   H     0.16630   0.38843   0.57288   0.00000  Uiso   1.00
C685   C     0.75136   0.40037   0.48497   0.00000  Uiso   1.00
C686   C     0.75110   0.59965   0.51499   0.00000  Uiso   1.00
C687   C     0.51773   0.40910   0.44274   0.00000  Uiso   1.00
C688   C     0.98188   0.59226   0.54729   0.00000  Uiso   1.00
C689   C     0.75999   0.34590   0.47872   0.00000  Uiso   1.00
C690   C     0.74674   0.65448   0.52241   0.00000  Uiso   1.00
C691   C     0.66456   0.49945   0.50102   0.00000  Uiso   1.00
C692   C     0.83544   0.50013   0.49889   0.00000  Uiso   1.00
C693   C     0.90978   0.54424   0.53137   0.00000  Uiso   1.00
C694   C     0.59092   0.45177   0.48086   0.00000  Uiso   1.00
C695   C     0.88364   0.50153   0.49663   0.00000  Uiso   1.00
C696   C     0.61633   0.49869   0.50241   0.00000  Uiso   1.00
C697   C     0.90354   0.45879   0.46156   0.00000  Uiso   1.00
C698   C     0.59579   0.54589   0.52060   0.00000  Uiso   1.00
C699   C     0.95016   0.45645   0.46366   0.00000  Uiso   1.00
C700   C     0.54925   0.54703   0.51980   0.00000  Uiso   1.00
C701   C     0.97645   0.50094   0.49472   0.00000  Uiso   1.00
C702   C     0.52330   0.50038   0.49592   0.00000  Uiso   1.00
C703   C     0.95598   0.54600   0.52528   0.00000  Uiso   1.00
C704   C     0.54408   0.45319   0.47348   0.00000  Uiso   1.00
C705   C     0.97118   0.41104   0.43535   0.00000  Uiso   1.00
C706   C     0.52783   0.59377   0.54128   0.00000  Uiso   1.00
Cu707  Cu    0.75500   0.50579   0.56146   0.00000  Uiso   1.00
Cu708  Cu    0.74499   0.49421   0.43854   0.00000  Uiso   1.00
H709   H     0.88240   0.42619   0.43601   0.00000  Uiso   1.00
H710   H     0.61644   0.58134   0.53646   0.00000  Uiso   1.00
H711   H     0.53310   0.37327   0.42269   0.00000  Uiso   1.00
H712   H     0.96649   0.62825   0.56671   0.00000  Uiso   1.00
H713   H     0.71400   0.46163   0.65019   0.00000  Uiso   1.00
H714   H     0.78602   0.53824   0.34990   0.00000  Uiso   1.00
N715   N     0.73744   0.48547   0.34617   0.00000  Uiso   1.00
N716   N     0.76255   0.51453   0.65383   0.00000  Uiso   1.00
O717   O     0.75325   0.42871   0.53992   0.00000  Uiso   1.00
O718   O     0.74674   0.57129   0.46008   0.00000  Uiso   1.00
O719   O     0.74480   0.41892   0.43612   0.00000  Uiso   1.00
O720   O     0.75520   0.58108   0.56388   0.00000  Uiso   1.00
O721   O     0.68935   0.50488   0.55191   0.00000  Uiso   1.00
O722   O     0.81064   0.49512   0.44809   0.00000  Uiso   1.00
O723   O     0.68090   0.49510   0.44810   0.00000  Uiso   1.00
O724   O     0.81910   0.50490   0.55190   0.00000  Uiso   1.00
N725   N     0.88998   0.58295   0.57542   0.00000  Uiso   1.00
H726   H     0.90797   0.59441   0.61723   0.00000  Uiso   1.00
C727   C     0.87034   0.62551   0.55298   0.00000  Uiso   1.00
H728   H     0.89210   0.66155   0.56795   0.00000  Uiso   1.00
H729   H     0.83757   0.63313   0.57254   0.00000  Uiso   1.00
H730   H     0.86554   0.61618   0.50225   0.00000  Uiso   1.00
N731   N     0.61236   0.40337   0.47384   0.00000  Uiso   1.00
H732   H     0.59619   0.37502   0.49122   0.00000  Uiso   1.00
C733   C     0.63132   0.38393   0.41595   0.00000  Uiso   1.00
H734   H     0.61488   0.34571   0.39394   0.00000  Uiso   1.00
H735   H     0.66705   0.37721   0.42449   0.00000  Uiso   1.00
H736   H     0.62792   0.41148   0.38453   0.00000  Uiso   1.00
N737   N     0.94585   0.36728   0.39918   0.00000  Uiso   1.00
H738   H     0.96111   0.34940   0.36057   0.00000  Uiso   1.00
C739   C     0.93073   0.66339   0.43361   0.00000  Uiso   1.00
H740   H     0.95972   0.64419   0.45113   0.00000  Uiso   1.00
H741   H     0.90807   0.63308   0.40342   0.00000  Uiso   1.00
H742   H     0.91208   0.34991   0.47263   0.00000  Uiso   1.00
N743   N     0.55187   0.64276   0.55531   0.00000  Uiso   1.00
H744   H     0.53532   0.33791   0.53848   0.00000  Uiso   1.00
C745   C     0.56559   0.66016   0.61945   0.00000  Uiso   1.00
H746   H     0.53594   0.66632   0.64707   0.00000  Uiso   1.00
H747   H     0.58523   0.36439   0.62628   0.00000  Uiso   1.00
H748   H     0.58662   0.63068   0.63495   0.00000  Uiso   1.00
N749   N     0.78949   0.65604   0.43321   0.00000  Uiso   1.00
H750   H     0.80690   0.62435   0.43991   0.00000  Uiso   1.00
C751   C     0.77777   0.65661   0.36967   0.00000  Uiso   1.00
H752   H     0.79780   0.62826   0.33958   0.00000  Uiso   1.00
H753   H     0.78638   0.36223   0.36069   0.00000  Uiso   1.00
H754   H     0.74170   0.64584   0.35787   0.00000  Uiso   1.00
N755   N     0.72418   0.34595   0.57445   0.00000  Uiso   1.00
H756   H     0.74126   0.37361   0.60830   0.00000  Uiso   1.00
C757   C     0.67611   0.34738   0.56795   0.00000  Uiso   1.00
H758   H     0.66176   0.66418   0.60467   0.00000  Uiso   1.00
H759   H     0.66237   0.65762   0.52264   0.00000  Uiso   1.00
H760   H     0.66630   0.38843   0.57288   0.00000  Uiso   1.00
C761   C     0.25136   0.73370   0.48497   0.00000  Uiso   1.00
C762   C     0.25110   0.93298   0.51499   0.00000  Uiso   1.00
C763   C     0.01773   0.74243   0.44274   0.00000  Uiso   1.00
C764   C     0.48188   0.92559   0.54729   0.00000  Uiso   1.00
C765   C     0.25999   0.67923   0.47872   0.00000  Uiso   1.00
C766   C     0.24674   0.98782   0.52241   0.00000  Uiso   1.00
C767   C     0.16456   0.83278   0.50102   0.00000  Uiso   1.00
C768   C     0.33544   0.83346   0.49889   0.00000  Uiso   1.00
C769   C     0.40978   0.87757   0.53137   0.00000  Uiso   1.00
C770   C     0.09092   0.78510   0.48086   0.00000  Uiso   1.00
C771   C     0.38364   0.83486   0.49663   0.00000  Uiso   1.00
C772   C     0.11633   0.83202   0.50241   0.00000  Uiso   1.00
C773   C     0.40354   0.79213   0.46156   0.00000  Uiso   1.00
C774   C     0.09579   0.87922   0.52060   0.00000  Uiso   1.00
C775   C     0.45016   0.78978   0.46366   0.00000  Uiso   1.00
C776   C     0.04925   0.88036   0.51980   0.00000  Uiso   1.00
C777   C     0.47645   0.83427   0.49472   0.00000  Uiso   1.00
C778   C     0.02330   0.83371   0.49592   0.00000  Uiso   1.00
C779   C     0.45598   0.87933   0.52528   0.00000  Uiso   1.00
C780   C     0.04408   0.78652   0.47348   0.00000  Uiso   1.00
C781   C     0.47118   0.74438   0.43535   0.00000  Uiso   1.00
C782   C     0.02783   0.92711   0.54128   0.00000  Uiso   1.00
Cu783  Cu    0.25500   0.83913   0.56146   0.00000  Uiso   1.00
Cu784  Cu    0.24499   0.82754   0.43854   0.00000  Uiso   1.00
H785   H     0.38240   0.75952   0.43601   0.00000  Uiso   1.00
H786   H     0.11644   0.91467   0.53646   0.00000  Uiso   1.00
H787   H     0.03310   0.70661   0.42269   0.00000  Uiso   1.00
H788   H     0.46649   0.96158   0.56671   0.00000  Uiso   1.00
H789   H     0.21400   0.79496   0.65019   0.00000  Uiso   1.00
H790   H     0.28602   0.87158   0.34990   0.00000  Uiso   1.00
N791   N     0.23744   0.81881   0.34617   0.00000  Uiso   1.00
N792   N     0.26255   0.84786   0.65383   0.00000  Uiso   1.00
O793   O     0.25325   0.76204   0.53992   0.00000  Uiso   1.00
O794   O     0.24674   0.90462   0.46008   0.00000  Uiso   1.00
O795   O     0.24480   0.75226   0.43612   0.00000  Uiso   1.00
O796   O     0.25520   0.91441   0.56388   0.00000  Uiso   1.00
O797   O     0.18935   0.83821   0.55191   0.00000  Uiso   1.00
O798   O     0.31064   0.82845   0.44809   0.00000  Uiso   1.00
O799   O     0.18090   0.82843   0.44810   0.00000  Uiso   1.00
O800   O     0.31910   0.83824   0.55190   0.00000  Uiso   1.00
N801   N     0.38998   0.91628   0.57542   0.00000  Uiso   1.00
H802   H     0.40797   0.92774   0.61723   0.00000  Uiso   1.00
C803   C     0.37034   0.95884   0.55298   0.00000  Uiso   1.00
H804   H     0.39210   0.99488   0.56795   0.00000  Uiso   1.00
H805   H     0.33757   0.96647   0.57254   0.00000  Uiso   1.00
H806   H     0.36554   0.94951   0.50225   0.00000  Uiso   1.00
N807   N     0.11236   0.73670   0.47384   0.00000  Uiso   1.00
H808   H     0.09619   0.70835   0.49122   0.00000  Uiso   1.00
C809   C     0.13132   0.71727   0.41595   0.00000  Uiso   1.00
H810   H     0.11488   0.67904   0.39394   0.00000  Uiso   1.00
H811   H     0.16705   0.71055   0.42449   0.00000  Uiso   1.00
H812   H     0.12792   0.74482   0.38453   0.00000  Uiso   1.00
N813   N     0.44585   0.70062   0.39918   0.00000  Uiso   1.00
H814   H     0.46111   0.68273   0.36057   0.00000  Uiso   1.00
C815   C     0.43073   0.99672   0.43361   0.00000  Uiso   1.00
H816   H     0.45972   0.97752   0.45113   0.00000  Uiso   1.00
H817   H     0.40807   0.96641   0.40342   0.00000  Uiso   1.00
H818   H     0.41208   0.68324   0.47263   0.00000  Uiso   1.00
N819   N     0.05187   0.97610   0.55531   0.00000  Uiso   1.00
H820   H     0.03532   0.67124   0.53848   0.00000  Uiso   1.00
C821   C     0.06559   0.99350   0.61945   0.00000  Uiso   1.00
H822   H     0.03594   0.99965   0.64707   0.00000  Uiso   1.00
H823   H     0.08523   0.69772   0.62628   0.00000  Uiso   1.00
H824   H     0.08662   0.96402   0.63495   0.00000  Uiso   1.00
N825   N     0.28949   0.98938   0.43321   0.00000  Uiso   1.00
H826   H     0.30690   0.95769   0.43991   0.00000  Uiso   1.00
C827   C     0.27777   0.98994   0.36967   0.00000  Uiso   1.00
H828   H     0.29780   0.96159   0.33958   0.00000  Uiso   1.00
H829   H     0.28638   0.69556   0.36069   0.00000  Uiso   1.00
H830   H     0.24170   0.97917   0.35787   0.00000  Uiso   1.00
N831   N     0.22418   0.67928   0.57445   0.00000  Uiso   1.00
H832   H     0.24126   0.70694   0.60830   0.00000  Uiso   1.00
C833   C     0.17611   0.68071   0.56795   0.00000  Uiso   1.00
H834   H     0.16176   0.99752   0.60467   0.00000  Uiso   1.00
H835   H     0.16237   0.99095   0.52264   0.00000  Uiso   1.00
H836   H     0.16630   0.72176   0.57288   0.00000  Uiso   1.00
C837   C     0.75136   0.73370   0.48497   0.00000  Uiso   1.00
C838   C     0.75110   0.93298   0.51499   0.00000  Uiso   1.00
C839   C     0.51773   0.74243   0.44274   0.00000  Uiso   1.00
C840   C     0.98188   0.92559   0.54729   0.00000  Uiso   1.00
C841   C     0.75999   0.67923   0.47872   0.00000  Uiso   1.00
C842   C     0.74674   0.98782   0.52241   0.00000  Uiso   1.00
C843   C     0.66456   0.83278   0.50102   0.00000  Uiso   1.00
C844   C     0.83544   0.83346   0.49889   0.00000  Uiso   1.00
C845   C     0.90978   0.87757   0.53137   0.00000  Uiso   1.00
C846   C     0.59092   0.78510   0.48086   0.00000  Uiso   1.00
C847   C     0.88364   0.83486   0.49663   0.00000  Uiso   1.00
C848   C     0.61633   0.83202   0.50241   0.00000  Uiso   1.00
C849   C     0.90354   0.79213   0.46156   0.00000  Uiso   1.00
C850   C     0.59579   0.87922   0.52060   0.00000  Uiso   1.00
C851   C     0.95016   0.78978   0.46366   0.00000  Uiso   1.00
C852   C     0.54925   0.88036   0.51980   0.00000  Uiso   1.00
C853   C     0.97645   0.83427   0.49472   0.00000  Uiso   1.00
C854   C     0.52330   0.83371   0.49592   0.00000  Uiso   1.00
C855   C     0.95598   0.87933   0.52528   0.00000  Uiso   1.00
C856   C     0.54408   0.78652   0.47348   0.00000  Uiso   1.00
C857   C     0.97118   0.74438   0.43535   0.00000  Uiso   1.00
C858   C     0.52783   0.92711   0.54128   0.00000  Uiso   1.00
Cu859  Cu    0.75500   0.83913   0.56146   0.00000  Uiso   1.00
Cu860  Cu    0.74499   0.82754   0.43854   0.00000  Uiso   1.00
H861   H     0.88240   0.75952   0.43601   0.00000  Uiso   1.00
H862   H     0.61644   0.91467   0.53646   0.00000  Uiso   1.00
H863   H     0.53310   0.70661   0.42269   0.00000  Uiso   1.00
H864   H     0.96649   0.96158   0.56671   0.00000  Uiso   1.00
H865   H     0.71400   0.79496   0.65019   0.00000  Uiso   1.00
H866   H     0.78602   0.87158   0.34990   0.00000  Uiso   1.00
N867   N     0.73744   0.81881   0.34617   0.00000  Uiso   1.00
N868   N     0.76255   0.84786   0.65383   0.00000  Uiso   1.00
O869   O     0.75325   0.76204   0.53992   0.00000  Uiso   1.00
O870   O     0.74674   0.90462   0.46008   0.00000  Uiso   1.00
O871   O     0.74480   0.75226   0.43612   0.00000  Uiso   1.00
O872   O     0.75520   0.91441   0.56388   0.00000  Uiso   1.00
O873   O     0.68935   0.83821   0.55191   0.00000  Uiso   1.00
O874   O     0.81064   0.82845   0.44809   0.00000  Uiso   1.00
O875   O     0.68090   0.82843   0.44810   0.00000  Uiso   1.00
O876   O     0.81910   0.83824   0.55190   0.00000  Uiso   1.00
N877   N     0.88998   0.91628   0.57542   0.00000  Uiso   1.00
H878   H     0.90797   0.92774   0.61723   0.00000  Uiso   1.00
C879   C     0.87034   0.95884   0.55298   0.00000  Uiso   1.00
H880   H     0.89210   0.99488   0.56795   0.00000  Uiso   1.00
H881   H     0.83757   0.96647   0.57254   0.00000  Uiso   1.00
H882   H     0.86554   0.94951   0.50225   0.00000  Uiso   1.00
N883   N     0.61236   0.73670   0.47384   0.00000  Uiso   1.00
H884   H     0.59619   0.70835   0.49122   0.00000  Uiso   1.00
C885   C     0.63132   0.71727   0.41595   0.00000  Uiso   1.00
H886   H     0.61488   0.67904   0.39394   0.00000  Uiso   1.00
H887   H     0.66705   0.71055   0.42449   0.00000  Uiso   1.00
H888   H     0.62792   0.74482   0.38453   0.00000  Uiso   1.00
N889   N     0.94585   0.70062   0.39918   0.00000  Uiso   1.00
H890   H     0.96111   0.68273   0.36057   0.00000  Uiso   1.00
C891   C     0.93073   0.99672   0.43361   0.00000  Uiso   1.00
H892   H     0.95972   0.97752   0.45113   0.00000  Uiso   1.00
H893   H     0.90807   0.96641   0.40342   0.00000  Uiso   1.00
H894   H     0.91208   0.68324   0.47263   0.00000  Uiso   1.00
N895   N     0.55187   0.97610   0.55531   0.00000  Uiso   1.00
H896   H     0.53532   0.67124   0.53848   0.00000  Uiso   1.00
C897   C     0.56559   0.99350   0.61945   0.00000  Uiso   1.00
H898   H     0.53594   0.99965   0.64707   0.00000  Uiso   1.00
H899   H     0.58523   0.69772   0.62628   0.00000  Uiso   1.00
H900   H     0.58662   0.96402   0.63495   0.00000  Uiso   1.00
N901   N     0.78949   0.98938   0.43321   0.00000  Uiso   1.00
H902   H     0.80690   0.95769   0.43991   0.00000  Uiso   1.00
C903   C     0.77777   0.98994   0.36967   0.00000  Uiso   1.00
H904   H     0.79780   0.96159   0.33958   0.00000  Uiso   1.00
H905   H     0.78638   0.69556   0.36069   0.00000  Uiso   1.00
H906   H     0.74170   0.97917   0.35787   0.00000  Uiso   1.00
N907   N     0.72418   0.67928   0.57445   0.00000  Uiso   1.00
H908   H     0.74126   0.70694   0.60830   0.00000  Uiso   1.00
C909   C     0.67611   0.68071   0.56795   0.00000  Uiso   1.00
H910   H     0.66176   0.99752   0.60467   0.00000  Uiso   1.00
H911   H     0.66237   0.99095   0.52264   0.00000  Uiso   1.00
H912   H     0.66630   0.72176   0.57288   0.00000  Uiso   1.00
C913   C     0.25136   0.06704   0.81831   0.00000  Uiso   1.00
C914   C     0.25110   0.26632   0.84833   0.00000  Uiso   1.00
C915   C     0.01773   0.07577   0.77607   0.00000  Uiso   1.00
C916   C     0.48188   0.25892   0.88063   0.00000  Uiso   1.00
C917   C     0.25999   0.01257   0.81205   0.00000  Uiso   1.00
C918   C     0.24674   0.32115   0.85575   0.00000  Uiso   1.00
C919   C     0.16456   0.16612   0.83436   0.00000  Uiso   1.00
C920   C     0.33544   0.16679   0.83222   0.00000  Uiso   1.00
C921   C     0.40978   0.21091   0.86470   0.00000  Uiso   1.00
C922   C     0.09092   0.11843   0.81419   0.00000  Uiso   1.00
C923   C     0.38364   0.16820   0.82997   0.00000  Uiso   1.00
C924   C     0.11633   0.16535   0.83574   0.00000  Uiso   1.00
C925   C     0.40354   0.12546   0.79489   0.00000  Uiso   1.00
C926   C     0.09579   0.21255   0.85393   0.00000  Uiso   1.00
C927   C     0.45016   0.12312   0.79699   0.00000  Uiso   1.00
C928   C     0.04925   0.21370   0.85313   0.00000  Uiso   1.00
C929   C     0.47645   0.16760   0.82805   0.00000  Uiso   1.00
C930   C     0.02330   0.16705   0.82925   0.00000  Uiso   1.00
C931   C     0.45598   0.21267   0.85861   0.00000  Uiso   1.00
C932   C     0.04408   0.11986   0.80681   0.00000  Uiso   1.00
C933   C     0.47118   0.07771   0.76869   0.00000  Uiso   1.00
C934   C     0.02783   0.26044   0.87461   0.00000  Uiso   1.00
Cu935  Cu    0.25500   0.17246   0.89479   0.00000  Uiso   1.00
Cu936  Cu    0.24499   0.16087   0.77187   0.00000  Uiso   1.00
H937   H     0.38240   0.09285   0.76934   0.00000  Uiso   1.00
H938   H     0.11644   0.24801   0.86980   0.00000  Uiso   1.00
H939   H     0.03310   0.03994   0.75602   0.00000  Uiso   1.00
H940   H     0.46649   0.29491   0.90005   0.00000  Uiso   1.00
H941   H     0.21400   0.12830   0.98353   0.00000  Uiso   1.00
H942   H     0.28602   0.20491   0.68323   0.00000  Uiso   1.00
N943   N     0.23744   0.15214   0.67951   0.00000  Uiso   1.00
N944   N     0.26255   0.18119   0.98716   0.00000  Uiso   1.00
O945   O     0.25325   0.09538   0.87326   0.00000  Uiso   1.00
O946   O     0.24674   0.23796   0.79341   0.00000  Uiso   1.00
O947   O     0.24480   0.08559   0.76945   0.00000  Uiso   1.00
O948   O     0.25520   0.24774   0.89721   0.00000  Uiso   1.00
O949   O     0.18935   0.17155   0.88524   0.00000  Uiso   1.00
O950   O     0.31064   0.16179   0.78143   0.00000  Uiso   1.00
O951   O     0.18090   0.16176   0.78143   0.00000  Uiso   1.00
O952   O     0.31910   0.17157   0.88523   0.00000  Uiso   1.00
N953   N     0.38998   0.24962   0.90875   0.00000  Uiso   1.00
H954   H     0.40797   0.26108   0.95057   0.00000  Uiso   1.00
C955   C     0.37034   0.29218   0.88631   0.00000  Uiso   1.00
H956   H     0.39210   0.32822   0.90129   0.00000  Uiso   1.00
H957   H     0.33757   0.29980   0.90587   0.00000  Uiso   1.00
H958   H     0.36554   0.28284   0.83558   0.00000  Uiso   1.00
N959   N     0.11236   0.07003   0.80717   0.00000  Uiso   1.00
H960   H     0.09619   0.04169   0.82455   0.00000  Uiso   1.00
C961   C     0.13132   0.05060   0.74929   0.00000  Uiso   1.00
H962   H     0.11488   0.01237   0.72728   0.00000  Uiso   1.00
H963   H     0.16705   0.04388   0.75783   0.00000  Uiso   1.00
H964   H     0.12792   0.07815   0.71787   0.00000  Uiso   1.00
N965   N     0.44585   0.03395   0.73252   0.00000  Uiso   1.00
H966   H     0.46111   0.01607   0.69391   0.00000  Uiso   1.00
C967   C     0.43073   0.33005   0.76695   0.00000  Uiso   1.00
H968   H     0.45972   0.31085   0.78447   0.00000  Uiso   1.00
H969   H     0.40807   0.29974   0.73675   0.00000  Uiso   1.00
H970   H     0.41208   0.01658   0.80596   0.00000  Uiso   1.00
N971   N     0.05187   0.30943   0.88864   0.00000  Uiso   1.00
H972   H     0.03532   0.00457   0.87182   0.00000  Uiso   1.00
C973   C     0.06559   0.32683   0.95278   0.00000  Uiso   1.00
H974   H     0.03594   0.33299   0.98040   0.00000  Uiso   1.00
H975   H     0.08523   0.03106   0.95961   0.00000  Uiso   1.00
H976   H     0.08662   0.29735   0.96829   0.00000  Uiso   1.00
N977   N     0.28949   0.32271   0.76654   0.00000  Uiso   1.00
H978   H     0.30690   0.29102   0.77324   0.00000  Uiso   1.00
C979   C     0.27777   0.32327   0.70301   0.00000  Uiso   1.00
H980   H     0.29780   0.29493   0.67291   0.00000  Uiso   1.00
H981   H     0.28638   0.02889   0.69402   0.00000  Uiso   1.00
H982   H     0.24170   0.31250   0.69120   0.00000  Uiso   1.00
N983   N     0.22418   0.01262   0.90778   0.00000  Uiso   1.00
H984   H     0.24126   0.04028   0.94164   0.00000  Uiso   1.00
C985   C     0.17611   0.01405   0.90128   0.00000  Uiso   1.00
H986   H     0.16176   0.33085   0.93800   0.00000  Uiso   1.00
H987   H     0.16237   0.32429   0.85597   0.00000  Uiso   1.00
H988   H     0.16630   0.05510   0.90621   0.00000  Uiso   1.00
C989   C     0.75136   0.06704   0.81831   0.00000  Uiso   1.00
C990   C     0.75110   0.26632   0.84833   0.00000  Uiso   1.00
C991   C     0.51773   0.07577   0.77607   0.00000  Uiso   1.00
C992   C     0.98188   0.25892   0.88063   0.00000  Uiso   1.00
C993   C     0.75999   0.01257   0.81205   0.00000  Uiso   1.00
C994   C     0.74674   0.32115   0.85575   0.00000  Uiso   1.00
C995   C     0.66456   0.16612   0.83436   0.00000  Uiso   1.00
C996   C     0.83544   0.16679   0.83222   0.00000  Uiso   1.00
C997   C     0.90978   0.21091   0.86470   0.00000  Uiso   1.00
C998   C     0.59092   0.11843   0.81419   0.00000  Uiso   1.00
C999   C     0.88364   0.16820   0.82997   0.00000  Uiso   1.00
C1000  C     0.61633   0.16535   0.83574   0.00000  Uiso   1.00
C1001  C     0.90354   0.12546   0.79489   0.00000  Uiso   1.00
C1002  C     0.59579   0.21255   0.85393   0.00000  Uiso   1.00
C1003  C     0.95016   0.12312   0.79699   0.00000  Uiso   1.00
C1004  C     0.54925   0.21370   0.85313   0.00000  Uiso   1.00
C1005  C     0.97645   0.16760   0.82805   0.00000  Uiso   1.00
C1006  C     0.52330   0.16705   0.82925   0.00000  Uiso   1.00
C1007  C     0.95598   0.21267   0.85861   0.00000  Uiso   1.00
C1008  C     0.54408   0.11986   0.80681   0.00000  Uiso   1.00
C1009  C     0.97118   0.07771   0.76869   0.00000  Uiso   1.00
C1010  C     0.52783   0.26044   0.87461   0.00000  Uiso   1.00
Cu1011 Cu    0.75500   0.17246   0.89479   0.00000  Uiso   1.00
Cu1012 Cu    0.74499   0.16087   0.77187   0.00000  Uiso   1.00
H1013  H     0.88240   0.09285   0.76934   0.00000  Uiso   1.00
H1014  H     0.61644   0.24801   0.86980   0.00000  Uiso   1.00
H1015  H     0.53310   0.03994   0.75602   0.00000  Uiso   1.00
H1016  H     0.96649   0.29491   0.90005   0.00000  Uiso   1.00
H1017  H     0.71400   0.12830   0.98353   0.00000  Uiso   1.00
H1018  H     0.78602   0.20491   0.68323   0.00000  Uiso   1.00
N1019  N     0.73744   0.15214   0.67951   0.00000  Uiso   1.00
N1020  N     0.76255   0.18119   0.98716   0.00000  Uiso   1.00
O1021  O     0.75325   0.09538   0.87326   0.00000  Uiso   1.00
O1022  O     0.74674   0.23796   0.79341   0.00000  Uiso   1.00
O1023  O     0.74480   0.08559   0.76945   0.00000  Uiso   1.00
O1024  O     0.75520   0.24774   0.89721   0.00000  Uiso   1.00
O1025  O     0.68935   0.17155   0.88524   0.00000  Uiso   1.00
O1026  O     0.81064   0.16179   0.78143   0.00000  Uiso   1.00
O1027  O     0.68090   0.16176   0.78143   0.00000  Uiso   1.00
O1028  O     0.81910   0.17157   0.88523   0.00000  Uiso   1.00
N1029  N     0.88998   0.24962   0.90875   0.00000  Uiso   1.00
H1030  H     0.90797   0.26108   0.95057   0.00000  Uiso   1.00
C1031  C     0.87034   0.29218   0.88631   0.00000  Uiso   1.00
H1032  H     0.89210   0.32822   0.90129   0.00000  Uiso   1.00
H1033  H     0.83757   0.29980   0.90587   0.00000  Uiso   1.00
H1034  H     0.86554   0.28284   0.83558   0.00000  Uiso   1.00
N1035  N     0.61236   0.07003   0.80717   0.00000  Uiso   1.00
H1036  H     0.59619   0.04169   0.82455   0.00000  Uiso   1.00
C1037  C     0.63132   0.05060   0.74929   0.00000  Uiso   1.00
H1038  H     0.61488   0.01237   0.72728   0.00000  Uiso   1.00
H1039  H     0.66705   0.04388   0.75783   0.00000  Uiso   1.00
H1040  H     0.62792   0.07815   0.71787   0.00000  Uiso   1.00
N1041  N     0.94585   0.03395   0.73252   0.00000  Uiso   1.00
H1042  H     0.96111   0.01607   0.69391   0.00000  Uiso   1.00
C1043  C     0.93073   0.33005   0.76695   0.00000  Uiso   1.00
H1044  H     0.95972   0.31085   0.78447   0.00000  Uiso   1.00
H1045  H     0.90807   0.29974   0.73675   0.00000  Uiso   1.00
H1046  H     0.91208   0.01658   0.80596   0.00000  Uiso   1.00
N1047  N     0.55187   0.30943   0.88864   0.00000  Uiso   1.00
H1048  H     0.53532   0.00457   0.87182   0.00000  Uiso   1.00
C1049  C     0.56559   0.32683   0.95278   0.00000  Uiso   1.00
H1050  H     0.53594   0.33299   0.98040   0.00000  Uiso   1.00
H1051  H     0.58523   0.03106   0.95961   0.00000  Uiso   1.00
H1052  H     0.58662   0.29735   0.96829   0.00000  Uiso   1.00
N1053  N     0.78949   0.32271   0.76654   0.00000  Uiso   1.00
H1054  H     0.80690   0.29102   0.77324   0.00000  Uiso   1.00
C1055  C     0.77777   0.32327   0.70301   0.00000  Uiso   1.00
H1056  H     0.79780   0.29493   0.67291   0.00000  Uiso   1.00
H1057  H     0.78638   0.02889   0.69402   0.00000  Uiso   1.00
H1058  H     0.74170   0.31250   0.69120   0.00000  Uiso   1.00
N1059  N     0.72418   0.01262   0.90778   0.00000  Uiso   1.00
H1060  H     0.74126   0.04028   0.94164   0.00000  Uiso   1.00
C1061  C     0.67611   0.01405   0.90128   0.00000  Uiso   1.00
H1062  H     0.66176   0.33085   0.93800   0.00000  Uiso   1.00
H1063  H     0.66237   0.32429   0.85597   0.00000  Uiso   1.00
H1064  H     0.66630   0.05510   0.90621   0.00000  Uiso   1.00
C1065  C     0.25136   0.40037   0.81831   0.00000  Uiso   1.00
C1066  C     0.25110   0.59965   0.84833   0.00000  Uiso   1.00
C1067  C     0.01773   0.40910   0.77607   0.00000  Uiso   1.00
C1068  C     0.48188   0.59226   0.88063   0.00000  Uiso   1.00
C1069  C     0.25999   0.34590   0.81205   0.00000  Uiso   1.00
C1070  C     0.24674   0.65448   0.85575   0.00000  Uiso   1.00
C1071  C     0.16456   0.49945   0.83436   0.00000  Uiso   1.00
C1072  C     0.33544   0.50013   0.83222   0.00000  Uiso   1.00
C1073  C     0.40978   0.54424   0.86470   0.00000  Uiso   1.00
C1074  C     0.09092   0.45177   0.81419   0.00000  Uiso   1.00
C1075  C     0.38364   0.50153   0.82997   0.00000  Uiso   1.00
C1076  C     0.11633   0.49869   0.83574   0.00000  Uiso   1.00
C1077  C     0.40354   0.45879   0.79489   0.00000  Uiso   1.00
C1078  C     0.09579   0.54589   0.85393   0.00000  Uiso   1.00
C1079  C     0.45016   0.45645   0.79699   0.00000  Uiso   1.00
C1080  C     0.04925   0.54703   0.85313   0.00000  Uiso   1.00
C1081  C     0.47645   0.50094   0.82805   0.00000  Uiso   1.00
C1082  C     0.02330   0.50038   0.82925   0.00000  Uiso   1.00
C1083  C     0.45598   0.54600   0.85861   0.00000  Uiso   1.00
C1084  C     0.04408   0.45319   0.80681   0.00000  Uiso   1.00
C1085  C     0.47118   0.41104   0.76869   0.00000  Uiso   1.00
C1086  C     0.02783   0.59377   0.87461   0.00000  Uiso   1.00
Cu1087 Cu    0.25500   0.50579   0.89479   0.00000  Uiso   1.00
Cu1088 Cu    0.24499   0.49421   0.77187   0.00000  Uiso   1.00
H1089  H     0.38240   0.42619   0.76934   0.00000  Uiso   1.00
H1090  H     0.11644   0.58134   0.86980   0.00000  Uiso   1.00
H1091  H     0.03310   0.37327   0.75602   0.00000  Uiso   1.00
H1092  H     0.46649   0.62825   0.90005   0.00000  Uiso   1.00
H1093  H     0.21400   0.46163   0.98353   0.00000  Uiso   1.00
H1094  H     0.28602   0.53824   0.68323   0.00000  Uiso   1.00
N1095  N     0.23744   0.48547   0.67951   0.00000  Uiso   1.00
N1096  N     0.26255   0.51453   0.98716   0.00000  Uiso   1.00
O1097  O     0.25325   0.42871   0.87326   0.00000  Uiso   1.00
O1098  O     0.24674   0.57129   0.79341   0.00000  Uiso   1.00
O1099  O     0.24480   0.41892   0.76945   0.00000  Uiso   1.00
O1100  O     0.25520   0.58108   0.89721   0.00000  Uiso   1.00
O1101  O     0.18935   0.50488   0.88524   0.00000  Uiso   1.00
O1102  O     0.31064   0.49512   0.78143   0.00000  Uiso   1.00
O1103  O     0.18090   0.49510   0.78143   0.00000  Uiso   1.00
O1104  O     0.31910   0.50490   0.88523   0.00000  Uiso   1.00
N1105  N     0.38998   0.58295   0.90875   0.00000  Uiso   1.00
H1106  H     0.40797   0.59441   0.95057   0.00000  Uiso   1.00
C1107  C     0.37034   0.62551   0.88631   0.00000  Uiso   1.00
H1108  H     0.39210   0.66155   0.90129   0.00000  Uiso   1.00
H1109  H     0.33757   0.63313   0.90587   0.00000  Uiso   1.00
H1110  H     0.36554   0.61618   0.83558   0.00000  Uiso   1.00
N1111  N     0.11236   0.40337   0.80717   0.00000  Uiso   1.00
H1112  H     0.09619   0.37502   0.82455   0.00000  Uiso   1.00
C1113  C     0.13132   0.38393   0.74929   0.00000  Uiso   1.00
H1114  H     0.11488   0.34571   0.72728   0.00000  Uiso   1.00
H1115  H     0.16705   0.37721   0.75783   0.00000  Uiso   1.00
H1116  H     0.12792   0.41148   0.71787   0.00000  Uiso   1.00
N1117  N     0.44585   0.36728   0.73252   0.00000  Uiso   1.00
H1118  H     0.46111   0.34940   0.69391   0.00000  Uiso   1.00
C1119  C     0.43073   0.66339   0.76695   0.00000  Uiso   1.00
H1120  H     0.45972   0.64419   0.78447   0.00000  Uiso   1.00
H1121  H     0.40807   0.63308   0.73675   0.00000  Uiso   1.00
H1122  H     0.41208   0.34991   0.80596   0.00000  Uiso   1.00
N1123  N     0.05187   0.64276   0.88864   0.00000  Uiso   1.00
H1124  H     0.03532   0.33791   0.87182   0.00000  Uiso   1.00
C1125  C     0.06559   0.66016   0.95278   0.00000  Uiso   1.00
H1126  H     0.03594   0.66632   0.98040   0.00000  Uiso   1.00
H1127  H     0.08523   0.36439   0.95961   0.00000  Uiso   1.00
H1128  H     0.08662   0.63068   0.96829   0.00000  Uiso   1.00
N1129  N     0.28949   0.65604   0.76654   0.00000  Uiso   1.00
H1130  H     0.30690   0.62435   0.77324   0.00000  Uiso   1.00
C1131  C     0.27777   0.65661   0.70301   0.00000  Uiso   1.00
H1132  H     0.29780   0.62826   0.67291   0.00000  Uiso   1.00
H1133  H     0.28638   0.36223   0.69402   0.00000  Uiso   1.00
H1134  H     0.24170   0.64584   0.69120   0.00000  Uiso   1.00
N1135  N     0.22418   0.34595   0.90778   0.00000  Uiso   1.00
H1136  H     0.24126   0.37361   0.94164   0.00000  Uiso   1.00
C1137  C     0.17611   0.34738   0.90128   0.00000  Uiso   1.00
H1138  H     0.16176   0.66418   0.93800   0.00000  Uiso   1.00
H1139  H     0.16237   0.65762   0.85597   0.00000  Uiso   1.00
H1140  H     0.16630   0.38843   0.90621   0.00000  Uiso   1.00
C1141  C     0.75136   0.40037   0.81831   0.00000  Uiso   1.00
C1142  C     0.75110   0.59965   0.84833   0.00000  Uiso   1.00
C1143  C     0.51773   0.40910   0.77607   0.00000  Uiso   1.00
C1144  C     0.98188   0.59226   0.88063   0.00000  Uiso   1.00
C1145  C     0.75999   0.34590   0.81205   0.00000  Uiso   1.00
C1146  C     0.74674   0.65448   0.85575   0.00000  Uiso   1.00
C1147  C     0.66456   0.49945   0.83436   0.00000  Uiso   1.00
C1148  C     0.83544   0.50013   0.83222   0.00000  Uiso   1.00
C1149  C     0.90978   0.54424   0.86470   0.00000  Uiso   1.00
C1150  C     0.59092   0.45177   0.81419   0.00000  Uiso   1.00
C1151  C     0.88364   0.50153   0.82997   0.00000  Uiso   1.00
C1152  C     0.61633   0.49869   0.83574   0.00000  Uiso   1.00
C1153  C     0.90354   0.45879   0.79489   0.00000  Uiso   1.00
C1154  C     0.59579   0.54589   0.85393   0.00000  Uiso   1.00
C1155  C     0.95016   0.45645   0.79699   0.00000  Uiso   1.00
C1156  C     0.54925   0.54703   0.85313   0.00000  Uiso   1.00
C1157  C     0.97645   0.50094   0.82805   0.00000  Uiso   1.00
C1158  C     0.52330   0.50038   0.82925   0.00000  Uiso   1.00
C1159  C     0.95598   0.54600   0.85861   0.00000  Uiso   1.00
C1160  C     0.54408   0.45319   0.80681   0.00000  Uiso   1.00
C1161  C     0.97118   0.41104   0.76869   0.00000  Uiso   1.00
C1162  C     0.52783   0.59377   0.87461   0.00000  Uiso   1.00
Cu1163 Cu    0.75500   0.50579   0.89479   0.00000  Uiso   1.00
Cu1164 Cu    0.74499   0.49421   0.77187   0.00000  Uiso   1.00
H1165  H     0.88240   0.42619   0.76934   0.00000  Uiso   1.00
H1166  H     0.61644   0.58134   0.86980   0.00000  Uiso   1.00
H1167  H     0.53310   0.37327   0.75602   0.00000  Uiso   1.00
H1168  H     0.96649   0.62825   0.90005   0.00000  Uiso   1.00
H1169  H     0.71400   0.46163   0.98353   0.00000  Uiso   1.00
H1170  H     0.78602   0.53824   0.68323   0.00000  Uiso   1.00
N1171  N     0.73744   0.48547   0.67951   0.00000  Uiso   1.00
N1172  N     0.76255   0.51453   0.98716   0.00000  Uiso   1.00
O1173  O     0.75325   0.42871   0.87326   0.00000  Uiso   1.00
O1174  O     0.74674   0.57129   0.79341   0.00000  Uiso   1.00
O1175  O     0.74480   0.41892   0.76945   0.00000  Uiso   1.00
O1176  O     0.75520   0.58108   0.89721   0.00000  Uiso   1.00
O1177  O     0.68935   0.50488   0.88524   0.00000  Uiso   1.00
O1178  O     0.81064   0.49512   0.78143   0.00000  Uiso   1.00
O1179  O     0.68090   0.49510   0.78143   0.00000  Uiso   1.00
O1180  O     0.81910   0.50490   0.88523   0.00000  Uiso   1.00
N1181  N     0.88998   0.58295   0.90875   0.00000  Uiso   1.00
H1182  H     0.90797   0.59441   0.95057   0.00000  Uiso   1.00
C1183  C     0.87034   0.62551   0.88631   0.00000  Uiso   1.00
H1184  H     0.89210   0.66155   0.90129   0.00000  Uiso   1.00
H1185  H     0.83757   0.63313   0.90587   0.00000  Uiso   1.00
H1186  H     0.86554   0.61618   0.83558   0.00000  Uiso   1.00
N1187  N     0.61236   0.40337   0.80717   0.00000  Uiso   1.00
H1188  H     0.59619   0.37502   0.82455   0.00000  Uiso   1.00
C1189  C     0.63132   0.38393   0.74929   0.00000  Uiso   1.00
H1190  H     0.61488   0.34571   0.72728   0.00000  Uiso   1.00
H1191  H     0.66705   0.37721   0.75783   0.00000  Uiso   1.00
H1192  H     0.62792   0.41148   0.71787   0.00000  Uiso   1.00
N1193  N     0.94585   0.36728   0.73252   0.00000  Uiso   1.00
H1194  H     0.96111   0.34940   0.69391   0.00000  Uiso   1.00
C1195  C     0.93073   0.66339   0.76695   0.00000  Uiso   1.00
H1196  H     0.95972   0.64419   0.78447   0.00000  Uiso   1.00
H1197  H     0.90807   0.63308   0.73675   0.00000  Uiso   1.00
H1198  H     0.91208   0.34991   0.80596   0.00000  Uiso   1.00
N1199  N     0.55187   0.64276   0.88864   0.00000  Uiso   1.00
H1200  H     0.53532   0.33791   0.87182   0.00000  Uiso   1.00
C1201  C     0.56559   0.66016   0.95278   0.00000  Uiso   1.00
H1202  H     0.53594   0.66632   0.98040   0.00000  Uiso   1.00
H1203  H     0.58523   0.36439   0.95961   0.00000  Uiso   1.00
H1204  H     0.58662   0.63068   0.96829   0.00000  Uiso   1.00
N1205  N     0.78949   0.65604   0.76654   0.00000  Uiso   1.00
H1206  H     0.80690   0.62435   0.77324   0.00000  Uiso   1.00
C1207  C     0.77777   0.65661   0.70301   0.00000  Uiso   1.00
H1208  H     0.79780   0.62826   0.67291   0.00000  Uiso   1.00
H1209  H     0.78638   0.36223   0.69402   0.00000  Uiso   1.00
H1210  H     0.74170   0.64584   0.69120   0.00000  Uiso   1.00
N1211  N     0.72418   0.34595   0.90778   0.00000  Uiso   1.00
H1212  H     0.74126   0.37361   0.94164   0.00000  Uiso   1.00
C1213  C     0.67611   0.34738   0.90128   0.00000  Uiso   1.00
H1214  H     0.66176   0.66418   0.93800   0.00000  Uiso   1.00
H1215  H     0.66237   0.65762   0.85597   0.00000  Uiso   1.00
H1216  H     0.66630   0.38843   0.90621   0.00000  Uiso   1.00
C1217  C     0.25136   0.73370   0.81831   0.00000  Uiso   1.00
C1218  C     0.25110   0.93298   0.84833   0.00000  Uiso   1.00
C1219  C     0.01773   0.74243   0.77607   0.00000  Uiso   1.00
C1220  C     0.48188   0.92559   0.88063   0.00000  Uiso   1.00
C1221  C     0.25999   0.67923   0.81205   0.00000  Uiso   1.00
C1222  C     0.24674   0.98782   0.85575   0.00000  Uiso   1.00
C1223  C     0.16456   0.83278   0.83436   0.00000  Uiso   1.00
C1224  C     0.33544   0.83346   0.83222   0.00000  Uiso   1.00
C1225  C     0.40978   0.87757   0.86470   0.00000  Uiso   1.00
C1226  C     0.09092   0.78510   0.81419   0.00000  Uiso   1.00
C1227  C     0.38364   0.83486   0.82997   0.00000  Uiso   1.00
C1228  C     0.11633   0.83202   0.83574   0.00000  Uiso   1.00
C1229  C     0.40354   0.79213   0.79489   0.00000  Uiso   1.00
C1230  C     0.09579   0.87922   0.85393   0.00000  Uiso   1.00
C1231  C     0.45016   0.78978   0.79699   0.00000  Uiso   1.00
C1232  C     0.04925   0.88036   0.85313   0.00000  Uiso   1.00
C1233  C     0.47645   0.83427   0.82805   0.00000  Uiso   1.00
C1234  C     0.02330   0.83371   0.82925   0.00000  Uiso   1.00
C1235  C     0.45598   0.87933   0.85861   0.00000  Uiso   1.00
C1236  C     0.04408   0.78652   0.80681   0.00000  Uiso   1.00
C1237  C     0.47118   0.74438   0.76869   0.00000  Uiso   1.00
C1238  C     0.02783   0.92711   0.87461   0.00000  Uiso   1.00
Cu1239 Cu    0.25500   0.83913   0.89479   0.00000  Uiso   1.00
Cu1240 Cu    0.24499   0.82754   0.77187   0.00000  Uiso   1.00
H1241  H     0.38240   0.75952   0.76934   0.00000  Uiso   1.00
H1242  H     0.11644   0.91467   0.86980   0.00000  Uiso   1.00
H1243  H     0.03310   0.70661   0.75602   0.00000  Uiso   1.00
H1244  H     0.46649   0.96158   0.90005   0.00000  Uiso   1.00
H1245  H     0.21400   0.79496   0.98353   0.00000  Uiso   1.00
H1246  H     0.28602   0.87158   0.68323   0.00000  Uiso   1.00
N1247  N     0.23744   0.81881   0.67951   0.00000  Uiso   1.00
N1248  N     0.26255   0.84786   0.98716   0.00000  Uiso   1.00
O1249  O     0.25325   0.76204   0.87326   0.00000  Uiso   1.00
O1250  O     0.24674   0.90462   0.79341   0.00000  Uiso   1.00
O1251  O     0.24480   0.75226   0.76945   0.00000  Uiso   1.00
O1252  O     0.25520   0.91441   0.89721   0.00000  Uiso   1.00
O1253  O     0.18935   0.83821   0.88524   0.00000  Uiso   1.00
O1254  O     0.31064   0.82845   0.78143   0.00000  Uiso   1.00
O1255  O     0.18090   0.82843   0.78143   0.00000  Uiso   1.00
O1256  O     0.31910   0.83824   0.88523   0.00000  Uiso   1.00
N1257  N     0.38998   0.91628   0.90875   0.00000  Uiso   1.00
H1258  H     0.40797   0.92774   0.95057   0.00000  Uiso   1.00
C1259  C     0.37034   0.95884   0.88631   0.00000  Uiso   1.00
H1260  H     0.39210   0.99488   0.90129   0.00000  Uiso   1.00
H1261  H     0.33757   0.96647   0.90587   0.00000  Uiso   1.00
H1262  H     0.36554   0.94951   0.83558   0.00000  Uiso   1.00
N1263  N     0.11236   0.73670   0.80717   0.00000  Uiso   1.00
H1264  H     0.09619   0.70835   0.82455   0.00000  Uiso   1.00
C1265  C     0.13132   0.71727   0.74929   0.00000  Uiso   1.00
H1266  H     0.11488   0.67904   0.72728   0.00000  Uiso   1.00
H1267  H     0.16705   0.71055   0.75783   0.00000  Uiso   1.00
H1268  H     0.12792   0.74482   0.71787   0.00000  Uiso   1.00
N1269  N     0.44585   0.70062   0.73252   0.00000  Uiso   1.00
H1270  H     0.46111   0.68273   0.69391   0.00000  Uiso   1.00
C1271  C     0.43073   0.99672   0.76695   0.00000  Uiso   1.00
H1272  H     0.45972   0.97752   0.78447   0.00000  Uiso   1.00
H1273  H     0.40807   0.96641   0.73675   0.00000  Uiso   1.00
H1274  H     0.41208   0.68324   0.80596   0.00000  Uiso   1.00
N1275  N     0.05187   0.97610   0.88864   0.00000  Uiso   1.00
H1276  H     0.03532   0.67124   0.87182   0.00000  Uiso   1.00
C1277  C     0.06559   0.99350   0.95278   0.00000  Uiso   1.00
H1278  H     0.03594   0.99965   0.98040   0.00000  Uiso   1.00
H1279  H     0.08523   0.69772   0.95961   0.00000  Uiso   1.00
H1280  H     0.08662   0.96402   0.96829   0.00000  Uiso   1.00
N1281  N     0.28949   0.98938   0.76654   0.00000  Uiso   1.00
H1282  H     0.30690   0.95769   0.77324   0.00000  Uiso   1.00
C1283  C     0.27777   0.98994   0.70301   0.00000  Uiso   1.00
H1284  H     0.29780   0.96159   0.67291   0.00000  Uiso   1.00
H1285  H     0.28638   0.69556   0.69402   0.00000  Uiso   1.00
H1286  H     0.24170   0.97917   0.69120   0.00000  Uiso   1.00
N1287  N     0.22418   0.67928   0.90778   0.00000  Uiso   1.00
H1288  H     0.24126   0.70694   0.94164   0.00000  Uiso   1.00
C1289  C     0.17611   0.68071   0.90128   0.00000  Uiso   1.00
H1290  H     0.16176   0.99752   0.93800   0.00000  Uiso   1.00
H1291  H     0.16237   0.99095   0.85597   0.00000  Uiso   1.00
H1292  H     0.16630   0.72176   0.90621   0.00000  Uiso   1.00
C1293  C     0.75136   0.73370   0.81831   0.00000  Uiso   1.00
C1294  C     0.75110   0.93298   0.84833   0.00000  Uiso   1.00
C1295  C     0.51773   0.74243   0.77607   0.00000  Uiso   1.00
C1296  C     0.98188   0.92559   0.88063   0.00000  Uiso   1.00
C1297  C     0.75999   0.67923   0.81205   0.00000  Uiso   1.00
C1298  C     0.74674   0.98782   0.85575   0.00000  Uiso   1.00
C1299  C     0.66456   0.83278   0.83436   0.00000  Uiso   1.00
C1300  C     0.83544   0.83346   0.83222   0.00000  Uiso   1.00
C1301  C     0.90978   0.87757   0.86470   0.00000  Uiso   1.00
C1302  C     0.59092   0.78510   0.81419   0.00000  Uiso   1.00
C1303  C     0.88364   0.83486   0.82997   0.00000  Uiso   1.00
C1304  C     0.61633   0.83202   0.83574   0.00000  Uiso   1.00
C1305  C     0.90354   0.79213   0.79489   0.00000  Uiso   1.00
C1306  C     0.59579   0.87922   0.85393   0.00000  Uiso   1.00
C1307  C     0.95016   0.78978   0.79699   0.00000  Uiso   1.00
C1308  C     0.54925   0.88036   0.85313   0.00000  Uiso   1.00
C1309  C     0.97645   0.83427   0.82805   0.00000  Uiso   1.00
C1310  C     0.52330   0.83371   0.82925   0.00000  Uiso   1.00
C1311  C     0.95598   0.87933   0.85861   0.00000  Uiso   1.00
C1312  C     0.54408   0.78652   0.80681   0.00000  Uiso   1.00
C1313  C     0.97118   0.74438   0.76869   0.00000  Uiso   1.00
C1314  C     0.52783   0.92711   0.87461   0.00000  Uiso   1.00
Cu1315 Cu    0.75500   0.83913   0.89479   0.00000  Uiso   1.00
Cu1316 Cu    0.74499   0.82754   0.77187   0.00000  Uiso   1.00
H1317  H     0.88240   0.75952   0.76934   0.00000  Uiso   1.00
H1318  H     0.61644   0.91467   0.86980   0.00000  Uiso   1.00
H1319  H     0.53310   0.70661   0.75602   0.00000  Uiso   1.00
H1320  H     0.96649   0.96158   0.90005   0.00000  Uiso   1.00
H1321  H     0.71400   0.79496   0.98353   0.00000  Uiso   1.00
H1322  H     0.78602   0.87158   0.68323   0.00000  Uiso   1.00
N1323  N     0.73744   0.81881   0.67951   0.00000  Uiso   1.00
N1324  N     0.76255   0.84786   0.98716   0.00000  Uiso   1.00
O1325  O     0.75325   0.76204   0.87326   0.00000  Uiso   1.00
O1326  O     0.74674   0.90462   0.79341   0.00000  Uiso   1.00
O1327  O     0.74480   0.75226   0.76945   0.00000  Uiso   1.00
O1328  O     0.75520   0.91441   0.89721   0.00000  Uiso   1.00
O1329  O     0.68935   0.83821   0.88524   0.00000  Uiso   1.00
O1330  O     0.81064   0.82845   0.78143   0.00000  Uiso   1.00
O1331  O     0.68090   0.82843   0.78143   0.00000  Uiso   1.00
O1332  O     0.81910   0.83824   0.88523   0.00000  Uiso   1.00
N1333  N     0.88998   0.91628   0.90875   0.00000  Uiso   1.00
H1334  H     0.90797   0.92774   0.95057   0.00000  Uiso   1.00
C1335  C     0.87034   0.95884   0.88631   0.00000  Uiso   1.00
H1336  H     0.89210   0.99488   0.90129   0.00000  Uiso   1.00
H1337  H     0.83757   0.96647   0.90587   0.00000  Uiso   1.00
H1338  H     0.86554   0.94951   0.83558   0.00000  Uiso   1.00
N1339  N     0.61236   0.73670   0.80717   0.00000  Uiso   1.00
H1340  H     0.59619   0.70835   0.82455   0.00000  Uiso   1.00
C1341  C     0.63132   0.71727   0.74929   0.00000  Uiso   1.00
H1342  H     0.61488   0.67904   0.72728   0.00000  Uiso   1.00
H1343  H     0.66705   0.71055   0.75783   0.00000  Uiso   1.00
H1344  H     0.62792   0.74482   0.71787   0.00000  Uiso   1.00
N1345  N     0.94585   0.70062   0.73252   0.00000  Uiso   1.00
H1346  H     0.96111   0.68273   0.69391   0.00000  Uiso   1.00
C1347  C     0.93073   0.99672   0.76695   0.00000  Uiso   1.00
H1348  H     0.95972   0.97752   0.78447   0.00000  Uiso   1.00
H1349  H     0.90807   0.96641   0.73675   0.00000  Uiso   1.00
H1350  H     0.91208   0.68324   0.80596   0.00000  Uiso   1.00
N1351  N     0.55187   0.97610   0.88864   0.00000  Uiso   1.00
H1352  H     0.53532   0.67124   0.87182   0.00000  Uiso   1.00
C1353  C     0.56559   0.99350   0.95278   0.00000  Uiso   1.00
H1354  H     0.53594   0.99965   0.98040   0.00000  Uiso   1.00
H1355  H     0.58523   0.69772   0.95961   0.00000  Uiso   1.00
H1356  H     0.58662   0.96402   0.96829   0.00000  Uiso   1.00
N1357  N     0.78949   0.98938   0.76654   0.00000  Uiso   1.00
H1358  H     0.80690   0.95769   0.77324   0.00000  Uiso   1.00
C1359  C     0.77777   0.98994   0.70301   0.00000  Uiso   1.00
H1360  H     0.79780   0.96159   0.67291   0.00000  Uiso   1.00
H1361  H     0.78638   0.69556   0.69402   0.00000  Uiso   1.00
H1362  H     0.74170   0.97917   0.69120   0.00000  Uiso   1.00
N1363  N     0.72418   0.67928   0.90778   0.00000  Uiso   1.00
H1364  H     0.74126   0.70694   0.94164   0.00000  Uiso   1.00
C1365  C     0.67611   0.68071   0.90128   0.00000  Uiso   1.00
H1366  H     0.66176   0.99752   0.93800   0.00000  Uiso   1.00
H1367  H     0.66237   0.99095   0.85597   0.00000  Uiso   1.00
H1368  H     0.66630   0.72176   0.90621   0.00000  Uiso   1.00
loop_
_geom_bond_atom_site_label_1
_geom_bond_atom_site_label_2
_geom_bond_distance
_geom_bond_site_symmetry_2
_ccdc_geom_bond_type
C1     O33     1.291   .     A
C1     C5      1.439   .     S
C1     O35     1.293   .     A
C2     O34     1.290   .     A
C2     C6      1.423   .     S
C2     O36     1.288   .     A
C3     C20     1.405   .     A
C3     H27     1.082   .     S
C3     C97     1.400   1_455 S
C4     C19     1.400   .     A
C4     H28     1.082   .     S
C4     C98     1.394   .     S
C5     C310    1.354   1_545 S
C5     N369    1.438   1_545 S
C6     C157    1.354   .     S
C6     N223    1.427   .     S
C7     C12     1.449   .     S
C7     O37     1.299   .     A
C7     O39     1.292   .     A
C8     O38     1.299   .     A
C8     C11     1.450   .     S
C8     O40     1.293   .     A
C9     C19     1.402   .     A
C9     C11     1.405   .     A
C9     N41     1.428   .     S
C10    C20     1.408   .     A
C10    C12     1.405   .     A
C10    N47     1.424   .     S
C11    C13     1.398   .     A
C12    C14     1.394   .     A
C13    H25     1.084   .     S
C13    C15     1.401   .     A
C14    H26     1.082   .     S
C14    C16     1.397   .     A
C15    C17     1.414   .     A
C15    C21     1.412   .     A
C16    C22     1.409   .     A
C16    C18     1.415   .     A
C17    C19     1.412   .     A
C17    C94     1.405   .     S
C18    C20     1.413   .     A
C18    C93     1.405   1_455 S
C21    N53     1.423   .     S
C21    C79     1.400   .     S
C22    N59     1.419   .     S
C22    C80     1.394   1_455 S
Cu23   O40     1.949   .     S
Cu23   O33     1.975   .     S
Cu23   Cu24    2.696   .     S
Cu23   O37     1.968   .     S
Cu23   O36     1.963   .     S
Cu23   N32     2.026   .     S
Cu24   O39     1.949   .     S
Cu24   O38     1.968   .     S
Cu24   O35     1.963   .     S
Cu24   O34     1.975   .     S
Cu24   N31     2.026   .     S
H29    N487    1.029   .     S
H30    N944    1.028   1_554 S
N31    H941    1.029   1_554 S
N31    N944    1.296   1_554 S
N32    N487    1.296   .     S
N32    H486    1.028   .     S
N41    H42     1.032   .     S
N41    C43     1.445   .     S
C43    H44     1.110   .     S
C43    H45     1.107   .     S
C43    H46     1.107   .     S
N47    C49     1.444   .     S
N47    H48     1.030   .     S
C49    H51     1.104   .     S
C49    H50     1.105   .     S
C49    H52     1.112   .     S
N53    H54     1.032   .     S
N53    C359    1.444   1_545 S
C55    H56     1.110   .     S
C55    H57     1.110   .     S
C55    N205    1.444   .     S
C55    H210    1.109   .     S
H58    C359    1.109   1_545 S
N59    C61     1.439   .     S
N59    H212    1.032   .     S
H60    N363    1.032   1_545 S
C61    H64     1.110   .     S
C61    H62     1.110   .     S
C61    H215    1.109   .     S
H63    C365    1.109   1_545 S
N65    C67     1.445   .     S
N65    H66     1.028   .     S
N65    C157    1.438   .     S
C67    H68     1.110   .     S
C67    H70     1.111   .     S
C67    H221    1.108   .     S
H69    C371    1.108   1_545 S
N71    C73     1.443   .     S
N71    H72     1.029   .     S
N71    C310    1.427   1_545 S
C73    H76     1.110   .     S
C73    H378    1.108   1_545 S
C73    H379    1.112   1_545 S
H74    C225    1.108   .     S
H75    C225    1.112   .     S
C77    O109    1.291   .     A
C77    C81     1.439   .     S
C77    O111    1.293   .     A
C78    O110    1.290   .     A
C78    C82     1.423   .     S
C78    O112    1.288   .     A
C79    C96     1.405   .     A
C79    H103    1.082   .     S
C80    C95     1.400   .     A
C80    H104    1.082   .     S
C80    C22     1.394   1_655 S
C81    C386    1.354   1_545 S
C81    N445    1.438   1_545 S
C82    C233    1.354   .     S
C82    N299    1.427   .     S
C83    C88     1.449   .     S
C83    O113    1.299   .     A
C83    O115    1.292   .     A
C84    O114    1.299   .     A
C84    C87     1.450   .     S
C84    O116    1.293   .     A
C85    C95     1.402   .     A
C85    C87     1.405   .     A
C85    N117    1.428   .     S
C86    C96     1.408   .     A
C86    C88     1.405   .     A
C86    N123    1.424   .     S
C87    C89     1.398   .     A
C88    C90     1.394   .     A
C89    H101    1.084   .     S
C89    C91     1.401   .     A
C90    H102    1.082   .     S
C90    C92     1.397   .     A
C91    C93     1.414   .     A
C91    C97     1.412   .     A
C92    C98     1.409   .     A
C92    C94     1.415   .     A
C93    C95     1.412   .     A
C93    C18     1.405   1_655 S
C94    C96     1.413   .     A
C97    N129    1.423   .     S
C97    C3      1.400   1_655 S
C98    N135    1.419   .     S
Cu99   O116    1.949   .     S
Cu99   O109    1.975   .     S
Cu99   Cu100   2.696   .     S
Cu99   O113    1.968   .     S
Cu99   O112    1.963   .     S
Cu99   N108    2.026   .     S
Cu100  O115    1.949   .     S
Cu100  O114    1.968   .     S
Cu100  O111    1.963   .     S
Cu100  O110    1.975   .     S
Cu100  N107    2.026   .     S
H105   N563    1.029   .     S
H106   N1020   1.028   1_554 S
N107   H1017   1.029   1_554 S
N107   N1020   1.296   1_554 S
N108   N563    1.296   .     S
N108   H562    1.028   .     S
N117   H118    1.032   .     S
N117   C119    1.445   .     S
C119   H120    1.110   .     S
C119   H121    1.107   .     S
C119   H122    1.107   .     S
N123   C125    1.444   .     S
N123   H124    1.030   .     S
C125   H127    1.104   .     S
C125   H126    1.105   .     S
C125   H128    1.112   .     S
N129   H130    1.032   .     S
N129   C435    1.444   1_545 S
C131   H132    1.110   .     S
C131   H133    1.110   .     S
C131   N281    1.444   .     S
C131   H286    1.109   .     S
H134   C435    1.109   1_545 S
N135   C137    1.439   .     S
N135   H288    1.032   .     S
H136   N439    1.032   1_545 S
C137   H140    1.110   .     S
C137   H138    1.110   .     S
C137   H291    1.109   .     S
H139   C441    1.109   1_545 S
N141   C143    1.445   .     S
N141   H142    1.028   .     S
N141   C233    1.438   .     S
C143   H144    1.110   .     S
C143   H146    1.111   .     S
C143   H297    1.108   .     S
H145   C447    1.108   1_545 S
N147   C149    1.443   .     S
N147   H148    1.029   .     S
N147   C386    1.427   1_545 S
C149   H152    1.110   .     S
C149   H454    1.108   1_545 S
C149   H455    1.112   1_545 S
H150   C301    1.108   .     S
H151   C301    1.112   .     S
C153   O185    1.291   .     A
C153   C157    1.439   .     S
C153   O187    1.293   .     A
C154   O186    1.290   .     A
C154   C158    1.423   .     S
C154   O188    1.288   .     A
C155   C172    1.405   .     A
C155   H179    1.082   .     S
C155   C249    1.400   1_455 S
C156   C171    1.400   .     A
C156   H180    1.082   .     S
C156   C250    1.394   .     S
C158   C309    1.354   .     S
C158   N375    1.427   .     S
C159   C164    1.449   .     S
C159   O189    1.299   .     A
C159   O191    1.292   .     A
C160   O190    1.299   .     A
C160   C163    1.450   .     S
C160   O192    1.293   .     A
C161   C171    1.402   .     A
C161   C163    1.405   .     A
C161   N193    1.428   .     S
C162   C172    1.408   .     A
C162   C164    1.405   .     A
C162   N199    1.424   .     S
C163   C165    1.398   .     A
C164   C166    1.394   .     A
C165   H177    1.084   .     S
C165   C167    1.401   .     A
C166   H178    1.082   .     S
C166   C168    1.397   .     A
C167   C169    1.414   .     A
C167   C173    1.412   .     A
C168   C174    1.409   .     A
C168   C170    1.415   .     A
C169   C171    1.412   .     A
C169   C246    1.405   .     S
C170   C172    1.413   .     A
C170   C245    1.405   1_455 S
C173   N205    1.423   .     S
C173   C231    1.400   .     S
C174   N211    1.419   .     S
C174   C232    1.394   1_455 S
Cu175  O192    1.949   .     S
Cu175  O185    1.975   .     S
Cu175  Cu176   2.696   .     S
Cu175  O189    1.968   .     S
Cu175  O188    1.963   .     S
Cu175  N184    2.026   .     S
Cu176  O191    1.949   .     S
Cu176  O190    1.968   .     S
Cu176  O187    1.963   .     S
Cu176  O186    1.975   .     S
Cu176  N183    2.026   .     S
H181   N639    1.029   .     S
H182   N1096   1.028   1_554 S
N183   H1093   1.029   1_554 S
N183   N1096   1.296   1_554 S
N184   N639    1.296   .     S
N184   H638    1.028   .     S
N193   H194    1.032   .     S
N193   C195    1.445   .     S
C195   H196    1.110   .     S
C195   H197    1.107   .     S
C195   H198    1.107   .     S
N199   C201    1.444   .     S
N199   H200    1.030   .     S
C201   H203    1.104   .     S
C201   H202    1.105   .     S
C201   H204    1.112   .     S
N205   H206    1.032   .     S
C207   H208    1.110   .     S
C207   H209    1.110   .     S
C207   N357    1.444   .     S
C207   H362    1.109   .     S
N211   C213    1.439   .     S
N211   H364    1.032   .     S
C213   H216    1.110   .     S
C213   H214    1.110   .     S
C213   H367    1.109   .     S
N217   C219    1.445   .     S
N217   H218    1.028   .     S
N217   C309    1.438   .     S
C219   H220    1.110   .     S
C219   H222    1.111   .     S
C219   H373    1.108   .     S
N223   C225    1.443   .     S
N223   H224    1.029   .     S
C225   H228    1.110   .     S
H226   C377    1.108   .     S
H227   C377    1.112   .     S
C229   O261    1.291   .     A
C229   C233    1.439   .     S
C229   O263    1.293   .     A
C230   O262    1.290   .     A
C230   C234    1.423   .     S
C230   O264    1.288   .     A
C231   C248    1.405   .     A
C231   H255    1.082   .     S
C232   C247    1.400   .     A
C232   H256    1.082   .     S
C232   C174    1.394   1_655 S
C234   C385    1.354   .     S
C234   N451    1.427   .     S
C235   C240    1.449   .     S
C235   O265    1.299   .     A
C235   O267    1.292   .     A
C236   O266    1.299   .     A
C236   C239    1.450   .     S
C236   O268    1.293   .     A
C237   C247    1.402   .     A
C237   C239    1.405   .     A
C237   N269    1.428   .     S
C238   C248    1.408   .     A
C238   C240    1.405   .     A
C238   N275    1.424   .     S
C239   C241    1.398   .     A
C240   C242    1.394   .     A
C241   H253    1.084   .     S
C241   C243    1.401   .     A
C242   H254    1.082   .     S
C242   C244    1.397   .     A
C243   C245    1.414   .     A
C243   C249    1.412   .     A
C244   C250    1.409   .     A
C244   C246    1.415   .     A
C245   C247    1.412   .     A
C245   C170    1.405   1_655 S
C246   C248    1.413   .     A
C249   N281    1.423   .     S
C249   C155    1.400   1_655 S
C250   N287    1.419   .     S
Cu251  O268    1.949   .     S
Cu251  O261    1.975   .     S
Cu251  Cu252   2.696   .     S
Cu251  O265    1.968   .     S
Cu251  O264    1.963   .     S
Cu251  N260    2.026   .     S
Cu252  O267    1.949   .     S
Cu252  O266    1.968   .     S
Cu252  O263    1.963   .     S
Cu252  O262    1.975   .     S
Cu252  N259    2.026   .     S
H257   N715    1.029   .     S
H258   N1172   1.028   1_554 S
N259   H1169   1.029   1_554 S
N259   N1172   1.296   1_554 S
N260   N715    1.296   .     S
N260   H714    1.028   .     S
N269   H270    1.032   .     S
N269   C271    1.445   .     S
C271   H272    1.110   .     S
C271   H273    1.107   .     S
C271   H274    1.107   .     S
N275   C277    1.444   .     S
N275   H276    1.030   .     S
C277   H279    1.104   .     S
C277   H278    1.105   .     S
C277   H280    1.112   .     S
N281   H282    1.032   .     S
C283   H284    1.110   .     S
C283   H285    1.110   .     S
C283   N433    1.444   .     S
C283   H438    1.109   .     S
N287   C289    1.439   .     S
N287   H440    1.032   .     S
C289   H292    1.110   .     S
C289   H290    1.110   .     S
C289   H443    1.109   .     S
N293   C295    1.445   .     S
N293   H294    1.028   .     S
N293   C385    1.438   .     S
C295   H296    1.110   .     S
C295   H298    1.111   .     S
C295   H449    1.108   .     S
N299   C301    1.443   .     S
N299   H300    1.029   .     S
C301   H304    1.110   .     S
H302   C453    1.108   .     S
H303   C453    1.112   .     S
C305   O337    1.291   .     A
C305   C309    1.439   .     S
C305   O339    1.293   .     A
C306   O338    1.290   .     A
C306   C310    1.423   .     S
C306   O340    1.288   .     A
C307   C324    1.405   .     A
C307   H331    1.082   .     S
C307   C401    1.400   1_455 S
C308   C323    1.400   .     A
C308   H332    1.082   .     S
C308   C402    1.394   .     S
C310   C5      1.354   1_565 S
C310   N71     1.427   1_565 S
C311   C316    1.449   .     S
C311   O341    1.299   .     A
C311   O343    1.292   .     A
C312   O342    1.299   .     A
C312   C315    1.450   .     S
C312   O344    1.293   .     A
C313   C323    1.402   .     A
C313   C315    1.405   .     A
C313   N345    1.428   .     S
C314   C324    1.408   .     A
C314   C316    1.405   .     A
C314   N351    1.424   .     S
C315   C317    1.398   .     A
C316   C318    1.394   .     A
C317   H329    1.084   .     S
C317   C319    1.401   .     A
C318   H330    1.082   .     S
C318   C320    1.397   .     A
C319   C321    1.414   .     A
C319   C325    1.412   .     A
C320   C326    1.409   .     A
C320   C322    1.415   .     A
C321   C323    1.412   .     A
C321   C398    1.405   .     S
C322   C324    1.413   .     A
C322   C397    1.405   1_455 S
C325   N357    1.423   .     S
C325   C383    1.400   .     S
C326   N363    1.419   .     S
C326   C384    1.394   1_455 S
Cu327  O344    1.949   .     S
Cu327  O337    1.975   .     S
Cu327  Cu328   2.696   .     S
Cu327  O341    1.968   .     S
Cu327  O340    1.963   .     S
Cu327  N336    2.026   .     S
Cu328  O343    1.949   .     S
Cu328  O342    1.968   .     S
Cu328  O339    1.963   .     S
Cu328  O338    1.975   .     S
Cu328  N335    2.026   .     S
H333   N791    1.029   .     S
H334   N1248   1.028   1_554 S
N335   H1245   1.029   1_554 S
N335   N1248   1.296   1_554 S
N336   N791    1.296   .     S
N336   H790    1.028   .     S
N345   H346    1.032   .     S
N345   C347    1.445   .     S
C347   H348    1.110   .     S
C347   H349    1.107   .     S
C347   H350    1.107   .     S
N351   C353    1.444   .     S
N351   H352    1.030   .     S
C353   H355    1.104   .     S
C353   H354    1.105   .     S
C353   H356    1.112   .     S
N357   H358    1.032   .     S
C359   H360    1.110   .     S
C359   H361    1.110   .     S
C359   N53     1.444   1_565 S
C359   H58     1.109   1_565 S
N363   C365    1.439   .     S
N363   H60     1.032   1_565 S
C365   H368    1.110   .     S
C365   H366    1.110   .     S
C365   H63     1.109   1_565 S
N369   C371    1.445   .     S
N369   H370    1.028   .     S
N369   C5      1.438   1_565 S
C371   H372    1.110   .     S
C371   H374    1.111   .     S
C371   H69     1.108   1_565 S
N375   C377    1.443   .     S
N375   H376    1.029   .     S
C377   H380    1.110   .     S
H378   C73     1.108   1_565 S
H379   C73     1.112   1_565 S
C381   O413    1.291   .     A
C381   C385    1.439   .     S
C381   O415    1.293   .     A
C382   O414    1.290   .     A
C382   C386    1.423   .     S
C382   O416    1.288   .     A
C383   C400    1.405   .     A
C383   H407    1.082   .     S
C384   C399    1.400   .     A
C384   H408    1.082   .     S
C384   C326    1.394   1_655 S
C386   C81     1.354   1_565 S
C386   N147    1.427   1_565 S
C387   C392    1.449   .     S
C387   O417    1.299   .     A
C387   O419    1.292   .     A
C388   O418    1.299   .     A
C388   C391    1.450   .     S
C388   O420    1.293   .     A
C389   C399    1.402   .     A
C389   C391    1.405   .     A
C389   N421    1.428   .     S
C390   C400    1.408   .     A
C390   C392    1.405   .     A
C390   N427    1.424   .     S
C391   C393    1.398   .     A
C392   C394    1.394   .     A
C393   H405    1.084   .     S
C393   C395    1.401   .     A
C394   H406    1.082   .     S
C394   C396    1.397   .     A
C395   C397    1.414   .     A
C395   C401    1.412   .     A
C396   C402    1.409   .     A
C396   C398    1.415   .     A
C397   C399    1.412   .     A
C397   C322    1.405   1_655 S
C398   C400    1.413   .     A
C401   N433    1.423   .     S
C401   C307    1.400   1_655 S
C402   N439    1.419   .     S
Cu403  O420    1.949   .     S
Cu403  O413    1.975   .     S
Cu403  Cu404   2.696   .     S
Cu403  O417    1.968   .     S
Cu403  O416    1.963   .     S
Cu403  N412    2.026   .     S
Cu404  O419    1.949   .     S
Cu404  O418    1.968   .     S
Cu404  O415    1.963   .     S
Cu404  O414    1.975   .     S
Cu404  N411    2.026   .     S
H409   N867    1.029   .     S
H410   N1324   1.028   1_554 S
N411   H1321   1.029   1_554 S
N411   N1324   1.296   1_554 S
N412   N867    1.296   .     S
N412   H866    1.028   .     S
N421   H422    1.032   .     S
N421   C423    1.445   .     S
C423   H424    1.110   .     S
C423   H425    1.107   .     S
C423   H426    1.107   .     S
N427   C429    1.444   .     S
N427   H428    1.030   .     S
C429   H431    1.104   .     S
C429   H430    1.105   .     S
C429   H432    1.112   .     S
N433   H434    1.032   .     S
C435   H436    1.110   .     S
C435   H437    1.110   .     S
C435   N129    1.444   1_565 S
C435   H134    1.109   1_565 S
N439   C441    1.439   .     S
N439   H136    1.032   1_565 S
C441   H444    1.110   .     S
C441   H442    1.110   .     S
C441   H139    1.109   1_565 S
N445   C447    1.445   .     S
N445   H446    1.028   .     S
N445   C81     1.438   1_565 S
C447   H448    1.110   .     S
C447   H450    1.111   .     S
C447   H145    1.108   1_565 S
N451   C453    1.443   .     S
N451   H452    1.029   .     S
C453   H456    1.110   .     S
H454   C149    1.108   1_565 S
H455   C149    1.112   1_565 S
C457   O489    1.291   .     A
C457   C461    1.439   .     S
C457   O491    1.293   .     A
C458   O490    1.290   .     A
C458   C462    1.423   .     S
C458   O492    1.288   .     A
C459   C476    1.405   .     A
C459   H483    1.082   .     S
C459   C553    1.400   1_455 S
C460   C475    1.400   .     A
C460   H484    1.082   .     S
C460   C554    1.394   .     S
C461   C766    1.354   1_545 S
C461   N825    1.438   1_545 S
C462   C613    1.354   .     S
C462   N679    1.427   .     S
C463   C468    1.449   .     S
C463   O493    1.299   .     A
C463   O495    1.292   .     A
C464   O494    1.299   .     A
C464   C467    1.450   .     S
C464   O496    1.293   .     A
C465   C475    1.402   .     A
C465   C467    1.405   .     A
C465   N497    1.428   .     S
C466   C476    1.408   .     A
C466   C468    1.405   .     A
C466   N503    1.424   .     S
C467   C469    1.398   .     A
C468   C470    1.394   .     A
C469   H481    1.084   .     S
C469   C471    1.401   .     A
C470   H482    1.082   .     S
C470   C472    1.397   .     A
C471   C473    1.414   .     A
C471   C477    1.412   .     A
C472   C478    1.409   .     A
C472   C474    1.415   .     A
C473   C475    1.412   .     A
C473   C550    1.405   .     S
C474   C476    1.413   .     A
C474   C549    1.405   1_455 S
C477   N509    1.423   .     S
C477   C535    1.400   .     S
C478   N515    1.419   .     S
C478   C536    1.394   1_455 S
Cu479  O496    1.949   .     S
Cu479  O489    1.975   .     S
Cu479  Cu480   2.696   .     S
Cu479  O493    1.968   .     S
Cu479  O492    1.963   .     S
Cu479  N488    2.026   .     S
Cu480  O495    1.949   .     S
Cu480  O494    1.968   .     S
Cu480  O491    1.963   .     S
Cu480  O490    1.975   .     S
Cu480  N487    2.026   .     S
H485   N943    1.029   .     S
N488   N943    1.296   .     S
N488   H942    1.028   .     S
N497   H498    1.032   .     S
N497   C499    1.445   .     S
C499   H500    1.110   .     S
C499   H501    1.107   .     S
C499   H502    1.107   .     S
N503   C505    1.444   .     S
N503   H504    1.030   .     S
C505   H507    1.104   .     S
C505   H506    1.105   .     S
C505   H508    1.112   .     S
N509   H510    1.032   .     S
N509   C815    1.444   1_545 S
C511   H512    1.110   .     S
C511   H513    1.110   .     S
C511   N661    1.444   .     S
C511   H666    1.109   .     S
H514   C815    1.109   1_545 S
N515   C517    1.439   .     S
N515   H668    1.032   .     S
H516   N819    1.032   1_545 S
C517   H520    1.110   .     S
C517   H518    1.110   .     S
C517   H671    1.109   .     S
H519   C821    1.109   1_545 S
N521   C523    1.445   .     S
N521   H522    1.028   .     S
N521   C613    1.438   .     S
C523   H524    1.110   .     S
C523   H526    1.111   .     S
C523   H677    1.108   .     S
H525   C827    1.108   1_545 S
N527   C529    1.443   .     S
N527   H528    1.029   .     S
N527   C766    1.427   1_545 S
C529   H532    1.110   .     S
C529   H834    1.108   1_545 S
C529   H835    1.112   1_545 S
H530   C681    1.108   .     S
H531   C681    1.112   .     S
C533   O565    1.291   .     A
C533   C537    1.439   .     S
C533   O567    1.293   .     A
C534   O566    1.290   .     A
C534   C538    1.423   .     S
C534   O568    1.288   .     A
C535   C552    1.405   .     A
C535   H559    1.082   .     S
C536   C551    1.400   .     A
C536   H560    1.082   .     S
C536   C478    1.394   1_655 S
C537   C842    1.354   1_545 S
C537   N901    1.438   1_545 S
C538   C689    1.354   .     S
C538   N755    1.427   .     S
C539   C544    1.449   .     S
C539   O569    1.299   .     A
C539   O571    1.292   .     A
C540   O570    1.299   .     A
C540   C543    1.450   .     S
C540   O572    1.293   .     A
C541   C551    1.402   .     A
C541   C543    1.405   .     A
C541   N573    1.428   .     S
C542   C552    1.408   .     A
C542   C544    1.405   .     A
C542   N579    1.424   .     S
C543   C545    1.398   .     A
C544   C546    1.394   .     A
C545   H557    1.084   .     S
C545   C547    1.401   .     A
C546   H558    1.082   .     S
C546   C548    1.397   .     A
C547   C549    1.414   .     A
C547   C553    1.412   .     A
C548   C554    1.409   .     A
C548   C550    1.415   .     A
C549   C551    1.412   .     A
C549   C474    1.405   1_655 S
C550   C552    1.413   .     A
C553   N585    1.423   .     S
C553   C459    1.400   1_655 S
C554   N591    1.419   .     S
Cu555  O572    1.949   .     S
Cu555  O565    1.975   .     S
Cu555  Cu556   2.696   .     S
Cu555  O569    1.968   .     S
Cu555  O568    1.963   .     S
Cu555  N564    2.026   .     S
Cu556  O571    1.949   .     S
Cu556  O570    1.968   .     S
Cu556  O567    1.963   .     S
Cu556  O566    1.975   .     S
Cu556  N563    2.026   .     S
H561   N1019   1.029   .     S
N564   N1019   1.296   .     S
N564   H1018   1.028   .     S
N573   H574    1.032   .     S
N573   C575    1.445   .     S
C575   H576    1.110   .     S
C575   H577    1.107   .     S
C575   H578    1.107   .     S
N579   C581    1.444   .     S
N579   H580    1.030   .     S
C581   H583    1.104   .     S
C581   H582    1.105   .     S
C581   H584    1.112   .     S
N585   H586    1.032   .     S
N585   C891    1.444   1_545 S
C587   H588    1.110   .     S
C587   H589    1.110   .     S
C587   N737    1.444   .     S
C587   H742    1.109   .     S
H590   C891    1.109   1_545 S
N591   C593    1.439   .     S
N591   H744    1.032   .     S
H592   N895    1.032   1_545 S
C593   H596    1.110   .     S
C593   H594    1.110   .     S
C593   H747    1.109   .     S
H595   C897    1.109   1_545 S
N597   C599    1.445   .     S
N597   H598    1.028   .     S
N597   C689    1.438   .     S
C599   H600    1.110   .     S
C599   H602    1.111   .     S
C599   H753    1.108   .     S
H601   C903    1.108   1_545 S
N603   C605    1.443   .     S
N603   H604    1.029   .     S
N603   C842    1.427   1_545 S
C605   H608    1.110   .     S
C605   H910    1.108   1_545 S
C605   H911    1.112   1_545 S
H606   C757    1.108   .     S
H607   C757    1.112   .     S
C609   O641    1.291   .     A
C609   C613    1.439   .     S
C609   O643    1.293   .     A
C610   O642    1.290   .     A
C610   C614    1.423   .     S
C610   O644    1.288   .     A
C611   C628    1.405   .     A
C611   H635    1.082   .     S
C611   C705    1.400   1_455 S
C612   C627    1.400   .     A
C612   H636    1.082   .     S
C612   C706    1.394   .     S
C614   C765    1.354   .     S
C614   N831    1.427   .     S
C615   C620    1.449   .     S
C615   O645    1.299   .     A
C615   O647    1.292   .     A
C616   O646    1.299   .     A
C616   C619    1.450   .     S
C616   O648    1.293   .     A
C617   C627    1.402   .     A
C617   C619    1.405   .     A
C617   N649    1.428   .     S
C618   C628    1.408   .     A
C618   C620    1.405   .     A
C618   N655    1.424   .     S
C619   C621    1.398   .     A
C620   C622    1.394   .     A
C621   H633    1.084   .     S
C621   C623    1.401   .     A
C622   H634    1.082   .     S
C622   C624    1.397   .     A
C623   C625    1.414   .     A
C623   C629    1.412   .     A
C624   C630    1.409   .     A
C624   C626    1.415   .     A
C625   C627    1.412   .     A
C625   C702    1.405   .     S
C626   C628    1.413   .     A
C626   C701    1.405   1_455 S
C629   N661    1.423   .     S
C629   C687    1.400   .     S
C630   N667    1.419   .     S
C630   C688    1.394   1_455 S
Cu631  O648    1.949   .     S
Cu631  O641    1.975   .     S
Cu631  Cu632   2.696   .     S
Cu631  O645    1.968   .     S
Cu631  O644    1.963   .     S
Cu631  N640    2.026   .     S
Cu632  O647    1.949   .     S
Cu632  O646    1.968   .     S
Cu632  O643    1.963   .     S
Cu632  O642    1.975   .     S
Cu632  N639    2.026   .     S
H637   N1095   1.029   .     S
N640   N1095   1.296   .     S
N640   H1094   1.028   .     S
N649   H650    1.032   .     S
N649   C651    1.445   .     S
C651   H652    1.110   .     S
C651   H653    1.107   .     S
C651   H654    1.107   .     S
N655   C657    1.444   .     S
N655   H656    1.030   .     S
C657   H659    1.104   .     S
C657   H658    1.105   .     S
C657   H660    1.112   .     S
N661   H662    1.032   .     S
C663   H664    1.110   .     S
C663   H665    1.110   .     S
C663   N813    1.444   .     S
C663   H818    1.109   .     S
N667   C669    1.439   .     S
N667   H820    1.032   .     S
C669   H672    1.110   .     S
C669   H670    1.110   .     S
C669   H823    1.109   .     S
N673   C675    1.445   .     S
N673   H674    1.028   .     S
N673   C765    1.438   .     S
C675   H676    1.110   .     S
C675   H678    1.111   .     S
C675   H829    1.108   .     S
N679   C681    1.443   .     S
N679   H680    1.029   .     S
C681   H684    1.110   .     S
H682   C833    1.108   .     S
H683   C833    1.112   .     S
C685   O717    1.291   .     A
C685   C689    1.439   .     S
C685   O719    1.293   .     A
C686   O718    1.290   .     A
C686   C690    1.423   .     S
C686   O720    1.288   .     A
C687   C704    1.405   .     A
C687   H711    1.082   .     S
C688   C703    1.400   .     A
C688   H712    1.082   .     S
C688   C630    1.394   1_655 S
C690   C841    1.354   .     S
C690   N907    1.427   .     S
C691   C696    1.449   .     S
C691   O721    1.299   .     A
C691   O723    1.292   .     A
C692   O722    1.299   .     A
C692   C695    1.450   .     S
C692   O724    1.293   .     A
C693   C703    1.402   .     A
C693   C695    1.405   .     A
C693   N725    1.428   .     S
C694   C704    1.408   .     A
C694   C696    1.405   .     A
C694   N731    1.424   .     S
C695   C697    1.398   .     A
C696   C698    1.394   .     A
C697   H709    1.084   .     S
C697   C699    1.401   .     A
C698   H710    1.082   .     S
C698   C700    1.397   .     A
C699   C701    1.414   .     A
C699   C705    1.412   .     A
C700   C706    1.409   .     A
C700   C702    1.415   .     A
C701   C703    1.412   .     A
C701   C626    1.405   1_655 S
C702   C704    1.413   .     A
C705   N737    1.423   .     S
C705   C611    1.400   1_655 S
C706   N743    1.419   .     S
Cu707  O724    1.949   .     S
Cu707  O717    1.975   .     S
Cu707  Cu708   2.696   .     S
Cu707  O721    1.968   .     S
Cu707  O720    1.963   .     S
Cu707  N716    2.026   .     S
Cu708  O723    1.949   .     S
Cu708  O722    1.968   .     S
Cu708  O719    1.963   .     S
Cu708  O718    1.975   .     S
Cu708  N715    2.026   .     S
H713   N1171   1.029   .     S
N716   N1171   1.296   .     S
N716   H1170   1.028   .     S
N725   H726    1.032   .     S
N725   C727    1.445   .     S
C727   H728    1.110   .     S
C727   H729    1.107   .     S
C727   H730    1.107   .     S
N731   C733    1.444   .     S
N731   H732    1.030   .     S
C733   H735    1.104   .     S
C733   H734    1.105   .     S
C733   H736    1.112   .     S
N737   H738    1.032   .     S
C739   H740    1.110   .     S
C739   H741    1.110   .     S
C739   N889    1.444   .     S
C739   H894    1.109   .     S
N743   C745    1.439   .     S
N743   H896    1.032   .     S
C745   H748    1.110   .     S
C745   H746    1.110   .     S
C745   H899    1.109   .     S
N749   C751    1.445   .     S
N749   H750    1.028   .     S
N749   C841    1.438   .     S
C751   H752    1.110   .     S
C751   H754    1.111   .     S
C751   H905    1.108   .     S
N755   C757    1.443   .     S
N755   H756    1.029   .     S
C757   H760    1.110   .     S
H758   C909    1.108   .     S
H759   C909    1.112   .     S
C761   O793    1.291   .     A
C761   C765    1.439   .     S
C761   O795    1.293   .     A
C762   O794    1.290   .     A
C762   C766    1.423   .     S
C762   O796    1.288   .     A
C763   C780    1.405   .     A
C763   H787    1.082   .     S
C763   C857    1.400   1_455 S
C764   C779    1.400   .     A
C764   H788    1.082   .     S
C764   C858    1.394   .     S
C766   C461    1.354   1_565 S
C766   N527    1.427   1_565 S
C767   C772    1.449   .     S
C767   O797    1.299   .     A
C767   O799    1.292   .     A
C768   O798    1.299   .     A
C768   C771    1.450   .     S
C768   O800    1.293   .     A
C769   C779    1.402   .     A
C769   C771    1.405   .     A
C769   N801    1.428   .     S
C770   C780    1.408   .     A
C770   C772    1.405   .     A
C770   N807    1.424   .     S
C771   C773    1.398   .     A
C772   C774    1.394   .     A
C773   H785    1.084   .     S
C773   C775    1.401   .     A
C774   H786    1.082   .     S
C774   C776    1.397   .     A
C775   C777    1.414   .     A
C775   C781    1.412   .     A
C776   C782    1.409   .     A
C776   C778    1.415   .     A
C777   C779    1.412   .     A
C777   C854    1.405   .     S
C778   C780    1.413   .     A
C778   C853    1.405   1_455 S
C781   N813    1.423   .     S
C781   C839    1.400   .     S
C782   N819    1.419   .     S
C782   C840    1.394   1_455 S
Cu783  O800    1.949   .     S
Cu783  O793    1.975   .     S
Cu783  Cu784   2.696   .     S
Cu783  O797    1.968   .     S
Cu783  O796    1.963   .     S
Cu783  N792    2.026   .     S
Cu784  O799    1.949   .     S
Cu784  O798    1.968   .     S
Cu784  O795    1.963   .     S
Cu784  O794    1.975   .     S
Cu784  N791    2.026   .     S
H789   N1247   1.029   .     S
N792   N1247   1.296   .     S
N792   H1246   1.028   .     S
N801   H802    1.032   .     S
N801   C803    1.445   .     S
C803   H804    1.110   .     S
C803   H805    1.107   .     S
C803   H806    1.107   .     S
N807   C809    1.444   .     S
N807   H808    1.030   .     S
C809   H811    1.104   .     S
C809   H810    1.105   .     S
C809   H812    1.112   .     S
N813   H814    1.032   .     S
C815   H816    1.110   .     S
C815   H817    1.110   .     S
C815   N509    1.444   1_565 S
C815   H514    1.109   1_565 S
N819   C821    1.439   .     S
N819   H516    1.032   1_565 S
C821   H824    1.110   .     S
C821   H822    1.110   .     S
C821   H519    1.109   1_565 S
N825   C827    1.445   .     S
N825   H826    1.028   .     S
N825   C461    1.438   1_565 S
C827   H828    1.110   .     S
C827   H830    1.111   .     S
C827   H525    1.108   1_565 S
N831   C833    1.443   .     S
N831   H832    1.029   .     S
C833   H836    1.110   .     S
H834   C529    1.108   1_565 S
H835   C529    1.112   1_565 S
C837   O869    1.291   .     A
C837   C841    1.439   .     S
C837   O871    1.293   .     A
C838   O870    1.290   .     A
C838   C842    1.423   .     S
C838   O872    1.288   .     A
C839   C856    1.405   .     A
C839   H863    1.082   .     S
C840   C855    1.400   .     A
C840   H864    1.082   .     S
C840   C782    1.394   1_655 S
C842   C537    1.354   1_565 S
C842   N603    1.427   1_565 S
C843   C848    1.449   .     S
C843   O873    1.299   .     A
C843   O875    1.292   .     A
C844   O874    1.299   .     A
C844   C847    1.450   .     S
C844   O876    1.293   .     A
C845   C855    1.402   .     A
C845   C847    1.405   .     A
C845   N877    1.428   .     S
C846   C856    1.408   .     A
C846   C848    1.405   .     A
C846   N883    1.424   .     S
C847   C849    1.398   .     A
C848   C850    1.394   .     A
C849   H861    1.084   .     S
C849   C851    1.401   .     A
C850   H862    1.082   .     S
C850   C852    1.397   .     A
C851   C853    1.414   .     A
C851   C857    1.412   .     A
C852   C858    1.409   .     A
C852   C854    1.415   .     A
C853   C855    1.412   .     A
C853   C778    1.405   1_655 S
C854   C856    1.413   .     A
C857   N889    1.423   .     S
C857   C763    1.400   1_655 S
C858   N895    1.419   .     S
Cu859  O876    1.949   .     S
Cu859  O869    1.975   .     S
Cu859  Cu860   2.696   .     S
Cu859  O873    1.968   .     S
Cu859  O872    1.963   .     S
Cu859  N868    2.026   .     S
Cu860  O875    1.949   .     S
Cu860  O874    1.968   .     S
Cu860  O871    1.963   .     S
Cu860  O870    1.975   .     S
Cu860  N867    2.026   .     S
H865   N1323   1.029   .     S
N868   N1323   1.296   .     S
N868   H1322   1.028   .     S
N877   H878    1.032   .     S
N877   C879    1.445   .     S
C879   H880    1.110   .     S
C879   H881    1.107   .     S
C879   H882    1.107   .     S
N883   C885    1.444   .     S
N883   H884    1.030   .     S
C885   H887    1.104   .     S
C885   H886    1.105   .     S
C885   H888    1.112   .     S
N889   H890    1.032   .     S
C891   H892    1.110   .     S
C891   H893    1.110   .     S
C891   N585    1.444   1_565 S
C891   H590    1.109   1_565 S
N895   C897    1.439   .     S
N895   H592    1.032   1_565 S
C897   H900    1.110   .     S
C897   H898    1.110   .     S
C897   H595    1.109   1_565 S
N901   C903    1.445   .     S
N901   H902    1.028   .     S
N901   C537    1.438   1_565 S
C903   H904    1.110   .     S
C903   H906    1.111   .     S
C903   H601    1.108   1_565 S
N907   C909    1.443   .     S
N907   H908    1.029   .     S
C909   H912    1.110   .     S
H910   C605    1.108   1_565 S
H911   C605    1.112   1_565 S
C913   O945    1.291   .     A
C913   C917    1.439   .     S
C913   O947    1.293   .     A
C914   O946    1.290   .     A
C914   C918    1.423   .     S
C914   O948    1.288   .     A
C915   C932    1.405   .     A
C915   H939    1.082   .     S
C915   C1009   1.400   1_455 S
C916   C931    1.400   .     A
C916   H940    1.082   .     S
C916   C1010   1.394   .     S
C917   C1222   1.354   1_545 S
C917   N1281   1.438   1_545 S
C918   C1069   1.354   .     S
C918   N1135   1.427   .     S
C919   C924    1.449   .     S
C919   O949    1.299   .     A
C919   O951    1.292   .     A
C920   O950    1.299   .     A
C920   C923    1.450   .     S
C920   O952    1.293   .     A
C921   C931    1.402   .     A
C921   C923    1.405   .     A
C921   N953    1.428   .     S
C922   C932    1.408   .     A
C922   C924    1.405   .     A
C922   N959    1.424   .     S
C923   C925    1.398   .     A
C924   C926    1.394   .     A
C925   H937    1.084   .     S
C925   C927    1.401   .     A
C926   H938    1.082   .     S
C926   C928    1.397   .     A
C927   C929    1.414   .     A
C927   C933    1.412   .     A
C928   C934    1.409   .     A
C928   C930    1.415   .     A
C929   C931    1.412   .     A
C929   C1006   1.405   .     S
C930   C932    1.413   .     A
C930   C1005   1.405   1_455 S
C933   N965    1.423   .     S
C933   C991    1.400   .     S
C934   N971    1.419   .     S
C934   C992    1.394   1_455 S
Cu935  O952    1.949   .     S
Cu935  O945    1.975   .     S
Cu935  Cu936   2.696   .     S
Cu935  O949    1.968   .     S
Cu935  O948    1.963   .     S
Cu935  N944    2.026   .     S
Cu936  O951    1.949   .     S
Cu936  O950    1.968   .     S
Cu936  O947    1.963   .     S
Cu936  O946    1.975   .     S
Cu936  N943    2.026   .     S
H941   N31     1.029   1_556 S
N944   N31     1.296   1_556 S
N944   H30     1.028   1_556 S
N953   H954    1.032   .     S
N953   C955    1.445   .     S
C955   H956    1.110   .     S
C955   H957    1.107   .     S
C955   H958    1.107   .     S
N959   C961    1.444   .     S
N959   H960    1.030   .     S
C961   H963    1.104   .     S
C961   H962    1.105   .     S
C961   H964    1.112   .     S
N965   H966    1.032   .     S
N965   C1271   1.444   1_545 S
C967   H968    1.110   .     S
C967   H969    1.110   .     S
C967   N1117   1.444   .     S
C967   H1122   1.109   .     S
H970   C1271   1.109   1_545 S
N971   C973    1.439   .     S
N971   H1124   1.032   .     S
H972   N1275   1.032   1_545 S
C973   H976    1.110   .     S
C973   H974    1.110   .     S
C973   H1127   1.109   .     S
H975   C1277   1.109   1_545 S
N977   C979    1.445   .     S
N977   H978    1.028   .     S
N977   C1069   1.438   .     S
C979   H980    1.110   .     S
C979   H982    1.111   .     S
C979   H1133   1.108   .     S
H981   C1283   1.108   1_545 S
N983   C985    1.443   .     S
N983   H984    1.029   .     S
N983   C1222   1.427   1_545 S
C985   H988    1.110   .     S
C985   H1290   1.108   1_545 S
C985   H1291   1.112   1_545 S
H986   C1137   1.108   .     S
H987   C1137   1.112   .     S
C989   O1021   1.291   .     A
C989   C993    1.439   .     S
C989   O1023   1.293   .     A
C990   O1022   1.290   .     A
C990   C994    1.423   .     S
C990   O1024   1.288   .     A
C991   C1008   1.405   .     A
C991   H1015   1.082   .     S
C992   C1007   1.400   .     A
C992   H1016   1.082   .     S
C992   C934    1.394   1_655 S
C993   C1298   1.354   1_545 S
C993   N1357   1.438   1_545 S
C994   C1145   1.354   .     S
C994   N1211   1.427   .     S
C995   C1000   1.449   .     S
C995   O1025   1.299   .     A
C995   O1027   1.292   .     A
C996   O1026   1.299   .     A
C996   C999    1.450   .     S
C996   O1028   1.293   .     A
C997   C1007   1.402   .     A
C997   C999    1.405   .     A
C997   N1029   1.428   .     S
C998   C1008   1.408   .     A
C998   C1000   1.405   .     A
C998   N1035   1.424   .     S
C999   C1001   1.398   .     A
C1000  C1002   1.394   .     A
C1001  H1013   1.084   .     S
C1001  C1003   1.401   .     A
C1002  H1014   1.082   .     S
C1002  C1004   1.397   .     A
C1003  C1005   1.414   .     A
C1003  C1009   1.412   .     A
C1004  C1010   1.409   .     A
C1004  C1006   1.415   .     A
C1005  C1007   1.412   .     A
C1005  C930    1.405   1_655 S
C1006  C1008   1.413   .     A
C1009  N1041   1.423   .     S
C1009  C915    1.400   1_655 S
C1010  N1047   1.419   .     S
Cu1011 O1028   1.949   .     S
Cu1011 O1021   1.975   .     S
Cu1011 Cu1012  2.696   .     S
Cu1011 O1025   1.968   .     S
Cu1011 O1024   1.963   .     S
Cu1011 N1020   2.026   .     S
Cu1012 O1027   1.949   .     S
Cu1012 O1026   1.968   .     S
Cu1012 O1023   1.963   .     S
Cu1012 O1022   1.975   .     S
Cu1012 N1019   2.026   .     S
H1017  N107    1.029   1_556 S
N1020  N107    1.296   1_556 S
N1020  H106    1.028   1_556 S
N1029  H1030   1.032   .     S
N1029  C1031   1.445   .     S
C1031  H1032   1.110   .     S
C1031  H1033   1.107   .     S
C1031  H1034   1.107   .     S
N1035  C1037   1.444   .     S
N1035  H1036   1.030   .     S
C1037  H1039   1.104   .     S
C1037  H1038   1.105   .     S
C1037  H1040   1.112   .     S
N1041  H1042   1.032   .     S
N1041  C1347   1.444   1_545 S
C1043  H1044   1.110   .     S
C1043  H1045   1.110   .     S
C1043  N1193   1.444   .     S
C1043  H1198   1.109   .     S
H1046  C1347   1.109   1_545 S
N1047  C1049   1.439   .     S
N1047  H1200   1.032   .     S
H1048  N1351   1.032   1_545 S
C1049  H1052   1.110   .     S
C1049  H1050   1.110   .     S
C1049  H1203   1.109   .     S
H1051  C1353   1.109   1_545 S
N1053  C1055   1.445   .     S
N1053  H1054   1.028   .     S
N1053  C1145   1.438   .     S
C1055  H1056   1.110   .     S
C1055  H1058   1.111   .     S
C1055  H1209   1.108   .     S
H1057  C1359   1.108   1_545 S
N1059  C1061   1.443   .     S
N1059  H1060   1.029   .     S
N1059  C1298   1.427   1_545 S
C1061  H1064   1.110   .     S
C1061  H1366   1.108   1_545 S
C1061  H1367   1.112   1_545 S
H1062  C1213   1.108   .     S
H1063  C1213   1.112   .     S
C1065  O1097   1.291   .     A
C1065  C1069   1.439   .     S
C1065  O1099   1.293   .     A
C1066  O1098   1.290   .     A
C1066  C1070   1.423   .     S
C1066  O1100   1.288   .     A
C1067  C1084   1.405   .     A
C1067  H1091   1.082   .     S
C1067  C1161   1.400   1_455 S
C1068  C1083   1.400   .     A
C1068  H1092   1.082   .     S
C1068  C1162   1.394   .     S
C1070  C1221   1.354   .     S
C1070  N1287   1.427   .     S
C1071  C1076   1.449   .     S
C1071  O1101   1.299   .     A
C1071  O1103   1.292   .     A
C1072  O1102   1.299   .     A
C1072  C1075   1.450   .     S
C1072  O1104   1.293   .     A
C1073  C1083   1.402   .     A
C1073  C1075   1.405   .     A
C1073  N1105   1.428   .     S
C1074  C1084   1.408   .     A
C1074  C1076   1.405   .     A
C1074  N1111   1.424   .     S
C1075  C1077   1.398   .     A
C1076  C1078   1.394   .     A
C1077  H1089   1.084   .     S
C1077  C1079   1.401   .     A
C1078  H1090   1.082   .     S
C1078  C1080   1.397   .     A
C1079  C1081   1.414   .     A
C1079  C1085   1.412   .     A
C1080  C1086   1.409   .     A
C1080  C1082   1.415   .     A
C1081  C1083   1.412   .     A
C1081  C1158   1.405   .     S
C1082  C1084   1.413   .     A
C1082  C1157   1.405   1_455 S
C1085  N1117   1.423   .     S
C1085  C1143   1.400   .     S
C1086  N1123   1.419   .     S
C1086  C1144   1.394   1_455 S
Cu1087 O1104   1.949   .     S
Cu1087 O1097   1.975   .     S
Cu1087 Cu1088  2.696   .     S
Cu1087 O1101   1.968   .     S
Cu1087 O1100   1.963   .     S
Cu1087 N1096   2.026   .     S
Cu1088 O1103   1.949   .     S
Cu1088 O1102   1.968   .     S
Cu1088 O1099   1.963   .     S
Cu1088 O1098   1.975   .     S
Cu1088 N1095   2.026   .     S
H1093  N183    1.029   1_556 S
N1096  N183    1.296   1_556 S
N1096  H182    1.028   1_556 S
N1105  H1106   1.032   .     S
N1105  C1107   1.445   .     S
C1107  H1108   1.110   .     S
C1107  H1109   1.107   .     S
C1107  H1110   1.107   .     S
N1111  C1113   1.444   .     S
N1111  H1112   1.030   .     S
C1113  H1115   1.104   .     S
C1113  H1114   1.105   .     S
C1113  H1116   1.112   .     S
N1117  H1118   1.032   .     S
C1119  H1120   1.110   .     S
C1119  H1121   1.110   .     S
C1119  N1269   1.444   .     S
C1119  H1274   1.109   .     S
N1123  C1125   1.439   .     S
N1123  H1276   1.032   .     S
C1125  H1128   1.110   .     S
C1125  H1126   1.110   .     S
C1125  H1279   1.109   .     S
N1129  C1131   1.445   .     S
N1129  H1130   1.028   .     S
N1129  C1221   1.438   .     S
C1131  H1132   1.110   .     S
C1131  H1134   1.111   .     S
C1131  H1285   1.108   .     S
N1135  C1137   1.443   .     S
N1135  H1136   1.029   .     S
C1137  H1140   1.110   .     S
H1138  C1289   1.108   .     S
H1139  C1289   1.112   .     S
C1141  O1173   1.291   .     A
C1141  C1145   1.439   .     S
C1141  O1175   1.293   .     A
C1142  O1174   1.290   .     A
C1142  C1146   1.423   .     S
C1142  O1176   1.288   .     A
C1143  C1160   1.405   .     A
C1143  H1167   1.082   .     S
C1144  C1159   1.400   .     A
C1144  H1168   1.082   .     S
C1144  C1086   1.394   1_655 S
C1146  C1297   1.354   .     S
C1146  N1363   1.427   .     S
C1147  C1152   1.449   .     S
C1147  O1177   1.299   .     A
C1147  O1179   1.292   .     A
C1148  O1178   1.299   .     A
C1148  C1151   1.450   .     S
C1148  O1180   1.293   .     A
C1149  C1159   1.402   .     A
C1149  C1151   1.405   .     A
C1149  N1181   1.428   .     S
C1150  C1160   1.408   .     A
C1150  C1152   1.405   .     A
C1150  N1187   1.424   .     S
C1151  C1153   1.398   .     A
C1152  C1154   1.394   .     A
C1153  H1165   1.084   .     S
C1153  C1155   1.401   .     A
C1154  H1166   1.082   .     S
C1154  C1156   1.397   .     A
C1155  C1157   1.414   .     A
C1155  C1161   1.412   .     A
C1156  C1162   1.409   .     A
C1156  C1158   1.415   .     A
C1157  C1159   1.412   .     A
C1157  C1082   1.405   1_655 S
C1158  C1160   1.413   .     A
C1161  N1193   1.423   .     S
C1161  C1067   1.400   1_655 S
C1162  N1199   1.419   .     S
Cu1163 O1180   1.949   .     S
Cu1163 O1173   1.975   .     S
Cu1163 Cu1164  2.696   .     S
Cu1163 O1177   1.968   .     S
Cu1163 O1176   1.963   .     S
Cu1163 N1172   2.026   .     S
Cu1164 O1179   1.949   .     S
Cu1164 O1178   1.968   .     S
Cu1164 O1175   1.963   .     S
Cu1164 O1174   1.975   .     S
Cu1164 N1171   2.026   .     S
H1169  N259    1.029   1_556 S
N1172  N259    1.296   1_556 S
N1172  H258    1.028   1_556 S
N1181  H1182   1.032   .     S
N1181  C1183   1.445   .     S
C1183  H1184   1.110   .     S
C1183  H1185   1.107   .     S
C1183  H1186   1.107   .     S
N1187  C1189   1.444   .     S
N1187  H1188   1.030   .     S
C1189  H1191   1.104   .     S
C1189  H1190   1.105   .     S
C1189  H1192   1.112   .     S
N1193  H1194   1.032   .     S
C1195  H1196   1.110   .     S
C1195  H1197   1.110   .     S
C1195  N1345   1.444   .     S
C1195  H1350   1.109   .     S
N1199  C1201   1.439   .     S
N1199  H1352   1.032   .     S
C1201  H1204   1.110   .     S
C1201  H1202   1.110   .     S
C1201  H1355   1.109   .     S
N1205  C1207   1.445   .     S
N1205  H1206   1.028   .     S
N1205  C1297   1.438   .     S
C1207  H1208   1.110   .     S
C1207  H1210   1.111   .     S
C1207  H1361   1.108   .     S
N1211  C1213   1.443   .     S
N1211  H1212   1.029   .     S
C1213  H1216   1.110   .     S
H1214  C1365   1.108   .     S
H1215  C1365   1.112   .     S
C1217  O1249   1.291   .     A
C1217  C1221   1.439   .     S
C1217  O1251   1.293   .     A
C1218  O1250   1.290   .     A
C1218  C1222   1.423   .     S
C1218  O1252   1.288   .     A
C1219  C1236   1.405   .     A
C1219  H1243   1.082   .     S
C1219  C1313   1.400   1_455 S
C1220  C1235   1.400   .     A
C1220  H1244   1.082   .     S
C1220  C1314   1.394   .     S
C1222  C917    1.354   1_565 S
C1222  N983    1.427   1_565 S
C1223  C1228   1.449   .     S
C1223  O1253   1.299   .     A
C1223  O1255   1.292   .     A
C1224  O1254   1.299   .     A
C1224  C1227   1.450   .     S
C1224  O1256   1.293   .     A
C1225  C1235   1.402   .     A
C1225  C1227   1.405   .     A
C1225  N1257   1.428   .     S
C1226  C1236   1.408   .     A
C1226  C1228   1.405   .     A
C1226  N1263   1.424   .     S
C1227  C1229   1.398   .     A
C1228  C1230   1.394   .     A
C1229  H1241   1.084   .     S
C1229  C1231   1.401   .     A
C1230  H1242   1.082   .     S
C1230  C1232   1.397   .     A
C1231  C1233   1.414   .     A
C1231  C1237   1.412   .     A
C1232  C1238   1.409   .     A
C1232  C1234   1.415   .     A
C1233  C1235   1.412   .     A
C1233  C1310   1.405   .     S
C1234  C1236   1.413   .     A
C1234  C1309   1.405   1_455 S
C1237  N1269   1.423   .     S
C1237  C1295   1.400   .     S
C1238  N1275   1.419   .     S
C1238  C1296   1.394   1_455 S
Cu1239 O1256   1.949   .     S
Cu1239 O1249   1.975   .     S
Cu1239 Cu1240  2.696   .     S
Cu1239 O1253   1.968   .     S
Cu1239 O1252   1.963   .     S
Cu1239 N1248   2.026   .     S
Cu1240 O1255   1.949   .     S
Cu1240 O1254   1.968   .     S
Cu1240 O1251   1.963   .     S
Cu1240 O1250   1.975   .     S
Cu1240 N1247   2.026   .     S
H1245  N335    1.029   1_556 S
N1248  N335    1.296   1_556 S
N1248  H334    1.028   1_556 S
N1257  H1258   1.032   .     S
N1257  C1259   1.445   .     S
C1259  H1260   1.110   .     S
C1259  H1261   1.107   .     S
C1259  H1262   1.107   .     S
N1263  C1265   1.444   .     S
N1263  H1264   1.030   .     S
C1265  H1267   1.104   .     S
C1265  H1266   1.105   .     S
C1265  H1268   1.112   .     S
N1269  H1270   1.032   .     S
C1271  H1272   1.110   .     S
C1271  H1273   1.110   .     S
C1271  N965    1.444   1_565 S
C1271  H970    1.109   1_565 S
N1275  C1277   1.439   .     S
N1275  H972    1.032   1_565 S
C1277  H1280   1.110   .     S
C1277  H1278   1.110   .     S
C1277  H975    1.109   1_565 S
N1281  C1283   1.445   .     S
N1281  H1282   1.028   .     S
N1281  C917    1.438   1_565 S
C1283  H1284   1.110   .     S
C1283  H1286   1.111   .     S
C1283  H981    1.108   1_565 S
N1287  C1289   1.443   .     S
N1287  H1288   1.029   .     S
C1289  H1292   1.110   .     S
H1290  C985    1.108   1_565 S
H1291  C985    1.112   1_565 S
C1293  O1325   1.291   .     A
C1293  C1297   1.439   .     S
C1293  O1327   1.293   .     A
C1294  O1326   1.290   .     A
C1294  C1298   1.423   .     S
C1294  O1328   1.288   .     A
C1295  C1312   1.405   .     A
C1295  H1319   1.082   .     S
C1296  C1311   1.400   .     A
C1296  H1320   1.082   .     S
C1296  C1238   1.394   1_655 S
C1298  C993    1.354   1_565 S
C1298  N1059   1.427   1_565 S
C1299  C1304   1.449   .     S
C1299  O1329   1.299   .     A
C1299  O1331   1.292   .     A
C1300  O1330   1.299   .     A
C1300  C1303   1.450   .     S
C1300  O1332   1.293   .     A
C1301  C1311   1.402   .     A
C1301  C1303   1.405   .     A
C1301  N1333   1.428   .     S
C1302  C1312   1.408   .     A
C1302  C1304   1.405   .     A
C1302  N1339   1.424   .     S
C1303  C1305   1.398   .     A
C1304  C1306   1.394   .     A
C1305  H1317   1.084   .     S
C1305  C1307   1.401   .     A
C1306  H1318   1.082   .     S
C1306  C1308   1.397   .     A
C1307  C1309   1.414   .     A
C1307  C1313   1.412   .     A
C1308  C1314   1.409   .     A
C1308  C1310   1.415   .     A
C1309  C1311   1.412   .     A
C1309  C1234   1.405   1_655 S
C1310  C1312   1.413   .     A
C1313  N1345   1.423   .     S
C1313  C1219   1.400   1_655 S
C1314  N1351   1.419   .     S
Cu1315 O1332   1.949   .     S
Cu1315 O1325   1.975   .     S
Cu1315 Cu1316  2.696   .     S
Cu1315 O1329   1.968   .     S
Cu1315 O1328   1.963   .     S
Cu1315 N1324   2.026   .     S
Cu1316 O1331   1.949   .     S
Cu1316 O1330   1.968   .     S
Cu1316 O1327   1.963   .     S
Cu1316 O1326   1.975   .     S
Cu1316 N1323   2.026   .     S
H1321  N411    1.029   1_556 S
N1324  N411    1.296   1_556 S
N1324  H410    1.028   1_556 S
N1333  H1334   1.032   .     S
N1333  C1335   1.445   .     S
C1335  H1336   1.110   .     S
C1335  H1337   1.107   .     S
C1335  H1338   1.107   .     S
N1339  C1341   1.444   .     S
N1339  H1340   1.030   .     S
C1341  H1343   1.104   .     S
C1341  H1342   1.105   .     S
C1341  H1344   1.112   .     S
N1345  H1346   1.032   .     S
C1347  H1348   1.110   .     S
C1347  H1349   1.110   .     S
C1347  N1041   1.444   1_565 S
C1347  H1046   1.109   1_565 S
N1351  C1353   1.439   .     S
N1351  H1048   1.032   1_565 S
C1353  H1356   1.110   .     S
C1353  H1354   1.110   .     S
C1353  H1051   1.109   1_565 S
N1357  C1359   1.445   .     S
N1357  H1358   1.028   .     S
N1357  C993    1.438   1_565 S
C1359  H1360   1.110   .     S
C1359  H1362   1.111   .     S
C1359  H1057   1.108   1_565 S
N1363  C1365   1.443   .     S
N1363  H1364   1.029   .     S
C1365  H1368   1.110   .     S
H1366  C1061   1.108   1_565 S
H1367  C1061   1.112   1_565 S
