data_str_m2_o1_o10_pcu_sym.107
_audit_creation_date              2020-01-03
_audit_creation_method            'Materials Studio'
_symmetry_space_group_name_H-M    'P1'
_symmetry_Int_Tables_number       1
_symmetry_cell_setting            triclinic
loop_
_symmetry_equiv_pos_as_xyz
  x,y,z
_cell_length_a                    26.3540
_cell_length_b                    32.4056
_cell_length_c                    28.6660
_cell_angle_alpha                 88.9210
_cell_angle_beta                  97.3008
_cell_angle_gamma                 91.1497
loop_
_atom_site_label
_atom_site_type_symbol
_atom_site_fract_x
_atom_site_fract_y
_atom_site_fract_z
_atom_site_U_iso_or_equiv
_atom_site_adp_type
_atom_site_occupancy
C1     C     0.16634   0.08748   0.16706   0.00000  Uiso   1.00
C2     C     0.16718   0.24586   0.16626   0.00000  Uiso   1.00
C3     C     0.06814   0.16551   0.15489   0.00000  Uiso   1.00
C4     C     0.26519   0.16785   0.17844   0.00000  Uiso   1.00
C5     C     0.01305   0.16059   0.14924   0.00000  Uiso   1.00
C6     C     0.32029   0.17278   0.18409   0.00000  Uiso   1.00
C7     C     0.13192   0.02188   0.13399   0.00000  Uiso   1.00
C8     C     0.20288   0.31204   0.19869   0.00000  Uiso   1.00
C9     C     0.13384   0.31185   0.13222   0.00000  Uiso   1.00
C10    C     0.20001   0.02148   0.20091   0.00000  Uiso   1.00
C11    C     0.16864   0.29059   0.16523   0.00000  Uiso   1.00
C12    C     0.16568   0.04278   0.16784   0.00000  Uiso   1.00
C13    C     0.13113   0.14435   0.02165   0.00000  Uiso   1.00
C14    C     0.20186   0.18967   0.31196   0.00000  Uiso   1.00
C15    C     0.13079   0.14396   0.30582   0.00000  Uiso   1.00
C16    C     0.20192   0.18998   0.02850   0.00000  Uiso   1.00
Cu17   Cu    0.16667   0.16667   0.21355   0.00000  Uiso   1.00
Cu18   Cu    0.16667   0.16666   0.11978   0.00000  Uiso   1.00
H19    H     0.10284   0.12628   0.03776   0.00000  Uiso   1.00
H20    H     0.22971   0.20807   0.29569   0.00000  Uiso   1.00
N21    N     0.16668   0.16668   0.28403   0.00000  Uiso   1.00
N22    N     0.16665   0.16666   0.04931   0.00000  Uiso   1.00
O23    O     0.16666   0.10655   0.20625   0.00000  Uiso   1.00
O24    O     0.16667   0.22678   0.12709   0.00000  Uiso   1.00
O25    O     0.16666   0.10654   0.12706   0.00000  Uiso   1.00
O26    O     0.16667   0.22679   0.20628   0.00000  Uiso   1.00
O27    O     0.09161   0.16667   0.19712   0.00000  Uiso   1.00
O28    O     0.24172   0.16666   0.13621   0.00000  Uiso   1.00
O29    O     0.09161   0.16666   0.11793   0.00000  Uiso   1.00
O30    O     0.24172   0.16667   0.21540   0.00000  Uiso   1.00
O31    O     0.32139   0.14147   0.10962   0.00000  Uiso   1.00
H32    H     0.01349   0.13147   0.09000   0.00000  Uiso   1.00
O33    O     0.01194   0.19191   0.22371   0.00000  Uiso   1.00
H34    H     0.31985   0.20185   0.24336   0.00000  Uiso   1.00
O35    O     0.09756   0.04506   0.10415   0.00000  Uiso   1.00
H36    H     0.07364   0.02709   0.08411   0.00000  Uiso   1.00
O37    O     0.23988   0.29246   0.22941   0.00000  Uiso   1.00
H38    H     0.24894   0.26626   0.21559   0.00000  Uiso   1.00
N39    N     0.10020   0.28904   0.09879   0.00000  Uiso   1.00
H40    H     0.06185   0.29467   0.09888   0.00000  Uiso   1.00
C41    C     0.11582   0.28767   0.05219   0.00000  Uiso   1.00
H42    H     0.11291   0.31857   0.03477   0.00000  Uiso   1.00
H43    H     0.09069   0.26556   0.03047   0.00000  Uiso   1.00
H44    H     0.15590   0.27716   0.05407   0.00000  Uiso   1.00
N45    N     0.23422   0.04356   0.23451   0.00000  Uiso   1.00
H46    H     0.27188   0.03513   0.23544   0.00000  Uiso   1.00
C47    C     0.21835   0.04434   0.28101   0.00000  Uiso   1.00
H48    H     0.22019   0.01295   0.29735   0.00000  Uiso   1.00
H49    H     0.17868   0.05576   0.27930   0.00000  Uiso   1.00
H50    H     0.24419   0.06542   0.30352   0.00000  Uiso   1.00
O51    O     0.09257   0.12048   0.28155   0.00000  Uiso   1.00
H52    H     0.10327   0.11278   0.25153   0.00000  Uiso   1.00
O53    O     0.23676   0.21394   0.05654   0.00000  Uiso   1.00
H54    H     0.25930   0.22885   0.03644   0.00000  Uiso   1.00
C55    C     0.49967   0.08748   0.16706   0.00000  Uiso   1.00
C56    C     0.50052   0.24586   0.16626   0.00000  Uiso   1.00
C57    C     0.40147   0.16551   0.15489   0.00000  Uiso   1.00
C58    C     0.59853   0.16785   0.17844   0.00000  Uiso   1.00
C59    C     0.34638   0.16059   0.14924   0.00000  Uiso   1.00
C60    C     0.65362   0.17278   0.18409   0.00000  Uiso   1.00
C61    C     0.46525   0.02188   0.13399   0.00000  Uiso   1.00
C62    C     0.53621   0.31204   0.19869   0.00000  Uiso   1.00
C63    C     0.46717   0.31185   0.13222   0.00000  Uiso   1.00
C64    C     0.53334   0.02148   0.20091   0.00000  Uiso   1.00
C65    C     0.50197   0.29059   0.16523   0.00000  Uiso   1.00
C66    C     0.49901   0.04278   0.16784   0.00000  Uiso   1.00
C67    C     0.46446   0.14435   0.02165   0.00000  Uiso   1.00
C68    C     0.53519   0.18967   0.31196   0.00000  Uiso   1.00
C69    C     0.46412   0.14396   0.30582   0.00000  Uiso   1.00
C70    C     0.53526   0.18998   0.02850   0.00000  Uiso   1.00
Cu71   Cu    0.50000   0.16667   0.21355   0.00000  Uiso   1.00
Cu72   Cu    0.50000   0.16666   0.11978   0.00000  Uiso   1.00
H73    H     0.43617   0.12628   0.03776   0.00000  Uiso   1.00
H74    H     0.56304   0.20807   0.29569   0.00000  Uiso   1.00
N75    N     0.50001   0.16668   0.28403   0.00000  Uiso   1.00
N76    N     0.49999   0.16666   0.04931   0.00000  Uiso   1.00
O77    O     0.50000   0.10655   0.20625   0.00000  Uiso   1.00
O78    O     0.50000   0.22678   0.12709   0.00000  Uiso   1.00
O79    O     0.50000   0.10654   0.12706   0.00000  Uiso   1.00
O80    O     0.50000   0.22679   0.20628   0.00000  Uiso   1.00
O81    O     0.42495   0.16667   0.19712   0.00000  Uiso   1.00
O82    O     0.57505   0.16666   0.13621   0.00000  Uiso   1.00
O83    O     0.42494   0.16666   0.11793   0.00000  Uiso   1.00
O84    O     0.57506   0.16667   0.21540   0.00000  Uiso   1.00
O85    O     0.65472   0.14147   0.10962   0.00000  Uiso   1.00
H86    H     0.34682   0.13147   0.09000   0.00000  Uiso   1.00
O87    O     0.34528   0.19191   0.22371   0.00000  Uiso   1.00
H88    H     0.65318   0.20185   0.24336   0.00000  Uiso   1.00
O89    O     0.43090   0.04506   0.10415   0.00000  Uiso   1.00
H90    H     0.40698   0.02709   0.08411   0.00000  Uiso   1.00
O91    O     0.57321   0.29246   0.22941   0.00000  Uiso   1.00
H92    H     0.58227   0.26626   0.21559   0.00000  Uiso   1.00
N93    N     0.43353   0.28904   0.09879   0.00000  Uiso   1.00
H94    H     0.39518   0.29467   0.09888   0.00000  Uiso   1.00
C95    C     0.44915   0.28767   0.05219   0.00000  Uiso   1.00
H96    H     0.44624   0.31857   0.03477   0.00000  Uiso   1.00
H97    H     0.42402   0.26556   0.03047   0.00000  Uiso   1.00
H98    H     0.48923   0.27716   0.05407   0.00000  Uiso   1.00
N99    N     0.56755   0.04356   0.23451   0.00000  Uiso   1.00
H100   H     0.60521   0.03513   0.23544   0.00000  Uiso   1.00
C101   C     0.55168   0.04434   0.28101   0.00000  Uiso   1.00
H102   H     0.55352   0.01295   0.29735   0.00000  Uiso   1.00
H103   H     0.51202   0.05576   0.27930   0.00000  Uiso   1.00
H104   H     0.57752   0.06542   0.30352   0.00000  Uiso   1.00
O105   O     0.42590   0.12048   0.28155   0.00000  Uiso   1.00
H106   H     0.43660   0.11278   0.25153   0.00000  Uiso   1.00
O107   O     0.57010   0.21394   0.05654   0.00000  Uiso   1.00
H108   H     0.59263   0.22885   0.03644   0.00000  Uiso   1.00
C109   C     0.83300   0.08748   0.16706   0.00000  Uiso   1.00
C110   C     0.83385   0.24586   0.16626   0.00000  Uiso   1.00
C111   C     0.73481   0.16551   0.15489   0.00000  Uiso   1.00
C112   C     0.93186   0.16785   0.17844   0.00000  Uiso   1.00
C113   C     0.67971   0.16059   0.14924   0.00000  Uiso   1.00
C114   C     0.98695   0.17278   0.18409   0.00000  Uiso   1.00
C115   C     0.79858   0.02188   0.13399   0.00000  Uiso   1.00
C116   C     0.86954   0.31204   0.19869   0.00000  Uiso   1.00
C117   C     0.80050   0.31185   0.13222   0.00000  Uiso   1.00
C118   C     0.86667   0.02148   0.20091   0.00000  Uiso   1.00
C119   C     0.83530   0.29059   0.16523   0.00000  Uiso   1.00
C120   C     0.83235   0.04278   0.16784   0.00000  Uiso   1.00
C121   C     0.79779   0.14435   0.02165   0.00000  Uiso   1.00
C122   C     0.86853   0.18967   0.31196   0.00000  Uiso   1.00
C123   C     0.79745   0.14396   0.30582   0.00000  Uiso   1.00
C124   C     0.86859   0.18998   0.02850   0.00000  Uiso   1.00
Cu125  Cu    0.83333   0.16667   0.21355   0.00000  Uiso   1.00
Cu126  Cu    0.83333   0.16666   0.11978   0.00000  Uiso   1.00
H127   H     0.76951   0.12628   0.03776   0.00000  Uiso   1.00
H128   H     0.89638   0.20807   0.29569   0.00000  Uiso   1.00
N129   N     0.83335   0.16668   0.28403   0.00000  Uiso   1.00
N130   N     0.83332   0.16666   0.04931   0.00000  Uiso   1.00
O131   O     0.83333   0.10655   0.20625   0.00000  Uiso   1.00
O132   O     0.83334   0.22678   0.12709   0.00000  Uiso   1.00
O133   O     0.83333   0.10654   0.12706   0.00000  Uiso   1.00
O134   O     0.83334   0.22679   0.20628   0.00000  Uiso   1.00
O135   O     0.75828   0.16667   0.19712   0.00000  Uiso   1.00
O136   O     0.90839   0.16666   0.13621   0.00000  Uiso   1.00
O137   O     0.75828   0.16666   0.11793   0.00000  Uiso   1.00
O138   O     0.90839   0.16667   0.21540   0.00000  Uiso   1.00
O139   O     0.98806   0.14147   0.10962   0.00000  Uiso   1.00
H140   H     0.68015   0.13147   0.09000   0.00000  Uiso   1.00
O141   O     0.67861   0.19191   0.22371   0.00000  Uiso   1.00
H142   H     0.98652   0.20185   0.24336   0.00000  Uiso   1.00
O143   O     0.76423   0.04506   0.10415   0.00000  Uiso   1.00
H144   H     0.74031   0.02709   0.08411   0.00000  Uiso   1.00
O145   O     0.90655   0.29246   0.22941   0.00000  Uiso   1.00
H146   H     0.91561   0.26626   0.21559   0.00000  Uiso   1.00
N147   N     0.76686   0.28904   0.09879   0.00000  Uiso   1.00
H148   H     0.72851   0.29467   0.09888   0.00000  Uiso   1.00
C149   C     0.78249   0.28767   0.05219   0.00000  Uiso   1.00
H150   H     0.77958   0.31857   0.03477   0.00000  Uiso   1.00
H151   H     0.75735   0.26556   0.03047   0.00000  Uiso   1.00
H152   H     0.82257   0.27716   0.05407   0.00000  Uiso   1.00
N153   N     0.90089   0.04356   0.23451   0.00000  Uiso   1.00
H154   H     0.93855   0.03513   0.23544   0.00000  Uiso   1.00
C155   C     0.88502   0.04434   0.28101   0.00000  Uiso   1.00
H156   H     0.88685   0.01295   0.29735   0.00000  Uiso   1.00
H157   H     0.84535   0.05576   0.27930   0.00000  Uiso   1.00
H158   H     0.91086   0.06542   0.30352   0.00000  Uiso   1.00
O159   O     0.75924   0.12048   0.28155   0.00000  Uiso   1.00
H160   H     0.76993   0.11278   0.25153   0.00000  Uiso   1.00
O161   O     0.90343   0.21394   0.05654   0.00000  Uiso   1.00
H162   H     0.92596   0.22885   0.03644   0.00000  Uiso   1.00
C163   C     0.16634   0.42081   0.16706   0.00000  Uiso   1.00
C164   C     0.16718   0.57919   0.16626   0.00000  Uiso   1.00
C165   C     0.06814   0.49884   0.15489   0.00000  Uiso   1.00
C166   C     0.26519   0.50118   0.17844   0.00000  Uiso   1.00
C167   C     0.01305   0.49392   0.14924   0.00000  Uiso   1.00
C168   C     0.32029   0.50611   0.18409   0.00000  Uiso   1.00
C169   C     0.13192   0.35521   0.13399   0.00000  Uiso   1.00
C170   C     0.20288   0.64537   0.19869   0.00000  Uiso   1.00
C171   C     0.13384   0.64518   0.13222   0.00000  Uiso   1.00
C172   C     0.20001   0.35481   0.20091   0.00000  Uiso   1.00
C173   C     0.16864   0.62392   0.16523   0.00000  Uiso   1.00
C174   C     0.16568   0.37611   0.16784   0.00000  Uiso   1.00
C175   C     0.13113   0.47768   0.02165   0.00000  Uiso   1.00
C176   C     0.20186   0.52300   0.31196   0.00000  Uiso   1.00
C177   C     0.13079   0.47730   0.30582   0.00000  Uiso   1.00
C178   C     0.20192   0.52331   0.02850   0.00000  Uiso   1.00
Cu179  Cu    0.16667   0.50001   0.21355   0.00000  Uiso   1.00
Cu180  Cu    0.16667   0.49999   0.11978   0.00000  Uiso   1.00
H181   H     0.10284   0.45961   0.03776   0.00000  Uiso   1.00
H182   H     0.22971   0.54141   0.29569   0.00000  Uiso   1.00
N183   N     0.16668   0.50001   0.28403   0.00000  Uiso   1.00
N184   N     0.16665   0.49999   0.04931   0.00000  Uiso   1.00
O185   O     0.16666   0.43989   0.20625   0.00000  Uiso   1.00
O186   O     0.16667   0.56011   0.12709   0.00000  Uiso   1.00
O187   O     0.16666   0.43988   0.12706   0.00000  Uiso   1.00
O188   O     0.16667   0.56012   0.20628   0.00000  Uiso   1.00
O189   O     0.09161   0.50000   0.19712   0.00000  Uiso   1.00
O190   O     0.24172   0.50000   0.13621   0.00000  Uiso   1.00
O191   O     0.09161   0.49999   0.11793   0.00000  Uiso   1.00
O192   O     0.24172   0.50001   0.21540   0.00000  Uiso   1.00
O193   O     0.32139   0.47480   0.10962   0.00000  Uiso   1.00
H194   H     0.01349   0.46481   0.09000   0.00000  Uiso   1.00
O195   O     0.01194   0.52525   0.22371   0.00000  Uiso   1.00
H196   H     0.31985   0.53518   0.24336   0.00000  Uiso   1.00
O197   O     0.09756   0.37840   0.10415   0.00000  Uiso   1.00
H198   H     0.07364   0.36042   0.08411   0.00000  Uiso   1.00
O199   O     0.23988   0.62579   0.22941   0.00000  Uiso   1.00
H200   H     0.24894   0.59959   0.21559   0.00000  Uiso   1.00
N201   N     0.10020   0.62237   0.09879   0.00000  Uiso   1.00
H202   H     0.06185   0.62801   0.09888   0.00000  Uiso   1.00
C203   C     0.11582   0.62100   0.05219   0.00000  Uiso   1.00
H204   H     0.11291   0.65190   0.03477   0.00000  Uiso   1.00
H205   H     0.09069   0.59889   0.03047   0.00000  Uiso   1.00
H206   H     0.15590   0.61050   0.05407   0.00000  Uiso   1.00
N207   N     0.23422   0.37689   0.23451   0.00000  Uiso   1.00
H208   H     0.27188   0.36847   0.23544   0.00000  Uiso   1.00
C209   C     0.21835   0.37768   0.28101   0.00000  Uiso   1.00
H210   H     0.22019   0.34628   0.29735   0.00000  Uiso   1.00
H211   H     0.17868   0.38910   0.27930   0.00000  Uiso   1.00
H212   H     0.24419   0.39875   0.30352   0.00000  Uiso   1.00
O213   O     0.09257   0.45381   0.28155   0.00000  Uiso   1.00
H214   H     0.10327   0.44612   0.25153   0.00000  Uiso   1.00
O215   O     0.23676   0.54727   0.05654   0.00000  Uiso   1.00
H216   H     0.25930   0.56219   0.03644   0.00000  Uiso   1.00
C217   C     0.49967   0.42081   0.16706   0.00000  Uiso   1.00
C218   C     0.50052   0.57919   0.16626   0.00000  Uiso   1.00
C219   C     0.40147   0.49884   0.15489   0.00000  Uiso   1.00
C220   C     0.59853   0.50118   0.17844   0.00000  Uiso   1.00
C221   C     0.34638   0.49392   0.14924   0.00000  Uiso   1.00
C222   C     0.65362   0.50611   0.18409   0.00000  Uiso   1.00
C223   C     0.46525   0.35521   0.13399   0.00000  Uiso   1.00
C224   C     0.53621   0.64537   0.19869   0.00000  Uiso   1.00
C225   C     0.46717   0.64518   0.13222   0.00000  Uiso   1.00
C226   C     0.53334   0.35481   0.20091   0.00000  Uiso   1.00
C227   C     0.50197   0.62392   0.16523   0.00000  Uiso   1.00
C228   C     0.49901   0.37611   0.16784   0.00000  Uiso   1.00
C229   C     0.46446   0.47768   0.02165   0.00000  Uiso   1.00
C230   C     0.53519   0.52300   0.31196   0.00000  Uiso   1.00
C231   C     0.46412   0.47730   0.30582   0.00000  Uiso   1.00
C232   C     0.53526   0.52331   0.02850   0.00000  Uiso   1.00
Cu233  Cu    0.50000   0.50001   0.21355   0.00000  Uiso   1.00
Cu234  Cu    0.50000   0.49999   0.11978   0.00000  Uiso   1.00
H235   H     0.43617   0.45961   0.03776   0.00000  Uiso   1.00
H236   H     0.56304   0.54141   0.29569   0.00000  Uiso   1.00
N237   N     0.50001   0.50001   0.28403   0.00000  Uiso   1.00
N238   N     0.49999   0.49999   0.04931   0.00000  Uiso   1.00
O239   O     0.50000   0.43989   0.20625   0.00000  Uiso   1.00
O240   O     0.50000   0.56011   0.12709   0.00000  Uiso   1.00
O241   O     0.50000   0.43988   0.12706   0.00000  Uiso   1.00
O242   O     0.50000   0.56012   0.20628   0.00000  Uiso   1.00
O243   O     0.42495   0.50000   0.19712   0.00000  Uiso   1.00
O244   O     0.57505   0.50000   0.13621   0.00000  Uiso   1.00
O245   O     0.42494   0.49999   0.11793   0.00000  Uiso   1.00
O246   O     0.57506   0.50001   0.21540   0.00000  Uiso   1.00
O247   O     0.65472   0.47480   0.10962   0.00000  Uiso   1.00
H248   H     0.34682   0.46481   0.09000   0.00000  Uiso   1.00
O249   O     0.34528   0.52525   0.22371   0.00000  Uiso   1.00
H250   H     0.65318   0.53518   0.24336   0.00000  Uiso   1.00
O251   O     0.43090   0.37840   0.10415   0.00000  Uiso   1.00
H252   H     0.40698   0.36042   0.08411   0.00000  Uiso   1.00
O253   O     0.57321   0.62579   0.22941   0.00000  Uiso   1.00
H254   H     0.58227   0.59959   0.21559   0.00000  Uiso   1.00
N255   N     0.43353   0.62237   0.09879   0.00000  Uiso   1.00
H256   H     0.39518   0.62801   0.09888   0.00000  Uiso   1.00
C257   C     0.44915   0.62100   0.05219   0.00000  Uiso   1.00
H258   H     0.44624   0.65190   0.03477   0.00000  Uiso   1.00
H259   H     0.42402   0.59889   0.03047   0.00000  Uiso   1.00
H260   H     0.48923   0.61050   0.05407   0.00000  Uiso   1.00
N261   N     0.56755   0.37689   0.23451   0.00000  Uiso   1.00
H262   H     0.60521   0.36847   0.23544   0.00000  Uiso   1.00
C263   C     0.55168   0.37768   0.28101   0.00000  Uiso   1.00
H264   H     0.55352   0.34628   0.29735   0.00000  Uiso   1.00
H265   H     0.51202   0.38910   0.27930   0.00000  Uiso   1.00
H266   H     0.57752   0.39875   0.30352   0.00000  Uiso   1.00
O267   O     0.42590   0.45381   0.28155   0.00000  Uiso   1.00
H268   H     0.43660   0.44612   0.25153   0.00000  Uiso   1.00
O269   O     0.57010   0.54727   0.05654   0.00000  Uiso   1.00
H270   H     0.59263   0.56219   0.03644   0.00000  Uiso   1.00
C271   C     0.83300   0.42081   0.16706   0.00000  Uiso   1.00
C272   C     0.83385   0.57919   0.16626   0.00000  Uiso   1.00
C273   C     0.73481   0.49884   0.15489   0.00000  Uiso   1.00
C274   C     0.93186   0.50118   0.17844   0.00000  Uiso   1.00
C275   C     0.67971   0.49392   0.14924   0.00000  Uiso   1.00
C276   C     0.98695   0.50611   0.18409   0.00000  Uiso   1.00
C277   C     0.79858   0.35521   0.13399   0.00000  Uiso   1.00
C278   C     0.86954   0.64537   0.19869   0.00000  Uiso   1.00
C279   C     0.80050   0.64518   0.13222   0.00000  Uiso   1.00
C280   C     0.86667   0.35481   0.20091   0.00000  Uiso   1.00
C281   C     0.83530   0.62392   0.16523   0.00000  Uiso   1.00
C282   C     0.83235   0.37611   0.16784   0.00000  Uiso   1.00
C283   C     0.79779   0.47768   0.02165   0.00000  Uiso   1.00
C284   C     0.86853   0.52300   0.31196   0.00000  Uiso   1.00
C285   C     0.79745   0.47730   0.30582   0.00000  Uiso   1.00
C286   C     0.86859   0.52331   0.02850   0.00000  Uiso   1.00
Cu287  Cu    0.83333   0.50001   0.21355   0.00000  Uiso   1.00
Cu288  Cu    0.83333   0.49999   0.11978   0.00000  Uiso   1.00
H289   H     0.76951   0.45961   0.03776   0.00000  Uiso   1.00
H290   H     0.89638   0.54141   0.29569   0.00000  Uiso   1.00
N291   N     0.83335   0.50001   0.28403   0.00000  Uiso   1.00
N292   N     0.83332   0.49999   0.04931   0.00000  Uiso   1.00
O293   O     0.83333   0.43989   0.20625   0.00000  Uiso   1.00
O294   O     0.83334   0.56011   0.12709   0.00000  Uiso   1.00
O295   O     0.83333   0.43988   0.12706   0.00000  Uiso   1.00
O296   O     0.83334   0.56012   0.20628   0.00000  Uiso   1.00
O297   O     0.75828   0.50000   0.19712   0.00000  Uiso   1.00
O298   O     0.90839   0.50000   0.13621   0.00000  Uiso   1.00
O299   O     0.75828   0.49999   0.11793   0.00000  Uiso   1.00
O300   O     0.90839   0.50001   0.21540   0.00000  Uiso   1.00
O301   O     0.98806   0.47480   0.10962   0.00000  Uiso   1.00
H302   H     0.68015   0.46481   0.09000   0.00000  Uiso   1.00
O303   O     0.67861   0.52525   0.22371   0.00000  Uiso   1.00
H304   H     0.98652   0.53518   0.24336   0.00000  Uiso   1.00
O305   O     0.76423   0.37840   0.10415   0.00000  Uiso   1.00
H306   H     0.74031   0.36042   0.08411   0.00000  Uiso   1.00
O307   O     0.90655   0.62579   0.22941   0.00000  Uiso   1.00
H308   H     0.91561   0.59959   0.21559   0.00000  Uiso   1.00
N309   N     0.76686   0.62237   0.09879   0.00000  Uiso   1.00
H310   H     0.72851   0.62801   0.09888   0.00000  Uiso   1.00
C311   C     0.78249   0.62100   0.05219   0.00000  Uiso   1.00
H312   H     0.77958   0.65190   0.03477   0.00000  Uiso   1.00
H313   H     0.75735   0.59889   0.03047   0.00000  Uiso   1.00
H314   H     0.82257   0.61050   0.05407   0.00000  Uiso   1.00
N315   N     0.90089   0.37689   0.23451   0.00000  Uiso   1.00
H316   H     0.93855   0.36847   0.23544   0.00000  Uiso   1.00
C317   C     0.88502   0.37768   0.28101   0.00000  Uiso   1.00
H318   H     0.88685   0.34628   0.29735   0.00000  Uiso   1.00
H319   H     0.84535   0.38910   0.27930   0.00000  Uiso   1.00
H320   H     0.91086   0.39875   0.30352   0.00000  Uiso   1.00
O321   O     0.75924   0.45381   0.28155   0.00000  Uiso   1.00
H322   H     0.76993   0.44612   0.25153   0.00000  Uiso   1.00
O323   O     0.90343   0.54727   0.05654   0.00000  Uiso   1.00
H324   H     0.92596   0.56219   0.03644   0.00000  Uiso   1.00
C325   C     0.16634   0.75414   0.16706   0.00000  Uiso   1.00
C326   C     0.16718   0.91253   0.16626   0.00000  Uiso   1.00
C327   C     0.06814   0.83218   0.15489   0.00000  Uiso   1.00
C328   C     0.26519   0.83451   0.17844   0.00000  Uiso   1.00
C329   C     0.01305   0.82726   0.14924   0.00000  Uiso   1.00
C330   C     0.32029   0.83945   0.18409   0.00000  Uiso   1.00
C331   C     0.13192   0.68855   0.13399   0.00000  Uiso   1.00
C332   C     0.20288   0.97871   0.19869   0.00000  Uiso   1.00
C333   C     0.13384   0.97852   0.13222   0.00000  Uiso   1.00
C334   C     0.20001   0.68814   0.20091   0.00000  Uiso   1.00
C335   C     0.16864   0.95726   0.16523   0.00000  Uiso   1.00
C336   C     0.16568   0.70945   0.16784   0.00000  Uiso   1.00
C337   C     0.13113   0.81102   0.02165   0.00000  Uiso   1.00
C338   C     0.20186   0.85634   0.31196   0.00000  Uiso   1.00
C339   C     0.13079   0.81063   0.30582   0.00000  Uiso   1.00
C340   C     0.20192   0.85664   0.02850   0.00000  Uiso   1.00
Cu341  Cu    0.16667   0.83334   0.21355   0.00000  Uiso   1.00
Cu342  Cu    0.16667   0.83333   0.11978   0.00000  Uiso   1.00
H343   H     0.10284   0.79295   0.03776   0.00000  Uiso   1.00
H344   H     0.22971   0.87474   0.29569   0.00000  Uiso   1.00
N345   N     0.16668   0.83334   0.28403   0.00000  Uiso   1.00
N346   N     0.16665   0.83332   0.04931   0.00000  Uiso   1.00
O347   O     0.16666   0.77322   0.20625   0.00000  Uiso   1.00
O348   O     0.16667   0.89345   0.12709   0.00000  Uiso   1.00
O349   O     0.16666   0.77321   0.12706   0.00000  Uiso   1.00
O350   O     0.16667   0.89346   0.20628   0.00000  Uiso   1.00
O351   O     0.09161   0.83334   0.19712   0.00000  Uiso   1.00
O352   O     0.24172   0.83333   0.13621   0.00000  Uiso   1.00
O353   O     0.09161   0.83333   0.11793   0.00000  Uiso   1.00
O354   O     0.24172   0.83334   0.21540   0.00000  Uiso   1.00
O355   O     0.32139   0.80813   0.10962   0.00000  Uiso   1.00
H356   H     0.01349   0.79814   0.09000   0.00000  Uiso   1.00
O357   O     0.01194   0.85858   0.22371   0.00000  Uiso   1.00
H358   H     0.31985   0.86851   0.24336   0.00000  Uiso   1.00
O359   O     0.09756   0.71173   0.10415   0.00000  Uiso   1.00
H360   H     0.07364   0.69376   0.08411   0.00000  Uiso   1.00
O361   O     0.23988   0.95913   0.22941   0.00000  Uiso   1.00
H362   H     0.24894   0.93292   0.21559   0.00000  Uiso   1.00
N363   N     0.10020   0.95571   0.09879   0.00000  Uiso   1.00
H364   H     0.06185   0.96134   0.09888   0.00000  Uiso   1.00
C365   C     0.11582   0.95433   0.05219   0.00000  Uiso   1.00
H366   H     0.11291   0.98523   0.03477   0.00000  Uiso   1.00
H367   H     0.09069   0.93223   0.03047   0.00000  Uiso   1.00
H368   H     0.15590   0.94383   0.05407   0.00000  Uiso   1.00
N369   N     0.23422   0.71022   0.23451   0.00000  Uiso   1.00
H370   H     0.27188   0.70180   0.23544   0.00000  Uiso   1.00
C371   C     0.21835   0.71101   0.28101   0.00000  Uiso   1.00
H372   H     0.22019   0.67962   0.29735   0.00000  Uiso   1.00
H373   H     0.17868   0.72243   0.27930   0.00000  Uiso   1.00
H374   H     0.24419   0.73208   0.30352   0.00000  Uiso   1.00
O375   O     0.09257   0.78714   0.28155   0.00000  Uiso   1.00
H376   H     0.10327   0.77945   0.25153   0.00000  Uiso   1.00
O377   O     0.23676   0.88061   0.05654   0.00000  Uiso   1.00
H378   H     0.25930   0.89552   0.03644   0.00000  Uiso   1.00
C379   C     0.49967   0.75414   0.16706   0.00000  Uiso   1.00
C380   C     0.50052   0.91253   0.16626   0.00000  Uiso   1.00
C381   C     0.40147   0.83218   0.15489   0.00000  Uiso   1.00
C382   C     0.59853   0.83451   0.17844   0.00000  Uiso   1.00
C383   C     0.34638   0.82726   0.14924   0.00000  Uiso   1.00
C384   C     0.65362   0.83945   0.18409   0.00000  Uiso   1.00
C385   C     0.46525   0.68855   0.13399   0.00000  Uiso   1.00
C386   C     0.53621   0.97871   0.19869   0.00000  Uiso   1.00
C387   C     0.46717   0.97852   0.13222   0.00000  Uiso   1.00
C388   C     0.53334   0.68814   0.20091   0.00000  Uiso   1.00
C389   C     0.50197   0.95726   0.16523   0.00000  Uiso   1.00
C390   C     0.49901   0.70945   0.16784   0.00000  Uiso   1.00
C391   C     0.46446   0.81102   0.02165   0.00000  Uiso   1.00
C392   C     0.53519   0.85634   0.31196   0.00000  Uiso   1.00
C393   C     0.46412   0.81063   0.30582   0.00000  Uiso   1.00
C394   C     0.53526   0.85664   0.02850   0.00000  Uiso   1.00
Cu395  Cu    0.50000   0.83334   0.21355   0.00000  Uiso   1.00
Cu396  Cu    0.50000   0.83333   0.11978   0.00000  Uiso   1.00
H397   H     0.43617   0.79295   0.03776   0.00000  Uiso   1.00
H398   H     0.56304   0.87474   0.29569   0.00000  Uiso   1.00
N399   N     0.50001   0.83334   0.28403   0.00000  Uiso   1.00
N400   N     0.49999   0.83332   0.04931   0.00000  Uiso   1.00
O401   O     0.50000   0.77322   0.20625   0.00000  Uiso   1.00
O402   O     0.50000   0.89345   0.12709   0.00000  Uiso   1.00
O403   O     0.50000   0.77321   0.12706   0.00000  Uiso   1.00
O404   O     0.50000   0.89346   0.20628   0.00000  Uiso   1.00
O405   O     0.42495   0.83334   0.19712   0.00000  Uiso   1.00
O406   O     0.57505   0.83333   0.13621   0.00000  Uiso   1.00
O407   O     0.42494   0.83333   0.11793   0.00000  Uiso   1.00
O408   O     0.57506   0.83334   0.21540   0.00000  Uiso   1.00
O409   O     0.65472   0.80813   0.10962   0.00000  Uiso   1.00
H410   H     0.34682   0.79814   0.09000   0.00000  Uiso   1.00
O411   O     0.34528   0.85858   0.22371   0.00000  Uiso   1.00
H412   H     0.65318   0.86851   0.24336   0.00000  Uiso   1.00
O413   O     0.43090   0.71173   0.10415   0.00000  Uiso   1.00
H414   H     0.40698   0.69376   0.08411   0.00000  Uiso   1.00
O415   O     0.57321   0.95913   0.22941   0.00000  Uiso   1.00
H416   H     0.58227   0.93292   0.21559   0.00000  Uiso   1.00
N417   N     0.43353   0.95571   0.09879   0.00000  Uiso   1.00
H418   H     0.39518   0.96134   0.09888   0.00000  Uiso   1.00
C419   C     0.44915   0.95433   0.05219   0.00000  Uiso   1.00
H420   H     0.44624   0.98523   0.03477   0.00000  Uiso   1.00
H421   H     0.42402   0.93223   0.03047   0.00000  Uiso   1.00
H422   H     0.48923   0.94383   0.05407   0.00000  Uiso   1.00
N423   N     0.56755   0.71022   0.23451   0.00000  Uiso   1.00
H424   H     0.60521   0.70180   0.23544   0.00000  Uiso   1.00
C425   C     0.55168   0.71101   0.28101   0.00000  Uiso   1.00
H426   H     0.55352   0.67962   0.29735   0.00000  Uiso   1.00
H427   H     0.51202   0.72243   0.27930   0.00000  Uiso   1.00
H428   H     0.57752   0.73208   0.30352   0.00000  Uiso   1.00
O429   O     0.42590   0.78714   0.28155   0.00000  Uiso   1.00
H430   H     0.43660   0.77945   0.25153   0.00000  Uiso   1.00
O431   O     0.57010   0.88061   0.05654   0.00000  Uiso   1.00
H432   H     0.59263   0.89552   0.03644   0.00000  Uiso   1.00
C433   C     0.83300   0.75414   0.16706   0.00000  Uiso   1.00
C434   C     0.83385   0.91253   0.16626   0.00000  Uiso   1.00
C435   C     0.73481   0.83218   0.15489   0.00000  Uiso   1.00
C436   C     0.93186   0.83451   0.17844   0.00000  Uiso   1.00
C437   C     0.67971   0.82726   0.14924   0.00000  Uiso   1.00
C438   C     0.98695   0.83945   0.18409   0.00000  Uiso   1.00
C439   C     0.79858   0.68855   0.13399   0.00000  Uiso   1.00
C440   C     0.86954   0.97871   0.19869   0.00000  Uiso   1.00
C441   C     0.80050   0.97852   0.13222   0.00000  Uiso   1.00
C442   C     0.86667   0.68814   0.20091   0.00000  Uiso   1.00
C443   C     0.83530   0.95726   0.16523   0.00000  Uiso   1.00
C444   C     0.83235   0.70945   0.16784   0.00000  Uiso   1.00
C445   C     0.79779   0.81102   0.02165   0.00000  Uiso   1.00
C446   C     0.86853   0.85634   0.31196   0.00000  Uiso   1.00
C447   C     0.79745   0.81063   0.30582   0.00000  Uiso   1.00
C448   C     0.86859   0.85664   0.02850   0.00000  Uiso   1.00
Cu449  Cu    0.83333   0.83334   0.21355   0.00000  Uiso   1.00
Cu450  Cu    0.83333   0.83333   0.11978   0.00000  Uiso   1.00
H451   H     0.76951   0.79295   0.03776   0.00000  Uiso   1.00
H452   H     0.89638   0.87474   0.29569   0.00000  Uiso   1.00
N453   N     0.83335   0.83334   0.28403   0.00000  Uiso   1.00
N454   N     0.83332   0.83332   0.04931   0.00000  Uiso   1.00
O455   O     0.83333   0.77322   0.20625   0.00000  Uiso   1.00
O456   O     0.83334   0.89345   0.12709   0.00000  Uiso   1.00
O457   O     0.83333   0.77321   0.12706   0.00000  Uiso   1.00
O458   O     0.83334   0.89346   0.20628   0.00000  Uiso   1.00
O459   O     0.75828   0.83334   0.19712   0.00000  Uiso   1.00
O460   O     0.90839   0.83333   0.13621   0.00000  Uiso   1.00
O461   O     0.75828   0.83333   0.11793   0.00000  Uiso   1.00
O462   O     0.90839   0.83334   0.21540   0.00000  Uiso   1.00
O463   O     0.98806   0.80813   0.10962   0.00000  Uiso   1.00
H464   H     0.68015   0.79814   0.09000   0.00000  Uiso   1.00
O465   O     0.67861   0.85858   0.22371   0.00000  Uiso   1.00
H466   H     0.98652   0.86851   0.24336   0.00000  Uiso   1.00
O467   O     0.76423   0.71173   0.10415   0.00000  Uiso   1.00
H468   H     0.74031   0.69376   0.08411   0.00000  Uiso   1.00
O469   O     0.90655   0.95913   0.22941   0.00000  Uiso   1.00
H470   H     0.91561   0.93292   0.21559   0.00000  Uiso   1.00
N471   N     0.76686   0.95571   0.09879   0.00000  Uiso   1.00
H472   H     0.72851   0.96134   0.09888   0.00000  Uiso   1.00
C473   C     0.78249   0.95433   0.05219   0.00000  Uiso   1.00
H474   H     0.77958   0.98523   0.03477   0.00000  Uiso   1.00
H475   H     0.75735   0.93223   0.03047   0.00000  Uiso   1.00
H476   H     0.82257   0.94383   0.05407   0.00000  Uiso   1.00
N477   N     0.90089   0.71022   0.23451   0.00000  Uiso   1.00
H478   H     0.93855   0.70180   0.23544   0.00000  Uiso   1.00
C479   C     0.88502   0.71101   0.28101   0.00000  Uiso   1.00
H480   H     0.88685   0.67962   0.29735   0.00000  Uiso   1.00
H481   H     0.84535   0.72243   0.27930   0.00000  Uiso   1.00
H482   H     0.91086   0.73208   0.30352   0.00000  Uiso   1.00
O483   O     0.75924   0.78714   0.28155   0.00000  Uiso   1.00
H484   H     0.76993   0.77945   0.25153   0.00000  Uiso   1.00
O485   O     0.90343   0.88061   0.05654   0.00000  Uiso   1.00
H486   H     0.92596   0.89552   0.03644   0.00000  Uiso   1.00
C487   C     0.16634   0.08748   0.50039   0.00000  Uiso   1.00
C488   C     0.16718   0.24586   0.49960   0.00000  Uiso   1.00
C489   C     0.06814   0.16551   0.48822   0.00000  Uiso   1.00
C490   C     0.26519   0.16785   0.51178   0.00000  Uiso   1.00
C491   C     0.01305   0.16059   0.48258   0.00000  Uiso   1.00
C492   C     0.32029   0.17278   0.51742   0.00000  Uiso   1.00
C493   C     0.13192   0.02188   0.46732   0.00000  Uiso   1.00
C494   C     0.20288   0.31204   0.53202   0.00000  Uiso   1.00
C495   C     0.13384   0.31185   0.46555   0.00000  Uiso   1.00
C496   C     0.20001   0.02148   0.53425   0.00000  Uiso   1.00
C497   C     0.16864   0.29059   0.49857   0.00000  Uiso   1.00
C498   C     0.16568   0.04278   0.50117   0.00000  Uiso   1.00
C499   C     0.13113   0.14435   0.35499   0.00000  Uiso   1.00
C500   C     0.20186   0.18967   0.64529   0.00000  Uiso   1.00
C501   C     0.13079   0.14396   0.63916   0.00000  Uiso   1.00
C502   C     0.20192   0.18998   0.36184   0.00000  Uiso   1.00
Cu503  Cu    0.16667   0.16667   0.54689   0.00000  Uiso   1.00
Cu504  Cu    0.16667   0.16666   0.45311   0.00000  Uiso   1.00
H505   H     0.10284   0.12628   0.37109   0.00000  Uiso   1.00
H506   H     0.22971   0.20807   0.62903   0.00000  Uiso   1.00
N507   N     0.16668   0.16668   0.61736   0.00000  Uiso   1.00
N508   N     0.16665   0.16666   0.38264   0.00000  Uiso   1.00
O509   O     0.16666   0.10655   0.53958   0.00000  Uiso   1.00
O510   O     0.16667   0.22678   0.46042   0.00000  Uiso   1.00
O511   O     0.16666   0.10654   0.46039   0.00000  Uiso   1.00
O512   O     0.16667   0.22679   0.53961   0.00000  Uiso   1.00
O513   O     0.09161   0.16667   0.53046   0.00000  Uiso   1.00
O514   O     0.24172   0.16666   0.46954   0.00000  Uiso   1.00
O515   O     0.09161   0.16666   0.45127   0.00000  Uiso   1.00
O516   O     0.24172   0.16667   0.54873   0.00000  Uiso   1.00
O517   O     0.32139   0.14147   0.44295   0.00000  Uiso   1.00
H518   H     0.01349   0.13147   0.42333   0.00000  Uiso   1.00
O519   O     0.01194   0.19191   0.55704   0.00000  Uiso   1.00
H520   H     0.31985   0.20185   0.57670   0.00000  Uiso   1.00
O521   O     0.09756   0.04506   0.43748   0.00000  Uiso   1.00
H522   H     0.07364   0.02709   0.41745   0.00000  Uiso   1.00
O523   O     0.23988   0.29246   0.56274   0.00000  Uiso   1.00
H524   H     0.24894   0.26626   0.54893   0.00000  Uiso   1.00
N525   N     0.10020   0.28904   0.43212   0.00000  Uiso   1.00
H526   H     0.06185   0.29467   0.43221   0.00000  Uiso   1.00
C527   C     0.11582   0.28767   0.38552   0.00000  Uiso   1.00
H528   H     0.11291   0.31857   0.36811   0.00000  Uiso   1.00
H529   H     0.09069   0.26556   0.36380   0.00000  Uiso   1.00
H530   H     0.15590   0.27716   0.38740   0.00000  Uiso   1.00
N531   N     0.23422   0.04356   0.56784   0.00000  Uiso   1.00
H532   H     0.27188   0.03513   0.56878   0.00000  Uiso   1.00
C533   C     0.21835   0.04434   0.61434   0.00000  Uiso   1.00
H534   H     0.22019   0.01295   0.63068   0.00000  Uiso   1.00
H535   H     0.17868   0.05576   0.61264   0.00000  Uiso   1.00
H536   H     0.24419   0.06542   0.63686   0.00000  Uiso   1.00
O537   O     0.09257   0.12048   0.61488   0.00000  Uiso   1.00
H538   H     0.10327   0.11278   0.58486   0.00000  Uiso   1.00
O539   O     0.23676   0.21394   0.38988   0.00000  Uiso   1.00
H540   H     0.25930   0.22885   0.36978   0.00000  Uiso   1.00
C541   C     0.49967   0.08748   0.50039   0.00000  Uiso   1.00
C542   C     0.50052   0.24586   0.49960   0.00000  Uiso   1.00
C543   C     0.40147   0.16551   0.48822   0.00000  Uiso   1.00
C544   C     0.59853   0.16785   0.51178   0.00000  Uiso   1.00
C545   C     0.34638   0.16059   0.48258   0.00000  Uiso   1.00
C546   C     0.65362   0.17278   0.51742   0.00000  Uiso   1.00
C547   C     0.46525   0.02188   0.46732   0.00000  Uiso   1.00
C548   C     0.53621   0.31204   0.53202   0.00000  Uiso   1.00
C549   C     0.46717   0.31185   0.46555   0.00000  Uiso   1.00
C550   C     0.53334   0.02148   0.53425   0.00000  Uiso   1.00
C551   C     0.50197   0.29059   0.49857   0.00000  Uiso   1.00
C552   C     0.49901   0.04278   0.50117   0.00000  Uiso   1.00
C553   C     0.46446   0.14435   0.35499   0.00000  Uiso   1.00
C554   C     0.53519   0.18967   0.64529   0.00000  Uiso   1.00
C555   C     0.46412   0.14396   0.63916   0.00000  Uiso   1.00
C556   C     0.53526   0.18998   0.36184   0.00000  Uiso   1.00
Cu557  Cu    0.50000   0.16667   0.54689   0.00000  Uiso   1.00
Cu558  Cu    0.50000   0.16666   0.45311   0.00000  Uiso   1.00
H559   H     0.43617   0.12628   0.37109   0.00000  Uiso   1.00
H560   H     0.56304   0.20807   0.62903   0.00000  Uiso   1.00
N561   N     0.50001   0.16668   0.61736   0.00000  Uiso   1.00
N562   N     0.49999   0.16666   0.38264   0.00000  Uiso   1.00
O563   O     0.50000   0.10655   0.53958   0.00000  Uiso   1.00
O564   O     0.50000   0.22678   0.46042   0.00000  Uiso   1.00
O565   O     0.50000   0.10654   0.46039   0.00000  Uiso   1.00
O566   O     0.50000   0.22679   0.53961   0.00000  Uiso   1.00
O567   O     0.42495   0.16667   0.53046   0.00000  Uiso   1.00
O568   O     0.57505   0.16666   0.46954   0.00000  Uiso   1.00
O569   O     0.42494   0.16666   0.45127   0.00000  Uiso   1.00
O570   O     0.57506   0.16667   0.54873   0.00000  Uiso   1.00
O571   O     0.65472   0.14147   0.44295   0.00000  Uiso   1.00
H572   H     0.34682   0.13147   0.42333   0.00000  Uiso   1.00
O573   O     0.34528   0.19191   0.55704   0.00000  Uiso   1.00
H574   H     0.65318   0.20185   0.57670   0.00000  Uiso   1.00
O575   O     0.43090   0.04506   0.43748   0.00000  Uiso   1.00
H576   H     0.40698   0.02709   0.41745   0.00000  Uiso   1.00
O577   O     0.57321   0.29246   0.56274   0.00000  Uiso   1.00
H578   H     0.58227   0.26626   0.54893   0.00000  Uiso   1.00
N579   N     0.43353   0.28904   0.43212   0.00000  Uiso   1.00
H580   H     0.39518   0.29467   0.43221   0.00000  Uiso   1.00
C581   C     0.44915   0.28767   0.38552   0.00000  Uiso   1.00
H582   H     0.44624   0.31857   0.36811   0.00000  Uiso   1.00
H583   H     0.42402   0.26556   0.36380   0.00000  Uiso   1.00
H584   H     0.48923   0.27716   0.38740   0.00000  Uiso   1.00
N585   N     0.56755   0.04356   0.56784   0.00000  Uiso   1.00
H586   H     0.60521   0.03513   0.56878   0.00000  Uiso   1.00
C587   C     0.55168   0.04434   0.61434   0.00000  Uiso   1.00
H588   H     0.55352   0.01295   0.63068   0.00000  Uiso   1.00
H589   H     0.51202   0.05576   0.61264   0.00000  Uiso   1.00
H590   H     0.57752   0.06542   0.63686   0.00000  Uiso   1.00
O591   O     0.42590   0.12048   0.61488   0.00000  Uiso   1.00
H592   H     0.43660   0.11278   0.58486   0.00000  Uiso   1.00
O593   O     0.57010   0.21394   0.38988   0.00000  Uiso   1.00
H594   H     0.59263   0.22885   0.36978   0.00000  Uiso   1.00
C595   C     0.83300   0.08748   0.50039   0.00000  Uiso   1.00
C596   C     0.83385   0.24586   0.49960   0.00000  Uiso   1.00
C597   C     0.73481   0.16551   0.48822   0.00000  Uiso   1.00
C598   C     0.93186   0.16785   0.51178   0.00000  Uiso   1.00
C599   C     0.67971   0.16059   0.48258   0.00000  Uiso   1.00
C600   C     0.98695   0.17278   0.51742   0.00000  Uiso   1.00
C601   C     0.79858   0.02188   0.46732   0.00000  Uiso   1.00
C602   C     0.86954   0.31204   0.53202   0.00000  Uiso   1.00
C603   C     0.80050   0.31185   0.46555   0.00000  Uiso   1.00
C604   C     0.86667   0.02148   0.53425   0.00000  Uiso   1.00
C605   C     0.83530   0.29059   0.49857   0.00000  Uiso   1.00
C606   C     0.83235   0.04278   0.50117   0.00000  Uiso   1.00
C607   C     0.79779   0.14435   0.35499   0.00000  Uiso   1.00
C608   C     0.86853   0.18967   0.64529   0.00000  Uiso   1.00
C609   C     0.79745   0.14396   0.63916   0.00000  Uiso   1.00
C610   C     0.86859   0.18998   0.36184   0.00000  Uiso   1.00
Cu611  Cu    0.83333   0.16667   0.54689   0.00000  Uiso   1.00
Cu612  Cu    0.83333   0.16666   0.45311   0.00000  Uiso   1.00
H613   H     0.76951   0.12628   0.37109   0.00000  Uiso   1.00
H614   H     0.89638   0.20807   0.62903   0.00000  Uiso   1.00
N615   N     0.83335   0.16668   0.61736   0.00000  Uiso   1.00
N616   N     0.83332   0.16666   0.38264   0.00000  Uiso   1.00
O617   O     0.83333   0.10655   0.53958   0.00000  Uiso   1.00
O618   O     0.83334   0.22678   0.46042   0.00000  Uiso   1.00
O619   O     0.83333   0.10654   0.46039   0.00000  Uiso   1.00
O620   O     0.83334   0.22679   0.53961   0.00000  Uiso   1.00
O621   O     0.75828   0.16667   0.53046   0.00000  Uiso   1.00
O622   O     0.90839   0.16666   0.46954   0.00000  Uiso   1.00
O623   O     0.75828   0.16666   0.45127   0.00000  Uiso   1.00
O624   O     0.90839   0.16667   0.54873   0.00000  Uiso   1.00
O625   O     0.98806   0.14147   0.44295   0.00000  Uiso   1.00
H626   H     0.68015   0.13147   0.42333   0.00000  Uiso   1.00
O627   O     0.67861   0.19191   0.55704   0.00000  Uiso   1.00
H628   H     0.98652   0.20185   0.57670   0.00000  Uiso   1.00
O629   O     0.76423   0.04506   0.43748   0.00000  Uiso   1.00
H630   H     0.74031   0.02709   0.41745   0.00000  Uiso   1.00
O631   O     0.90655   0.29246   0.56274   0.00000  Uiso   1.00
H632   H     0.91561   0.26626   0.54893   0.00000  Uiso   1.00
N633   N     0.76686   0.28904   0.43212   0.00000  Uiso   1.00
H634   H     0.72851   0.29467   0.43221   0.00000  Uiso   1.00
C635   C     0.78249   0.28767   0.38552   0.00000  Uiso   1.00
H636   H     0.77958   0.31857   0.36811   0.00000  Uiso   1.00
H637   H     0.75735   0.26556   0.36380   0.00000  Uiso   1.00
H638   H     0.82257   0.27716   0.38740   0.00000  Uiso   1.00
N639   N     0.90089   0.04356   0.56784   0.00000  Uiso   1.00
H640   H     0.93855   0.03513   0.56878   0.00000  Uiso   1.00
C641   C     0.88502   0.04434   0.61434   0.00000  Uiso   1.00
H642   H     0.88685   0.01295   0.63068   0.00000  Uiso   1.00
H643   H     0.84535   0.05576   0.61264   0.00000  Uiso   1.00
H644   H     0.91086   0.06542   0.63686   0.00000  Uiso   1.00
O645   O     0.75924   0.12048   0.61488   0.00000  Uiso   1.00
H646   H     0.76993   0.11278   0.58486   0.00000  Uiso   1.00
O647   O     0.90343   0.21394   0.38988   0.00000  Uiso   1.00
H648   H     0.92596   0.22885   0.36978   0.00000  Uiso   1.00
C649   C     0.16634   0.42081   0.50039   0.00000  Uiso   1.00
C650   C     0.16718   0.57919   0.49960   0.00000  Uiso   1.00
C651   C     0.06814   0.49884   0.48822   0.00000  Uiso   1.00
C652   C     0.26519   0.50118   0.51178   0.00000  Uiso   1.00
C653   C     0.01305   0.49392   0.48258   0.00000  Uiso   1.00
C654   C     0.32029   0.50611   0.51742   0.00000  Uiso   1.00
C655   C     0.13192   0.35521   0.46732   0.00000  Uiso   1.00
C656   C     0.20288   0.64537   0.53202   0.00000  Uiso   1.00
C657   C     0.13384   0.64518   0.46555   0.00000  Uiso   1.00
C658   C     0.20001   0.35481   0.53425   0.00000  Uiso   1.00
C659   C     0.16864   0.62392   0.49857   0.00000  Uiso   1.00
C660   C     0.16568   0.37611   0.50117   0.00000  Uiso   1.00
C661   C     0.13113   0.47768   0.35499   0.00000  Uiso   1.00
C662   C     0.20186   0.52300   0.64529   0.00000  Uiso   1.00
C663   C     0.13079   0.47730   0.63916   0.00000  Uiso   1.00
C664   C     0.20192   0.52331   0.36184   0.00000  Uiso   1.00
Cu665  Cu    0.16667   0.50001   0.54689   0.00000  Uiso   1.00
Cu666  Cu    0.16667   0.49999   0.45311   0.00000  Uiso   1.00
H667   H     0.10284   0.45961   0.37109   0.00000  Uiso   1.00
H668   H     0.22971   0.54141   0.62903   0.00000  Uiso   1.00
N669   N     0.16668   0.50001   0.61736   0.00000  Uiso   1.00
N670   N     0.16665   0.49999   0.38264   0.00000  Uiso   1.00
O671   O     0.16666   0.43989   0.53958   0.00000  Uiso   1.00
O672   O     0.16667   0.56011   0.46042   0.00000  Uiso   1.00
O673   O     0.16666   0.43988   0.46039   0.00000  Uiso   1.00
O674   O     0.16667   0.56012   0.53961   0.00000  Uiso   1.00
O675   O     0.09161   0.50000   0.53046   0.00000  Uiso   1.00
O676   O     0.24172   0.50000   0.46954   0.00000  Uiso   1.00
O677   O     0.09161   0.49999   0.45127   0.00000  Uiso   1.00
O678   O     0.24172   0.50001   0.54873   0.00000  Uiso   1.00
O679   O     0.32139   0.47480   0.44295   0.00000  Uiso   1.00
H680   H     0.01349   0.46481   0.42333   0.00000  Uiso   1.00
O681   O     0.01194   0.52525   0.55704   0.00000  Uiso   1.00
H682   H     0.31985   0.53518   0.57670   0.00000  Uiso   1.00
O683   O     0.09756   0.37840   0.43748   0.00000  Uiso   1.00
H684   H     0.07364   0.36042   0.41745   0.00000  Uiso   1.00
O685   O     0.23988   0.62579   0.56274   0.00000  Uiso   1.00
H686   H     0.24894   0.59959   0.54893   0.00000  Uiso   1.00
N687   N     0.10020   0.62237   0.43212   0.00000  Uiso   1.00
H688   H     0.06185   0.62801   0.43221   0.00000  Uiso   1.00
C689   C     0.11582   0.62100   0.38552   0.00000  Uiso   1.00
H690   H     0.11291   0.65190   0.36811   0.00000  Uiso   1.00
H691   H     0.09069   0.59889   0.36380   0.00000  Uiso   1.00
H692   H     0.15590   0.61050   0.38740   0.00000  Uiso   1.00
N693   N     0.23422   0.37689   0.56784   0.00000  Uiso   1.00
H694   H     0.27188   0.36847   0.56878   0.00000  Uiso   1.00
C695   C     0.21835   0.37768   0.61434   0.00000  Uiso   1.00
H696   H     0.22019   0.34628   0.63068   0.00000  Uiso   1.00
H697   H     0.17868   0.38910   0.61264   0.00000  Uiso   1.00
H698   H     0.24419   0.39875   0.63686   0.00000  Uiso   1.00
O699   O     0.09257   0.45381   0.61488   0.00000  Uiso   1.00
H700   H     0.10327   0.44612   0.58486   0.00000  Uiso   1.00
O701   O     0.23676   0.54727   0.38988   0.00000  Uiso   1.00
H702   H     0.25930   0.56219   0.36978   0.00000  Uiso   1.00
C703   C     0.49967   0.42081   0.50039   0.00000  Uiso   1.00
C704   C     0.50052   0.57919   0.49960   0.00000  Uiso   1.00
C705   C     0.40147   0.49884   0.48822   0.00000  Uiso   1.00
C706   C     0.59853   0.50118   0.51178   0.00000  Uiso   1.00
C707   C     0.34638   0.49392   0.48258   0.00000  Uiso   1.00
C708   C     0.65362   0.50611   0.51742   0.00000  Uiso   1.00
C709   C     0.46525   0.35521   0.46732   0.00000  Uiso   1.00
C710   C     0.53621   0.64537   0.53202   0.00000  Uiso   1.00
C711   C     0.46717   0.64518   0.46555   0.00000  Uiso   1.00
C712   C     0.53334   0.35481   0.53425   0.00000  Uiso   1.00
C713   C     0.50197   0.62392   0.49857   0.00000  Uiso   1.00
C714   C     0.49901   0.37611   0.50117   0.00000  Uiso   1.00
C715   C     0.46446   0.47768   0.35499   0.00000  Uiso   1.00
C716   C     0.53519   0.52300   0.64529   0.00000  Uiso   1.00
C717   C     0.46412   0.47730   0.63916   0.00000  Uiso   1.00
C718   C     0.53526   0.52331   0.36184   0.00000  Uiso   1.00
Cu719  Cu    0.50000   0.50001   0.54689   0.00000  Uiso   1.00
Cu720  Cu    0.50000   0.49999   0.45311   0.00000  Uiso   1.00
H721   H     0.43617   0.45961   0.37109   0.00000  Uiso   1.00
H722   H     0.56304   0.54141   0.62903   0.00000  Uiso   1.00
N723   N     0.50001   0.50001   0.61736   0.00000  Uiso   1.00
N724   N     0.49999   0.49999   0.38264   0.00000  Uiso   1.00
O725   O     0.50000   0.43989   0.53958   0.00000  Uiso   1.00
O726   O     0.50000   0.56011   0.46042   0.00000  Uiso   1.00
O727   O     0.50000   0.43988   0.46039   0.00000  Uiso   1.00
O728   O     0.50000   0.56012   0.53961   0.00000  Uiso   1.00
O729   O     0.42495   0.50000   0.53046   0.00000  Uiso   1.00
O730   O     0.57505   0.50000   0.46954   0.00000  Uiso   1.00
O731   O     0.42494   0.49999   0.45127   0.00000  Uiso   1.00
O732   O     0.57506   0.50001   0.54873   0.00000  Uiso   1.00
O733   O     0.65472   0.47480   0.44295   0.00000  Uiso   1.00
H734   H     0.34682   0.46481   0.42333   0.00000  Uiso   1.00
O735   O     0.34528   0.52525   0.55704   0.00000  Uiso   1.00
H736   H     0.65318   0.53518   0.57670   0.00000  Uiso   1.00
O737   O     0.43090   0.37840   0.43748   0.00000  Uiso   1.00
H738   H     0.40698   0.36042   0.41745   0.00000  Uiso   1.00
O739   O     0.57321   0.62579   0.56274   0.00000  Uiso   1.00
H740   H     0.58227   0.59959   0.54893   0.00000  Uiso   1.00
N741   N     0.43353   0.62237   0.43212   0.00000  Uiso   1.00
H742   H     0.39518   0.62801   0.43221   0.00000  Uiso   1.00
C743   C     0.44915   0.62100   0.38552   0.00000  Uiso   1.00
H744   H     0.44624   0.65190   0.36811   0.00000  Uiso   1.00
H745   H     0.42402   0.59889   0.36380   0.00000  Uiso   1.00
H746   H     0.48923   0.61050   0.38740   0.00000  Uiso   1.00
N747   N     0.56755   0.37689   0.56784   0.00000  Uiso   1.00
H748   H     0.60521   0.36847   0.56878   0.00000  Uiso   1.00
C749   C     0.55168   0.37768   0.61434   0.00000  Uiso   1.00
H750   H     0.55352   0.34628   0.63068   0.00000  Uiso   1.00
H751   H     0.51202   0.38910   0.61264   0.00000  Uiso   1.00
H752   H     0.57752   0.39875   0.63686   0.00000  Uiso   1.00
O753   O     0.42590   0.45381   0.61488   0.00000  Uiso   1.00
H754   H     0.43660   0.44612   0.58486   0.00000  Uiso   1.00
O755   O     0.57010   0.54727   0.38988   0.00000  Uiso   1.00
H756   H     0.59263   0.56219   0.36978   0.00000  Uiso   1.00
C757   C     0.83300   0.42081   0.50039   0.00000  Uiso   1.00
C758   C     0.83385   0.57919   0.49960   0.00000  Uiso   1.00
C759   C     0.73481   0.49884   0.48822   0.00000  Uiso   1.00
C760   C     0.93186   0.50118   0.51178   0.00000  Uiso   1.00
C761   C     0.67971   0.49392   0.48258   0.00000  Uiso   1.00
C762   C     0.98695   0.50611   0.51742   0.00000  Uiso   1.00
C763   C     0.79858   0.35521   0.46732   0.00000  Uiso   1.00
C764   C     0.86954   0.64537   0.53202   0.00000  Uiso   1.00
C765   C     0.80050   0.64518   0.46555   0.00000  Uiso   1.00
C766   C     0.86667   0.35481   0.53425   0.00000  Uiso   1.00
C767   C     0.83530   0.62392   0.49857   0.00000  Uiso   1.00
C768   C     0.83235   0.37611   0.50117   0.00000  Uiso   1.00
C769   C     0.79779   0.47768   0.35499   0.00000  Uiso   1.00
C770   C     0.86853   0.52300   0.64529   0.00000  Uiso   1.00
C771   C     0.79745   0.47730   0.63916   0.00000  Uiso   1.00
C772   C     0.86859   0.52331   0.36184   0.00000  Uiso   1.00
Cu773  Cu    0.83333   0.50001   0.54689   0.00000  Uiso   1.00
Cu774  Cu    0.83333   0.49999   0.45311   0.00000  Uiso   1.00
H775   H     0.76951   0.45961   0.37109   0.00000  Uiso   1.00
H776   H     0.89638   0.54141   0.62903   0.00000  Uiso   1.00
N777   N     0.83335   0.50001   0.61736   0.00000  Uiso   1.00
N778   N     0.83332   0.49999   0.38264   0.00000  Uiso   1.00
O779   O     0.83333   0.43989   0.53958   0.00000  Uiso   1.00
O780   O     0.83334   0.56011   0.46042   0.00000  Uiso   1.00
O781   O     0.83333   0.43988   0.46039   0.00000  Uiso   1.00
O782   O     0.83334   0.56012   0.53961   0.00000  Uiso   1.00
O783   O     0.75828   0.50000   0.53046   0.00000  Uiso   1.00
O784   O     0.90839   0.50000   0.46954   0.00000  Uiso   1.00
O785   O     0.75828   0.49999   0.45127   0.00000  Uiso   1.00
O786   O     0.90839   0.50001   0.54873   0.00000  Uiso   1.00
O787   O     0.98806   0.47480   0.44295   0.00000  Uiso   1.00
H788   H     0.68015   0.46481   0.42333   0.00000  Uiso   1.00
O789   O     0.67861   0.52525   0.55704   0.00000  Uiso   1.00
H790   H     0.98652   0.53518   0.57670   0.00000  Uiso   1.00
O791   O     0.76423   0.37840   0.43748   0.00000  Uiso   1.00
H792   H     0.74031   0.36042   0.41745   0.00000  Uiso   1.00
O793   O     0.90655   0.62579   0.56274   0.00000  Uiso   1.00
H794   H     0.91561   0.59959   0.54893   0.00000  Uiso   1.00
N795   N     0.76686   0.62237   0.43212   0.00000  Uiso   1.00
H796   H     0.72851   0.62801   0.43221   0.00000  Uiso   1.00
C797   C     0.78249   0.62100   0.38552   0.00000  Uiso   1.00
H798   H     0.77958   0.65190   0.36811   0.00000  Uiso   1.00
H799   H     0.75735   0.59889   0.36380   0.00000  Uiso   1.00
H800   H     0.82257   0.61050   0.38740   0.00000  Uiso   1.00
N801   N     0.90089   0.37689   0.56784   0.00000  Uiso   1.00
H802   H     0.93855   0.36847   0.56878   0.00000  Uiso   1.00
C803   C     0.88502   0.37768   0.61434   0.00000  Uiso   1.00
H804   H     0.88685   0.34628   0.63068   0.00000  Uiso   1.00
H805   H     0.84535   0.38910   0.61264   0.00000  Uiso   1.00
H806   H     0.91086   0.39875   0.63686   0.00000  Uiso   1.00
O807   O     0.75924   0.45381   0.61488   0.00000  Uiso   1.00
H808   H     0.76993   0.44612   0.58486   0.00000  Uiso   1.00
O809   O     0.90343   0.54727   0.38988   0.00000  Uiso   1.00
H810   H     0.92596   0.56219   0.36978   0.00000  Uiso   1.00
C811   C     0.16634   0.75414   0.50039   0.00000  Uiso   1.00
C812   C     0.16718   0.91253   0.49960   0.00000  Uiso   1.00
C813   C     0.06814   0.83218   0.48822   0.00000  Uiso   1.00
C814   C     0.26519   0.83451   0.51178   0.00000  Uiso   1.00
C815   C     0.01305   0.82726   0.48258   0.00000  Uiso   1.00
C816   C     0.32029   0.83945   0.51742   0.00000  Uiso   1.00
C817   C     0.13192   0.68855   0.46732   0.00000  Uiso   1.00
C818   C     0.20288   0.97871   0.53202   0.00000  Uiso   1.00
C819   C     0.13384   0.97852   0.46555   0.00000  Uiso   1.00
C820   C     0.20001   0.68814   0.53425   0.00000  Uiso   1.00
C821   C     0.16864   0.95726   0.49857   0.00000  Uiso   1.00
C822   C     0.16568   0.70945   0.50117   0.00000  Uiso   1.00
C823   C     0.13113   0.81102   0.35499   0.00000  Uiso   1.00
C824   C     0.20186   0.85634   0.64529   0.00000  Uiso   1.00
C825   C     0.13079   0.81063   0.63916   0.00000  Uiso   1.00
C826   C     0.20192   0.85664   0.36184   0.00000  Uiso   1.00
Cu827  Cu    0.16667   0.83334   0.54689   0.00000  Uiso   1.00
Cu828  Cu    0.16667   0.83333   0.45311   0.00000  Uiso   1.00
H829   H     0.10284   0.79295   0.37109   0.00000  Uiso   1.00
H830   H     0.22971   0.87474   0.62903   0.00000  Uiso   1.00
N831   N     0.16668   0.83334   0.61736   0.00000  Uiso   1.00
N832   N     0.16665   0.83332   0.38264   0.00000  Uiso   1.00
O833   O     0.16666   0.77322   0.53958   0.00000  Uiso   1.00
O834   O     0.16667   0.89345   0.46042   0.00000  Uiso   1.00
O835   O     0.16666   0.77321   0.46039   0.00000  Uiso   1.00
O836   O     0.16667   0.89346   0.53961   0.00000  Uiso   1.00
O837   O     0.09161   0.83334   0.53046   0.00000  Uiso   1.00
O838   O     0.24172   0.83333   0.46954   0.00000  Uiso   1.00
O839   O     0.09161   0.83333   0.45127   0.00000  Uiso   1.00
O840   O     0.24172   0.83334   0.54873   0.00000  Uiso   1.00
O841   O     0.32139   0.80813   0.44295   0.00000  Uiso   1.00
H842   H     0.01349   0.79814   0.42333   0.00000  Uiso   1.00
O843   O     0.01194   0.85858   0.55704   0.00000  Uiso   1.00
H844   H     0.31985   0.86851   0.57670   0.00000  Uiso   1.00
O845   O     0.09756   0.71173   0.43748   0.00000  Uiso   1.00
H846   H     0.07364   0.69376   0.41745   0.00000  Uiso   1.00
O847   O     0.23988   0.95913   0.56274   0.00000  Uiso   1.00
H848   H     0.24894   0.93292   0.54893   0.00000  Uiso   1.00
N849   N     0.10020   0.95571   0.43212   0.00000  Uiso   1.00
H850   H     0.06185   0.96134   0.43221   0.00000  Uiso   1.00
C851   C     0.11582   0.95433   0.38552   0.00000  Uiso   1.00
H852   H     0.11291   0.98523   0.36811   0.00000  Uiso   1.00
H853   H     0.09069   0.93223   0.36380   0.00000  Uiso   1.00
H854   H     0.15590   0.94383   0.38740   0.00000  Uiso   1.00
N855   N     0.23422   0.71022   0.56784   0.00000  Uiso   1.00
H856   H     0.27188   0.70180   0.56878   0.00000  Uiso   1.00
C857   C     0.21835   0.71101   0.61434   0.00000  Uiso   1.00
H858   H     0.22019   0.67962   0.63068   0.00000  Uiso   1.00
H859   H     0.17868   0.72243   0.61264   0.00000  Uiso   1.00
H860   H     0.24419   0.73208   0.63686   0.00000  Uiso   1.00
O861   O     0.09257   0.78714   0.61488   0.00000  Uiso   1.00
H862   H     0.10327   0.77945   0.58486   0.00000  Uiso   1.00
O863   O     0.23676   0.88061   0.38988   0.00000  Uiso   1.00
H864   H     0.25930   0.89552   0.36978   0.00000  Uiso   1.00
C865   C     0.49967   0.75414   0.50039   0.00000  Uiso   1.00
C866   C     0.50052   0.91253   0.49960   0.00000  Uiso   1.00
C867   C     0.40147   0.83218   0.48822   0.00000  Uiso   1.00
C868   C     0.59853   0.83451   0.51178   0.00000  Uiso   1.00
C869   C     0.34638   0.82726   0.48258   0.00000  Uiso   1.00
C870   C     0.65362   0.83945   0.51742   0.00000  Uiso   1.00
C871   C     0.46525   0.68855   0.46732   0.00000  Uiso   1.00
C872   C     0.53621   0.97871   0.53202   0.00000  Uiso   1.00
C873   C     0.46717   0.97852   0.46555   0.00000  Uiso   1.00
C874   C     0.53334   0.68814   0.53425   0.00000  Uiso   1.00
C875   C     0.50197   0.95726   0.49857   0.00000  Uiso   1.00
C876   C     0.49901   0.70945   0.50117   0.00000  Uiso   1.00
C877   C     0.46446   0.81102   0.35499   0.00000  Uiso   1.00
C878   C     0.53519   0.85634   0.64529   0.00000  Uiso   1.00
C879   C     0.46412   0.81063   0.63916   0.00000  Uiso   1.00
C880   C     0.53526   0.85664   0.36184   0.00000  Uiso   1.00
Cu881  Cu    0.50000   0.83334   0.54689   0.00000  Uiso   1.00
Cu882  Cu    0.50000   0.83333   0.45311   0.00000  Uiso   1.00
H883   H     0.43617   0.79295   0.37109   0.00000  Uiso   1.00
H884   H     0.56304   0.87474   0.62903   0.00000  Uiso   1.00
N885   N     0.50001   0.83334   0.61736   0.00000  Uiso   1.00
N886   N     0.49999   0.83332   0.38264   0.00000  Uiso   1.00
O887   O     0.50000   0.77322   0.53958   0.00000  Uiso   1.00
O888   O     0.50000   0.89345   0.46042   0.00000  Uiso   1.00
O889   O     0.50000   0.77321   0.46039   0.00000  Uiso   1.00
O890   O     0.50000   0.89346   0.53961   0.00000  Uiso   1.00
O891   O     0.42495   0.83334   0.53046   0.00000  Uiso   1.00
O892   O     0.57505   0.83333   0.46954   0.00000  Uiso   1.00
O893   O     0.42494   0.83333   0.45127   0.00000  Uiso   1.00
O894   O     0.57506   0.83334   0.54873   0.00000  Uiso   1.00
O895   O     0.65472   0.80813   0.44295   0.00000  Uiso   1.00
H896   H     0.34682   0.79814   0.42333   0.00000  Uiso   1.00
O897   O     0.34528   0.85858   0.55704   0.00000  Uiso   1.00
H898   H     0.65318   0.86851   0.57670   0.00000  Uiso   1.00
O899   O     0.43090   0.71173   0.43748   0.00000  Uiso   1.00
H900   H     0.40698   0.69376   0.41745   0.00000  Uiso   1.00
O901   O     0.57321   0.95913   0.56274   0.00000  Uiso   1.00
H902   H     0.58227   0.93292   0.54893   0.00000  Uiso   1.00
N903   N     0.43353   0.95571   0.43212   0.00000  Uiso   1.00
H904   H     0.39518   0.96134   0.43221   0.00000  Uiso   1.00
C905   C     0.44915   0.95433   0.38552   0.00000  Uiso   1.00
H906   H     0.44624   0.98523   0.36811   0.00000  Uiso   1.00
H907   H     0.42402   0.93223   0.36380   0.00000  Uiso   1.00
H908   H     0.48923   0.94383   0.38740   0.00000  Uiso   1.00
N909   N     0.56755   0.71022   0.56784   0.00000  Uiso   1.00
H910   H     0.60521   0.70180   0.56878   0.00000  Uiso   1.00
C911   C     0.55168   0.71101   0.61434   0.00000  Uiso   1.00
H912   H     0.55352   0.67962   0.63068   0.00000  Uiso   1.00
H913   H     0.51202   0.72243   0.61264   0.00000  Uiso   1.00
H914   H     0.57752   0.73208   0.63686   0.00000  Uiso   1.00
O915   O     0.42590   0.78714   0.61488   0.00000  Uiso   1.00
H916   H     0.43660   0.77945   0.58486   0.00000  Uiso   1.00
O917   O     0.57010   0.88061   0.38988   0.00000  Uiso   1.00
H918   H     0.59263   0.89552   0.36978   0.00000  Uiso   1.00
C919   C     0.83300   0.75414   0.50039   0.00000  Uiso   1.00
C920   C     0.83385   0.91253   0.49960   0.00000  Uiso   1.00
C921   C     0.73481   0.83218   0.48822   0.00000  Uiso   1.00
C922   C     0.93186   0.83451   0.51178   0.00000  Uiso   1.00
C923   C     0.67971   0.82726   0.48258   0.00000  Uiso   1.00
C924   C     0.98695   0.83945   0.51742   0.00000  Uiso   1.00
C925   C     0.79858   0.68855   0.46732   0.00000  Uiso   1.00
C926   C     0.86954   0.97871   0.53202   0.00000  Uiso   1.00
C927   C     0.80050   0.97852   0.46555   0.00000  Uiso   1.00
C928   C     0.86667   0.68814   0.53425   0.00000  Uiso   1.00
C929   C     0.83530   0.95726   0.49857   0.00000  Uiso   1.00
C930   C     0.83235   0.70945   0.50117   0.00000  Uiso   1.00
C931   C     0.79779   0.81102   0.35499   0.00000  Uiso   1.00
C932   C     0.86853   0.85634   0.64529   0.00000  Uiso   1.00
C933   C     0.79745   0.81063   0.63916   0.00000  Uiso   1.00
C934   C     0.86859   0.85664   0.36184   0.00000  Uiso   1.00
Cu935  Cu    0.83333   0.83334   0.54689   0.00000  Uiso   1.00
Cu936  Cu    0.83333   0.83333   0.45311   0.00000  Uiso   1.00
H937   H     0.76951   0.79295   0.37109   0.00000  Uiso   1.00
H938   H     0.89638   0.87474   0.62903   0.00000  Uiso   1.00
N939   N     0.83335   0.83334   0.61736   0.00000  Uiso   1.00
N940   N     0.83332   0.83332   0.38264   0.00000  Uiso   1.00
O941   O     0.83333   0.77322   0.53958   0.00000  Uiso   1.00
O942   O     0.83334   0.89345   0.46042   0.00000  Uiso   1.00
O943   O     0.83333   0.77321   0.46039   0.00000  Uiso   1.00
O944   O     0.83334   0.89346   0.53961   0.00000  Uiso   1.00
O945   O     0.75828   0.83334   0.53046   0.00000  Uiso   1.00
O946   O     0.90839   0.83333   0.46954   0.00000  Uiso   1.00
O947   O     0.75828   0.83333   0.45127   0.00000  Uiso   1.00
O948   O     0.90839   0.83334   0.54873   0.00000  Uiso   1.00
O949   O     0.98806   0.80813   0.44295   0.00000  Uiso   1.00
H950   H     0.68015   0.79814   0.42333   0.00000  Uiso   1.00
O951   O     0.67861   0.85858   0.55704   0.00000  Uiso   1.00
H952   H     0.98652   0.86851   0.57670   0.00000  Uiso   1.00
O953   O     0.76423   0.71173   0.43748   0.00000  Uiso   1.00
H954   H     0.74031   0.69376   0.41745   0.00000  Uiso   1.00
O955   O     0.90655   0.95913   0.56274   0.00000  Uiso   1.00
H956   H     0.91561   0.93292   0.54893   0.00000  Uiso   1.00
N957   N     0.76686   0.95571   0.43212   0.00000  Uiso   1.00
H958   H     0.72851   0.96134   0.43221   0.00000  Uiso   1.00
C959   C     0.78249   0.95433   0.38552   0.00000  Uiso   1.00
H960   H     0.77958   0.98523   0.36811   0.00000  Uiso   1.00
H961   H     0.75735   0.93223   0.36380   0.00000  Uiso   1.00
H962   H     0.82257   0.94383   0.38740   0.00000  Uiso   1.00
N963   N     0.90089   0.71022   0.56784   0.00000  Uiso   1.00
H964   H     0.93855   0.70180   0.56878   0.00000  Uiso   1.00
C965   C     0.88502   0.71101   0.61434   0.00000  Uiso   1.00
H966   H     0.88685   0.67962   0.63068   0.00000  Uiso   1.00
H967   H     0.84535   0.72243   0.61264   0.00000  Uiso   1.00
H968   H     0.91086   0.73208   0.63686   0.00000  Uiso   1.00
O969   O     0.75924   0.78714   0.61488   0.00000  Uiso   1.00
H970   H     0.76993   0.77945   0.58486   0.00000  Uiso   1.00
O971   O     0.90343   0.88061   0.38988   0.00000  Uiso   1.00
H972   H     0.92596   0.89552   0.36978   0.00000  Uiso   1.00
C973   C     0.16634   0.08748   0.83372   0.00000  Uiso   1.00
C974   C     0.16718   0.24586   0.83293   0.00000  Uiso   1.00
C975   C     0.06814   0.16551   0.82155   0.00000  Uiso   1.00
C976   C     0.26519   0.16785   0.84511   0.00000  Uiso   1.00
C977   C     0.01305   0.16059   0.81591   0.00000  Uiso   1.00
C978   C     0.32029   0.17278   0.85075   0.00000  Uiso   1.00
C979   C     0.13192   0.02188   0.80065   0.00000  Uiso   1.00
C980   C     0.20288   0.31204   0.86535   0.00000  Uiso   1.00
C981   C     0.13384   0.31185   0.79889   0.00000  Uiso   1.00
C982   C     0.20001   0.02148   0.86758   0.00000  Uiso   1.00
C983   C     0.16864   0.29059   0.83190   0.00000  Uiso   1.00
C984   C     0.16568   0.04278   0.83451   0.00000  Uiso   1.00
C985   C     0.13113   0.14435   0.68832   0.00000  Uiso   1.00
C986   C     0.20186   0.18967   0.97863   0.00000  Uiso   1.00
C987   C     0.13079   0.14396   0.97249   0.00000  Uiso   1.00
C988   C     0.20192   0.18998   0.69517   0.00000  Uiso   1.00
Cu989  Cu    0.16667   0.16667   0.88022   0.00000  Uiso   1.00
Cu990  Cu    0.16667   0.16666   0.78645   0.00000  Uiso   1.00
H991   H     0.10284   0.12628   0.70443   0.00000  Uiso   1.00
H992   H     0.22971   0.20807   0.96236   0.00000  Uiso   1.00
N993   N     0.16668   0.16668   0.95069   0.00000  Uiso   1.00
N994   N     0.16665   0.16666   0.71597   0.00000  Uiso   1.00
O995   O     0.16666   0.10655   0.87291   0.00000  Uiso   1.00
O996   O     0.16667   0.22678   0.79375   0.00000  Uiso   1.00
O997   O     0.16666   0.10654   0.79372   0.00000  Uiso   1.00
O998   O     0.16667   0.22679   0.87294   0.00000  Uiso   1.00
O999   O     0.09161   0.16667   0.86379   0.00000  Uiso   1.00
O1000  O     0.24172   0.16666   0.80288   0.00000  Uiso   1.00
O1001  O     0.09161   0.16666   0.78460   0.00000  Uiso   1.00
O1002  O     0.24172   0.16667   0.88207   0.00000  Uiso   1.00
O1003  O     0.32139   0.14147   0.77628   0.00000  Uiso   1.00
H1004  H     0.01349   0.13147   0.75667   0.00000  Uiso   1.00
O1005  O     0.01194   0.19191   0.89037   0.00000  Uiso   1.00
H1006  H     0.31985   0.20185   0.91003   0.00000  Uiso   1.00
O1007  O     0.09756   0.04506   0.77082   0.00000  Uiso   1.00
H1008  H     0.07364   0.02709   0.75078   0.00000  Uiso   1.00
O1009  O     0.23988   0.29246   0.89607   0.00000  Uiso   1.00
H1010  H     0.24894   0.26626   0.88226   0.00000  Uiso   1.00
N1011  N     0.10020   0.28904   0.76545   0.00000  Uiso   1.00
H1012  H     0.06185   0.29467   0.76554   0.00000  Uiso   1.00
C1013  C     0.11582   0.28767   0.71886   0.00000  Uiso   1.00
H1014  H     0.11291   0.31857   0.70144   0.00000  Uiso   1.00
H1015  H     0.09069   0.26556   0.69714   0.00000  Uiso   1.00
H1016  H     0.15590   0.27716   0.72074   0.00000  Uiso   1.00
N1017  N     0.23422   0.04356   0.90117   0.00000  Uiso   1.00
H1018  H     0.27188   0.03513   0.90211   0.00000  Uiso   1.00
C1019  C     0.21835   0.04434   0.94767   0.00000  Uiso   1.00
H1020  H     0.22019   0.01295   0.96402   0.00000  Uiso   1.00
H1021  H     0.17868   0.05576   0.94597   0.00000  Uiso   1.00
H1022  H     0.24419   0.06542   0.97019   0.00000  Uiso   1.00
O1023  O     0.09257   0.12048   0.94821   0.00000  Uiso   1.00
H1024  H     0.10327   0.11278   0.91819   0.00000  Uiso   1.00
O1025  O     0.23676   0.21394   0.72321   0.00000  Uiso   1.00
H1026  H     0.25930   0.22885   0.70311   0.00000  Uiso   1.00
C1027  C     0.49967   0.08748   0.83372   0.00000  Uiso   1.00
C1028  C     0.50052   0.24586   0.83293   0.00000  Uiso   1.00
C1029  C     0.40147   0.16551   0.82155   0.00000  Uiso   1.00
C1030  C     0.59853   0.16785   0.84511   0.00000  Uiso   1.00
C1031  C     0.34638   0.16059   0.81591   0.00000  Uiso   1.00
C1032  C     0.65362   0.17278   0.85075   0.00000  Uiso   1.00
C1033  C     0.46525   0.02188   0.80065   0.00000  Uiso   1.00
C1034  C     0.53621   0.31204   0.86535   0.00000  Uiso   1.00
C1035  C     0.46717   0.31185   0.79889   0.00000  Uiso   1.00
C1036  C     0.53334   0.02148   0.86758   0.00000  Uiso   1.00
C1037  C     0.50197   0.29059   0.83190   0.00000  Uiso   1.00
C1038  C     0.49901   0.04278   0.83451   0.00000  Uiso   1.00
C1039  C     0.46446   0.14435   0.68832   0.00000  Uiso   1.00
C1040  C     0.53519   0.18967   0.97863   0.00000  Uiso   1.00
C1041  C     0.46412   0.14396   0.97249   0.00000  Uiso   1.00
C1042  C     0.53526   0.18998   0.69517   0.00000  Uiso   1.00
Cu1043 Cu    0.50000   0.16667   0.88022   0.00000  Uiso   1.00
Cu1044 Cu    0.50000   0.16666   0.78645   0.00000  Uiso   1.00
H1045  H     0.43617   0.12628   0.70443   0.00000  Uiso   1.00
H1046  H     0.56304   0.20807   0.96236   0.00000  Uiso   1.00
N1047  N     0.50001   0.16668   0.95069   0.00000  Uiso   1.00
N1048  N     0.49999   0.16666   0.71597   0.00000  Uiso   1.00
O1049  O     0.50000   0.10655   0.87291   0.00000  Uiso   1.00
O1050  O     0.50000   0.22678   0.79375   0.00000  Uiso   1.00
O1051  O     0.50000   0.10654   0.79372   0.00000  Uiso   1.00
O1052  O     0.50000   0.22679   0.87294   0.00000  Uiso   1.00
O1053  O     0.42495   0.16667   0.86379   0.00000  Uiso   1.00
O1054  O     0.57505   0.16666   0.80288   0.00000  Uiso   1.00
O1055  O     0.42494   0.16666   0.78460   0.00000  Uiso   1.00
O1056  O     0.57506   0.16667   0.88207   0.00000  Uiso   1.00
O1057  O     0.65472   0.14147   0.77628   0.00000  Uiso   1.00
H1058  H     0.34682   0.13147   0.75667   0.00000  Uiso   1.00
O1059  O     0.34528   0.19191   0.89037   0.00000  Uiso   1.00
H1060  H     0.65318   0.20185   0.91003   0.00000  Uiso   1.00
O1061  O     0.43090   0.04506   0.77082   0.00000  Uiso   1.00
H1062  H     0.40698   0.02709   0.75078   0.00000  Uiso   1.00
O1063  O     0.57321   0.29246   0.89607   0.00000  Uiso   1.00
H1064  H     0.58227   0.26626   0.88226   0.00000  Uiso   1.00
N1065  N     0.43353   0.28904   0.76545   0.00000  Uiso   1.00
H1066  H     0.39518   0.29467   0.76554   0.00000  Uiso   1.00
C1067  C     0.44915   0.28767   0.71886   0.00000  Uiso   1.00
H1068  H     0.44624   0.31857   0.70144   0.00000  Uiso   1.00
H1069  H     0.42402   0.26556   0.69714   0.00000  Uiso   1.00
H1070  H     0.48923   0.27716   0.72074   0.00000  Uiso   1.00
N1071  N     0.56755   0.04356   0.90117   0.00000  Uiso   1.00
H1072  H     0.60521   0.03513   0.90211   0.00000  Uiso   1.00
C1073  C     0.55168   0.04434   0.94767   0.00000  Uiso   1.00
H1074  H     0.55352   0.01295   0.96402   0.00000  Uiso   1.00
H1075  H     0.51202   0.05576   0.94597   0.00000  Uiso   1.00
H1076  H     0.57752   0.06542   0.97019   0.00000  Uiso   1.00
O1077  O     0.42590   0.12048   0.94821   0.00000  Uiso   1.00
H1078  H     0.43660   0.11278   0.91819   0.00000  Uiso   1.00
O1079  O     0.57010   0.21394   0.72321   0.00000  Uiso   1.00
H1080  H     0.59263   0.22885   0.70311   0.00000  Uiso   1.00
C1081  C     0.83300   0.08748   0.83372   0.00000  Uiso   1.00
C1082  C     0.83385   0.24586   0.83293   0.00000  Uiso   1.00
C1083  C     0.73481   0.16551   0.82155   0.00000  Uiso   1.00
C1084  C     0.93186   0.16785   0.84511   0.00000  Uiso   1.00
C1085  C     0.67971   0.16059   0.81591   0.00000  Uiso   1.00
C1086  C     0.98695   0.17278   0.85075   0.00000  Uiso   1.00
C1087  C     0.79858   0.02188   0.80065   0.00000  Uiso   1.00
C1088  C     0.86954   0.31204   0.86535   0.00000  Uiso   1.00
C1089  C     0.80050   0.31185   0.79889   0.00000  Uiso   1.00
C1090  C     0.86667   0.02148   0.86758   0.00000  Uiso   1.00
C1091  C     0.83530   0.29059   0.83190   0.00000  Uiso   1.00
C1092  C     0.83235   0.04278   0.83451   0.00000  Uiso   1.00
C1093  C     0.79779   0.14435   0.68832   0.00000  Uiso   1.00
C1094  C     0.86853   0.18967   0.97863   0.00000  Uiso   1.00
C1095  C     0.79745   0.14396   0.97249   0.00000  Uiso   1.00
C1096  C     0.86859   0.18998   0.69517   0.00000  Uiso   1.00
Cu1097 Cu    0.83333   0.16667   0.88022   0.00000  Uiso   1.00
Cu1098 Cu    0.83333   0.16666   0.78645   0.00000  Uiso   1.00
H1099  H     0.76951   0.12628   0.70443   0.00000  Uiso   1.00
H1100  H     0.89638   0.20807   0.96236   0.00000  Uiso   1.00
N1101  N     0.83335   0.16668   0.95069   0.00000  Uiso   1.00
N1102  N     0.83332   0.16666   0.71597   0.00000  Uiso   1.00
O1103  O     0.83333   0.10655   0.87291   0.00000  Uiso   1.00
O1104  O     0.83334   0.22678   0.79375   0.00000  Uiso   1.00
O1105  O     0.83333   0.10654   0.79372   0.00000  Uiso   1.00
O1106  O     0.83334   0.22679   0.87294   0.00000  Uiso   1.00
O1107  O     0.75828   0.16667   0.86379   0.00000  Uiso   1.00
O1108  O     0.90839   0.16666   0.80288   0.00000  Uiso   1.00
O1109  O     0.75828   0.16666   0.78460   0.00000  Uiso   1.00
O1110  O     0.90839   0.16667   0.88207   0.00000  Uiso   1.00
O1111  O     0.98806   0.14147   0.77628   0.00000  Uiso   1.00
H1112  H     0.68015   0.13147   0.75667   0.00000  Uiso   1.00
O1113  O     0.67861   0.19191   0.89037   0.00000  Uiso   1.00
H1114  H     0.98652   0.20185   0.91003   0.00000  Uiso   1.00
O1115  O     0.76423   0.04506   0.77082   0.00000  Uiso   1.00
H1116  H     0.74031   0.02709   0.75078   0.00000  Uiso   1.00
O1117  O     0.90655   0.29246   0.89607   0.00000  Uiso   1.00
H1118  H     0.91561   0.26626   0.88226   0.00000  Uiso   1.00
N1119  N     0.76686   0.28904   0.76545   0.00000  Uiso   1.00
H1120  H     0.72851   0.29467   0.76554   0.00000  Uiso   1.00
C1121  C     0.78249   0.28767   0.71886   0.00000  Uiso   1.00
H1122  H     0.77958   0.31857   0.70144   0.00000  Uiso   1.00
H1123  H     0.75735   0.26556   0.69714   0.00000  Uiso   1.00
H1124  H     0.82257   0.27716   0.72074   0.00000  Uiso   1.00
N1125  N     0.90089   0.04356   0.90117   0.00000  Uiso   1.00
H1126  H     0.93855   0.03513   0.90211   0.00000  Uiso   1.00
C1127  C     0.88502   0.04434   0.94767   0.00000  Uiso   1.00
H1128  H     0.88685   0.01295   0.96402   0.00000  Uiso   1.00
H1129  H     0.84535   0.05576   0.94597   0.00000  Uiso   1.00
H1130  H     0.91086   0.06542   0.97019   0.00000  Uiso   1.00
O1131  O     0.75924   0.12048   0.94821   0.00000  Uiso   1.00
H1132  H     0.76993   0.11278   0.91819   0.00000  Uiso   1.00
O1133  O     0.90343   0.21394   0.72321   0.00000  Uiso   1.00
H1134  H     0.92596   0.22885   0.70311   0.00000  Uiso   1.00
C1135  C     0.16634   0.42081   0.83372   0.00000  Uiso   1.00
C1136  C     0.16718   0.57919   0.83293   0.00000  Uiso   1.00
C1137  C     0.06814   0.49884   0.82155   0.00000  Uiso   1.00
C1138  C     0.26519   0.50118   0.84511   0.00000  Uiso   1.00
C1139  C     0.01305   0.49392   0.81591   0.00000  Uiso   1.00
C1140  C     0.32029   0.50611   0.85075   0.00000  Uiso   1.00
C1141  C     0.13192   0.35521   0.80065   0.00000  Uiso   1.00
C1142  C     0.20288   0.64537   0.86535   0.00000  Uiso   1.00
C1143  C     0.13384   0.64518   0.79889   0.00000  Uiso   1.00
C1144  C     0.20001   0.35481   0.86758   0.00000  Uiso   1.00
C1145  C     0.16864   0.62392   0.83190   0.00000  Uiso   1.00
C1146  C     0.16568   0.37611   0.83451   0.00000  Uiso   1.00
C1147  C     0.13113   0.47768   0.68832   0.00000  Uiso   1.00
C1148  C     0.20186   0.52300   0.97863   0.00000  Uiso   1.00
C1149  C     0.13079   0.47730   0.97249   0.00000  Uiso   1.00
C1150  C     0.20192   0.52331   0.69517   0.00000  Uiso   1.00
Cu1151 Cu    0.16667   0.50001   0.88022   0.00000  Uiso   1.00
Cu1152 Cu    0.16667   0.49999   0.78645   0.00000  Uiso   1.00
H1153  H     0.10284   0.45961   0.70443   0.00000  Uiso   1.00
H1154  H     0.22971   0.54141   0.96236   0.00000  Uiso   1.00
N1155  N     0.16668   0.50001   0.95069   0.00000  Uiso   1.00
N1156  N     0.16665   0.49999   0.71597   0.00000  Uiso   1.00
O1157  O     0.16666   0.43989   0.87291   0.00000  Uiso   1.00
O1158  O     0.16667   0.56011   0.79375   0.00000  Uiso   1.00
O1159  O     0.16666   0.43988   0.79372   0.00000  Uiso   1.00
O1160  O     0.16667   0.56012   0.87294   0.00000  Uiso   1.00
O1161  O     0.09161   0.50000   0.86379   0.00000  Uiso   1.00
O1162  O     0.24172   0.50000   0.80288   0.00000  Uiso   1.00
O1163  O     0.09161   0.49999   0.78460   0.00000  Uiso   1.00
O1164  O     0.24172   0.50001   0.88207   0.00000  Uiso   1.00
O1165  O     0.32139   0.47480   0.77628   0.00000  Uiso   1.00
H1166  H     0.01349   0.46481   0.75667   0.00000  Uiso   1.00
O1167  O     0.01194   0.52525   0.89037   0.00000  Uiso   1.00
H1168  H     0.31985   0.53518   0.91003   0.00000  Uiso   1.00
O1169  O     0.09756   0.37840   0.77082   0.00000  Uiso   1.00
H1170  H     0.07364   0.36042   0.75078   0.00000  Uiso   1.00
O1171  O     0.23988   0.62579   0.89607   0.00000  Uiso   1.00
H1172  H     0.24894   0.59959   0.88226   0.00000  Uiso   1.00
N1173  N     0.10020   0.62237   0.76545   0.00000  Uiso   1.00
H1174  H     0.06185   0.62801   0.76554   0.00000  Uiso   1.00
C1175  C     0.11582   0.62100   0.71886   0.00000  Uiso   1.00
H1176  H     0.11291   0.65190   0.70144   0.00000  Uiso   1.00
H1177  H     0.09069   0.59889   0.69714   0.00000  Uiso   1.00
H1178  H     0.15590   0.61050   0.72074   0.00000  Uiso   1.00
N1179  N     0.23422   0.37689   0.90117   0.00000  Uiso   1.00
H1180  H     0.27188   0.36847   0.90211   0.00000  Uiso   1.00
C1181  C     0.21835   0.37768   0.94767   0.00000  Uiso   1.00
H1182  H     0.22019   0.34628   0.96402   0.00000  Uiso   1.00
H1183  H     0.17868   0.38910   0.94597   0.00000  Uiso   1.00
H1184  H     0.24419   0.39875   0.97019   0.00000  Uiso   1.00
O1185  O     0.09257   0.45381   0.94821   0.00000  Uiso   1.00
H1186  H     0.10327   0.44612   0.91819   0.00000  Uiso   1.00
O1187  O     0.23676   0.54727   0.72321   0.00000  Uiso   1.00
H1188  H     0.25930   0.56219   0.70311   0.00000  Uiso   1.00
C1189  C     0.49967   0.42081   0.83372   0.00000  Uiso   1.00
C1190  C     0.50052   0.57919   0.83293   0.00000  Uiso   1.00
C1191  C     0.40147   0.49884   0.82155   0.00000  Uiso   1.00
C1192  C     0.59853   0.50118   0.84511   0.00000  Uiso   1.00
C1193  C     0.34638   0.49392   0.81591   0.00000  Uiso   1.00
C1194  C     0.65362   0.50611   0.85075   0.00000  Uiso   1.00
C1195  C     0.46525   0.35521   0.80065   0.00000  Uiso   1.00
C1196  C     0.53621   0.64537   0.86535   0.00000  Uiso   1.00
C1197  C     0.46717   0.64518   0.79889   0.00000  Uiso   1.00
C1198  C     0.53334   0.35481   0.86758   0.00000  Uiso   1.00
C1199  C     0.50197   0.62392   0.83190   0.00000  Uiso   1.00
C1200  C     0.49901   0.37611   0.83451   0.00000  Uiso   1.00
C1201  C     0.46446   0.47768   0.68832   0.00000  Uiso   1.00
C1202  C     0.53519   0.52300   0.97863   0.00000  Uiso   1.00
C1203  C     0.46412   0.47730   0.97249   0.00000  Uiso   1.00
C1204  C     0.53526   0.52331   0.69517   0.00000  Uiso   1.00
Cu1205 Cu    0.50000   0.50001   0.88022   0.00000  Uiso   1.00
Cu1206 Cu    0.50000   0.49999   0.78645   0.00000  Uiso   1.00
H1207  H     0.43617   0.45961   0.70443   0.00000  Uiso   1.00
H1208  H     0.56304   0.54141   0.96236   0.00000  Uiso   1.00
N1209  N     0.50001   0.50001   0.95069   0.00000  Uiso   1.00
N1210  N     0.49999   0.49999   0.71597   0.00000  Uiso   1.00
O1211  O     0.50000   0.43989   0.87291   0.00000  Uiso   1.00
O1212  O     0.50000   0.56011   0.79375   0.00000  Uiso   1.00
O1213  O     0.50000   0.43988   0.79372   0.00000  Uiso   1.00
O1214  O     0.50000   0.56012   0.87294   0.00000  Uiso   1.00
O1215  O     0.42495   0.50000   0.86379   0.00000  Uiso   1.00
O1216  O     0.57505   0.50000   0.80288   0.00000  Uiso   1.00
O1217  O     0.42494   0.49999   0.78460   0.00000  Uiso   1.00
O1218  O     0.57506   0.50001   0.88207   0.00000  Uiso   1.00
O1219  O     0.65472   0.47480   0.77628   0.00000  Uiso   1.00
H1220  H     0.34682   0.46481   0.75667   0.00000  Uiso   1.00
O1221  O     0.34528   0.52525   0.89037   0.00000  Uiso   1.00
H1222  H     0.65318   0.53518   0.91003   0.00000  Uiso   1.00
O1223  O     0.43090   0.37840   0.77082   0.00000  Uiso   1.00
H1224  H     0.40698   0.36042   0.75078   0.00000  Uiso   1.00
O1225  O     0.57321   0.62579   0.89607   0.00000  Uiso   1.00
H1226  H     0.58227   0.59959   0.88226   0.00000  Uiso   1.00
N1227  N     0.43353   0.62237   0.76545   0.00000  Uiso   1.00
H1228  H     0.39518   0.62801   0.76554   0.00000  Uiso   1.00
C1229  C     0.44915   0.62100   0.71886   0.00000  Uiso   1.00
H1230  H     0.44624   0.65190   0.70144   0.00000  Uiso   1.00
H1231  H     0.42402   0.59889   0.69714   0.00000  Uiso   1.00
H1232  H     0.48923   0.61050   0.72074   0.00000  Uiso   1.00
N1233  N     0.56755   0.37689   0.90117   0.00000  Uiso   1.00
H1234  H     0.60521   0.36847   0.90211   0.00000  Uiso   1.00
C1235  C     0.55168   0.37768   0.94767   0.00000  Uiso   1.00
H1236  H     0.55352   0.34628   0.96402   0.00000  Uiso   1.00
H1237  H     0.51202   0.38910   0.94597   0.00000  Uiso   1.00
H1238  H     0.57752   0.39875   0.97019   0.00000  Uiso   1.00
O1239  O     0.42590   0.45381   0.94821   0.00000  Uiso   1.00
H1240  H     0.43660   0.44612   0.91819   0.00000  Uiso   1.00
O1241  O     0.57010   0.54727   0.72321   0.00000  Uiso   1.00
H1242  H     0.59263   0.56219   0.70311   0.00000  Uiso   1.00
C1243  C     0.83300   0.42081   0.83372   0.00000  Uiso   1.00
C1244  C     0.83385   0.57919   0.83293   0.00000  Uiso   1.00
C1245  C     0.73481   0.49884   0.82155   0.00000  Uiso   1.00
C1246  C     0.93186   0.50118   0.84511   0.00000  Uiso   1.00
C1247  C     0.67971   0.49392   0.81591   0.00000  Uiso   1.00
C1248  C     0.98695   0.50611   0.85075   0.00000  Uiso   1.00
C1249  C     0.79858   0.35521   0.80065   0.00000  Uiso   1.00
C1250  C     0.86954   0.64537   0.86535   0.00000  Uiso   1.00
C1251  C     0.80050   0.64518   0.79889   0.00000  Uiso   1.00
C1252  C     0.86667   0.35481   0.86758   0.00000  Uiso   1.00
C1253  C     0.83530   0.62392   0.83190   0.00000  Uiso   1.00
C1254  C     0.83235   0.37611   0.83451   0.00000  Uiso   1.00
C1255  C     0.79779   0.47768   0.68832   0.00000  Uiso   1.00
C1256  C     0.86853   0.52300   0.97863   0.00000  Uiso   1.00
C1257  C     0.79745   0.47730   0.97249   0.00000  Uiso   1.00
C1258  C     0.86859   0.52331   0.69517   0.00000  Uiso   1.00
Cu1259 Cu    0.83333   0.50001   0.88022   0.00000  Uiso   1.00
Cu1260 Cu    0.83333   0.49999   0.78645   0.00000  Uiso   1.00
H1261  H     0.76951   0.45961   0.70443   0.00000  Uiso   1.00
H1262  H     0.89638   0.54141   0.96236   0.00000  Uiso   1.00
N1263  N     0.83335   0.50001   0.95069   0.00000  Uiso   1.00
N1264  N     0.83332   0.49999   0.71597   0.00000  Uiso   1.00
O1265  O     0.83333   0.43989   0.87291   0.00000  Uiso   1.00
O1266  O     0.83334   0.56011   0.79375   0.00000  Uiso   1.00
O1267  O     0.83333   0.43988   0.79372   0.00000  Uiso   1.00
O1268  O     0.83334   0.56012   0.87294   0.00000  Uiso   1.00
O1269  O     0.75828   0.50000   0.86379   0.00000  Uiso   1.00
O1270  O     0.90839   0.50000   0.80288   0.00000  Uiso   1.00
O1271  O     0.75828   0.49999   0.78460   0.00000  Uiso   1.00
O1272  O     0.90839   0.50001   0.88207   0.00000  Uiso   1.00
O1273  O     0.98806   0.47480   0.77628   0.00000  Uiso   1.00
H1274  H     0.68015   0.46481   0.75667   0.00000  Uiso   1.00
O1275  O     0.67861   0.52525   0.89037   0.00000  Uiso   1.00
H1276  H     0.98652   0.53518   0.91003   0.00000  Uiso   1.00
O1277  O     0.76423   0.37840   0.77082   0.00000  Uiso   1.00
H1278  H     0.74031   0.36042   0.75078   0.00000  Uiso   1.00
O1279  O     0.90655   0.62579   0.89607   0.00000  Uiso   1.00
H1280  H     0.91561   0.59959   0.88226   0.00000  Uiso   1.00
N1281  N     0.76686   0.62237   0.76545   0.00000  Uiso   1.00
H1282  H     0.72851   0.62801   0.76554   0.00000  Uiso   1.00
C1283  C     0.78249   0.62100   0.71886   0.00000  Uiso   1.00
H1284  H     0.77958   0.65190   0.70144   0.00000  Uiso   1.00
H1285  H     0.75735   0.59889   0.69714   0.00000  Uiso   1.00
H1286  H     0.82257   0.61050   0.72074   0.00000  Uiso   1.00
N1287  N     0.90089   0.37689   0.90117   0.00000  Uiso   1.00
H1288  H     0.93855   0.36847   0.90211   0.00000  Uiso   1.00
C1289  C     0.88502   0.37768   0.94767   0.00000  Uiso   1.00
H1290  H     0.88685   0.34628   0.96402   0.00000  Uiso   1.00
H1291  H     0.84535   0.38910   0.94597   0.00000  Uiso   1.00
H1292  H     0.91086   0.39875   0.97019   0.00000  Uiso   1.00
O1293  O     0.75924   0.45381   0.94821   0.00000  Uiso   1.00
H1294  H     0.76993   0.44612   0.91819   0.00000  Uiso   1.00
O1295  O     0.90343   0.54727   0.72321   0.00000  Uiso   1.00
H1296  H     0.92596   0.56219   0.70311   0.00000  Uiso   1.00
C1297  C     0.16634   0.75414   0.83372   0.00000  Uiso   1.00
C1298  C     0.16718   0.91253   0.83293   0.00000  Uiso   1.00
C1299  C     0.06814   0.83218   0.82155   0.00000  Uiso   1.00
C1300  C     0.26519   0.83451   0.84511   0.00000  Uiso   1.00
C1301  C     0.01305   0.82726   0.81591   0.00000  Uiso   1.00
C1302  C     0.32029   0.83945   0.85075   0.00000  Uiso   1.00
C1303  C     0.13192   0.68855   0.80065   0.00000  Uiso   1.00
C1304  C     0.20288   0.97871   0.86535   0.00000  Uiso   1.00
C1305  C     0.13384   0.97852   0.79889   0.00000  Uiso   1.00
C1306  C     0.20001   0.68814   0.86758   0.00000  Uiso   1.00
C1307  C     0.16864   0.95726   0.83190   0.00000  Uiso   1.00
C1308  C     0.16568   0.70945   0.83451   0.00000  Uiso   1.00
C1309  C     0.13113   0.81102   0.68832   0.00000  Uiso   1.00
C1310  C     0.20186   0.85634   0.97863   0.00000  Uiso   1.00
C1311  C     0.13079   0.81063   0.97249   0.00000  Uiso   1.00
C1312  C     0.20192   0.85664   0.69517   0.00000  Uiso   1.00
Cu1313 Cu    0.16667   0.83334   0.88022   0.00000  Uiso   1.00
Cu1314 Cu    0.16667   0.83333   0.78645   0.00000  Uiso   1.00
H1315  H     0.10284   0.79295   0.70443   0.00000  Uiso   1.00
H1316  H     0.22971   0.87474   0.96236   0.00000  Uiso   1.00
N1317  N     0.16668   0.83334   0.95069   0.00000  Uiso   1.00
N1318  N     0.16665   0.83332   0.71597   0.00000  Uiso   1.00
O1319  O     0.16666   0.77322   0.87291   0.00000  Uiso   1.00
O1320  O     0.16667   0.89345   0.79375   0.00000  Uiso   1.00
O1321  O     0.16666   0.77321   0.79372   0.00000  Uiso   1.00
O1322  O     0.16667   0.89346   0.87294   0.00000  Uiso   1.00
O1323  O     0.09161   0.83334   0.86379   0.00000  Uiso   1.00
O1324  O     0.24172   0.83333   0.80288   0.00000  Uiso   1.00
O1325  O     0.09161   0.83333   0.78460   0.00000  Uiso   1.00
O1326  O     0.24172   0.83334   0.88207   0.00000  Uiso   1.00
O1327  O     0.32139   0.80813   0.77628   0.00000  Uiso   1.00
H1328  H     0.01349   0.79814   0.75667   0.00000  Uiso   1.00
O1329  O     0.01194   0.85858   0.89037   0.00000  Uiso   1.00
H1330  H     0.31985   0.86851   0.91003   0.00000  Uiso   1.00
O1331  O     0.09756   0.71173   0.77082   0.00000  Uiso   1.00
H1332  H     0.07364   0.69376   0.75078   0.00000  Uiso   1.00
O1333  O     0.23988   0.95913   0.89607   0.00000  Uiso   1.00
H1334  H     0.24894   0.93292   0.88226   0.00000  Uiso   1.00
N1335  N     0.10020   0.95571   0.76545   0.00000  Uiso   1.00
H1336  H     0.06185   0.96134   0.76554   0.00000  Uiso   1.00
C1337  C     0.11582   0.95433   0.71886   0.00000  Uiso   1.00
H1338  H     0.11291   0.98523   0.70144   0.00000  Uiso   1.00
H1339  H     0.09069   0.93223   0.69714   0.00000  Uiso   1.00
H1340  H     0.15590   0.94383   0.72074   0.00000  Uiso   1.00
N1341  N     0.23422   0.71022   0.90117   0.00000  Uiso   1.00
H1342  H     0.27188   0.70180   0.90211   0.00000  Uiso   1.00
C1343  C     0.21835   0.71101   0.94767   0.00000  Uiso   1.00
H1344  H     0.22019   0.67962   0.96402   0.00000  Uiso   1.00
H1345  H     0.17868   0.72243   0.94597   0.00000  Uiso   1.00
H1346  H     0.24419   0.73208   0.97019   0.00000  Uiso   1.00
O1347  O     0.09257   0.78714   0.94821   0.00000  Uiso   1.00
H1348  H     0.10327   0.77945   0.91819   0.00000  Uiso   1.00
O1349  O     0.23676   0.88061   0.72321   0.00000  Uiso   1.00
H1350  H     0.25930   0.89552   0.70311   0.00000  Uiso   1.00
C1351  C     0.49967   0.75414   0.83372   0.00000  Uiso   1.00
C1352  C     0.50052   0.91253   0.83293   0.00000  Uiso   1.00
C1353  C     0.40147   0.83218   0.82155   0.00000  Uiso   1.00
C1354  C     0.59853   0.83451   0.84511   0.00000  Uiso   1.00
C1355  C     0.34638   0.82726   0.81591   0.00000  Uiso   1.00
C1356  C     0.65362   0.83945   0.85075   0.00000  Uiso   1.00
C1357  C     0.46525   0.68855   0.80065   0.00000  Uiso   1.00
C1358  C     0.53621   0.97871   0.86535   0.00000  Uiso   1.00
C1359  C     0.46717   0.97852   0.79889   0.00000  Uiso   1.00
C1360  C     0.53334   0.68814   0.86758   0.00000  Uiso   1.00
C1361  C     0.50197   0.95726   0.83190   0.00000  Uiso   1.00
C1362  C     0.49901   0.70945   0.83451   0.00000  Uiso   1.00
C1363  C     0.46446   0.81102   0.68832   0.00000  Uiso   1.00
C1364  C     0.53519   0.85634   0.97863   0.00000  Uiso   1.00
C1365  C     0.46412   0.81063   0.97249   0.00000  Uiso   1.00
C1366  C     0.53526   0.85664   0.69517   0.00000  Uiso   1.00
Cu1367 Cu    0.50000   0.83334   0.88022   0.00000  Uiso   1.00
Cu1368 Cu    0.50000   0.83333   0.78645   0.00000  Uiso   1.00
H1369  H     0.43617   0.79295   0.70443   0.00000  Uiso   1.00
H1370  H     0.56304   0.87474   0.96236   0.00000  Uiso   1.00
N1371  N     0.50001   0.83334   0.95069   0.00000  Uiso   1.00
N1372  N     0.49999   0.83332   0.71597   0.00000  Uiso   1.00
O1373  O     0.50000   0.77322   0.87291   0.00000  Uiso   1.00
O1374  O     0.50000   0.89345   0.79375   0.00000  Uiso   1.00
O1375  O     0.50000   0.77321   0.79372   0.00000  Uiso   1.00
O1376  O     0.50000   0.89346   0.87294   0.00000  Uiso   1.00
O1377  O     0.42495   0.83334   0.86379   0.00000  Uiso   1.00
O1378  O     0.57505   0.83333   0.80288   0.00000  Uiso   1.00
O1379  O     0.42494   0.83333   0.78460   0.00000  Uiso   1.00
O1380  O     0.57506   0.83334   0.88207   0.00000  Uiso   1.00
O1381  O     0.65472   0.80813   0.77628   0.00000  Uiso   1.00
H1382  H     0.34682   0.79814   0.75667   0.00000  Uiso   1.00
O1383  O     0.34528   0.85858   0.89037   0.00000  Uiso   1.00
H1384  H     0.65318   0.86851   0.91003   0.00000  Uiso   1.00
O1385  O     0.43090   0.71173   0.77082   0.00000  Uiso   1.00
H1386  H     0.40698   0.69376   0.75078   0.00000  Uiso   1.00
O1387  O     0.57321   0.95913   0.89607   0.00000  Uiso   1.00
H1388  H     0.58227   0.93292   0.88226   0.00000  Uiso   1.00
N1389  N     0.43353   0.95571   0.76545   0.00000  Uiso   1.00
H1390  H     0.39518   0.96134   0.76554   0.00000  Uiso   1.00
C1391  C     0.44915   0.95433   0.71886   0.00000  Uiso   1.00
H1392  H     0.44624   0.98523   0.70144   0.00000  Uiso   1.00
H1393  H     0.42402   0.93223   0.69714   0.00000  Uiso   1.00
H1394  H     0.48923   0.94383   0.72074   0.00000  Uiso   1.00
N1395  N     0.56755   0.71022   0.90117   0.00000  Uiso   1.00
H1396  H     0.60521   0.70180   0.90211   0.00000  Uiso   1.00
C1397  C     0.55168   0.71101   0.94767   0.00000  Uiso   1.00
H1398  H     0.55352   0.67962   0.96402   0.00000  Uiso   1.00
H1399  H     0.51202   0.72243   0.94597   0.00000  Uiso   1.00
H1400  H     0.57752   0.73208   0.97019   0.00000  Uiso   1.00
O1401  O     0.42590   0.78714   0.94821   0.00000  Uiso   1.00
H1402  H     0.43660   0.77945   0.91819   0.00000  Uiso   1.00
O1403  O     0.57010   0.88061   0.72321   0.00000  Uiso   1.00
H1404  H     0.59263   0.89552   0.70311   0.00000  Uiso   1.00
C1405  C     0.83300   0.75414   0.83372   0.00000  Uiso   1.00
C1406  C     0.83385   0.91253   0.83293   0.00000  Uiso   1.00
C1407  C     0.73481   0.83218   0.82155   0.00000  Uiso   1.00
C1408  C     0.93186   0.83451   0.84511   0.00000  Uiso   1.00
C1409  C     0.67971   0.82726   0.81591   0.00000  Uiso   1.00
C1410  C     0.98695   0.83945   0.85075   0.00000  Uiso   1.00
C1411  C     0.79858   0.68855   0.80065   0.00000  Uiso   1.00
C1412  C     0.86954   0.97871   0.86535   0.00000  Uiso   1.00
C1413  C     0.80050   0.97852   0.79889   0.00000  Uiso   1.00
C1414  C     0.86667   0.68814   0.86758   0.00000  Uiso   1.00
C1415  C     0.83530   0.95726   0.83190   0.00000  Uiso   1.00
C1416  C     0.83235   0.70945   0.83451   0.00000  Uiso   1.00
C1417  C     0.79779   0.81102   0.68832   0.00000  Uiso   1.00
C1418  C     0.86853   0.85634   0.97863   0.00000  Uiso   1.00
C1419  C     0.79745   0.81063   0.97249   0.00000  Uiso   1.00
C1420  C     0.86859   0.85664   0.69517   0.00000  Uiso   1.00
Cu1421 Cu    0.83333   0.83334   0.88022   0.00000  Uiso   1.00
Cu1422 Cu    0.83333   0.83333   0.78645   0.00000  Uiso   1.00
H1423  H     0.76951   0.79295   0.70443   0.00000  Uiso   1.00
H1424  H     0.89638   0.87474   0.96236   0.00000  Uiso   1.00
N1425  N     0.83335   0.83334   0.95069   0.00000  Uiso   1.00
N1426  N     0.83332   0.83332   0.71597   0.00000  Uiso   1.00
O1427  O     0.83333   0.77322   0.87291   0.00000  Uiso   1.00
O1428  O     0.83334   0.89345   0.79375   0.00000  Uiso   1.00
O1429  O     0.83333   0.77321   0.79372   0.00000  Uiso   1.00
O1430  O     0.83334   0.89346   0.87294   0.00000  Uiso   1.00
O1431  O     0.75828   0.83334   0.86379   0.00000  Uiso   1.00
O1432  O     0.90839   0.83333   0.80288   0.00000  Uiso   1.00
O1433  O     0.75828   0.83333   0.78460   0.00000  Uiso   1.00
O1434  O     0.90839   0.83334   0.88207   0.00000  Uiso   1.00
O1435  O     0.98806   0.80813   0.77628   0.00000  Uiso   1.00
H1436  H     0.68015   0.79814   0.75667   0.00000  Uiso   1.00
O1437  O     0.67861   0.85858   0.89037   0.00000  Uiso   1.00
H1438  H     0.98652   0.86851   0.91003   0.00000  Uiso   1.00
O1439  O     0.76423   0.71173   0.77082   0.00000  Uiso   1.00
H1440  H     0.74031   0.69376   0.75078   0.00000  Uiso   1.00
O1441  O     0.90655   0.95913   0.89607   0.00000  Uiso   1.00
H1442  H     0.91561   0.93292   0.88226   0.00000  Uiso   1.00
N1443  N     0.76686   0.95571   0.76545   0.00000  Uiso   1.00
H1444  H     0.72851   0.96134   0.76554   0.00000  Uiso   1.00
C1445  C     0.78249   0.95433   0.71886   0.00000  Uiso   1.00
H1446  H     0.77958   0.98523   0.70144   0.00000  Uiso   1.00
H1447  H     0.75735   0.93223   0.69714   0.00000  Uiso   1.00
H1448  H     0.82257   0.94383   0.72074   0.00000  Uiso   1.00
N1449  N     0.90089   0.71022   0.90117   0.00000  Uiso   1.00
H1450  H     0.93855   0.70180   0.90211   0.00000  Uiso   1.00
C1451  C     0.88502   0.71101   0.94767   0.00000  Uiso   1.00
H1452  H     0.88685   0.67962   0.96402   0.00000  Uiso   1.00
H1453  H     0.84535   0.72243   0.94597   0.00000  Uiso   1.00
H1454  H     0.91086   0.73208   0.97019   0.00000  Uiso   1.00
O1455  O     0.75924   0.78714   0.94821   0.00000  Uiso   1.00
H1456  H     0.76993   0.77945   0.91819   0.00000  Uiso   1.00
O1457  O     0.90343   0.88061   0.72321   0.00000  Uiso   1.00
H1458  H     0.92596   0.89552   0.70311   0.00000  Uiso   1.00
loop_
_geom_bond_atom_site_label_1
_geom_bond_atom_site_label_2
_geom_bond_distance
_geom_bond_site_symmetry_2
_ccdc_geom_bond_type
C1     O23     1.291   .     A
C1     O25     1.293   .     A
C1     C12     1.448   .     S
C2     C11     1.449   .     S
C2     O24     1.291   .     A
C2     O26     1.294   .     A
C3     O27     1.289   .     A
C3     O29     1.292   .     A
C3     C5      1.446   .     S
C4     O28     1.289   .     A
C4     C6      1.446   .     S
C4     O30     1.292   .     A
C5     C114    1.352   1_455 S
C5     O139    1.389   1_455 S
C6     C59     1.352   .     S
C6     O87     1.389   .     S
C7     C12     1.405   .     A
C7     O35     1.386   .     S
C7     C333    1.409   1_545 S
C8     C11     1.413   .     A
C8     O37     1.384   .     S
C8     C172    1.393   .     S
C9     C11     1.411   .     A
C9     N39     1.427   .     S
C9     C169    1.409   .     S
C10    N45     1.425   .     S
C10    C12     1.406   .     A
C10    C332    1.393   1_545 S
C13    N22     1.354   .     A
C13    H19     1.082   .     S
C13    C987    1.408   1_554 S
C14    N21     1.365   .     A
C14    H20     1.082   .     S
C14    C502    1.430   .     S
C15    O51     1.374   .     S
C15    N21     1.390   .     A
C15    C499    1.408   .     S
C16    O53     1.378   .     S
C16    N22     1.374   .     A
C16    C986    1.430   1_554 S
Cu17   O30     1.972   .     S
Cu17   O23     1.963   .     S
Cu17   Cu18    2.688   .     S
Cu17   O26     1.955   .     S
Cu17   O27     1.974   .     S
Cu17   N21     2.020   .     S
Cu18   N22     2.020   .     S
Cu18   O29     1.972   .     S
Cu18   O25     1.955   .     S
Cu18   O24     1.963   .     S
Cu18   O28     1.974   .     S
O31    C59     1.389   .     S
O31    H86     0.991   .     S
H32    O139    0.991   1_455 S
O33    C114    1.389   1_455 S
O33    H142    0.991   1_455 S
H34    O87     0.991   .     S
O35    H36     0.986   .     S
O37    H38     0.990   .     S
N39    C41     1.449   .     S
N39    H40     1.031   .     S
C41    H42     1.110   .     S
C41    H43     1.110   .     S
C41    H44     1.111   .     S
N45    C47     1.448   .     S
N45    H46     1.032   .     S
C47    H49     1.111   .     S
C47    H50     1.110   .     S
C47    H48     1.111   .     S
O51    H52     0.977   .     S
O53    H54     0.992   .     S
C55    O77     1.291   .     A
C55    O79     1.293   .     A
C55    C66     1.448   .     S
C56    C65     1.449   .     S
C56    O78     1.291   .     A
C56    O80     1.294   .     A
C57    O81     1.289   .     A
C57    O83     1.292   .     A
C57    C59     1.446   .     S
C58    O82     1.289   .     A
C58    C60     1.446   .     S
C58    O84     1.292   .     A
C60    C113    1.352   .     S
C60    O141    1.389   .     S
C61    C66     1.405   .     A
C61    O89     1.386   .     S
C61    C387    1.409   1_545 S
C62    C65     1.413   .     A
C62    O91     1.384   .     S
C62    C226    1.393   .     S
C63    C65     1.411   .     A
C63    N93     1.427   .     S
C63    C223    1.409   .     S
C64    N99     1.425   .     S
C64    C66     1.406   .     A
C64    C386    1.393   1_545 S
C67    N76     1.354   .     A
C67    H73     1.082   .     S
C67    C1041   1.408   1_554 S
C68    N75     1.365   .     A
C68    H74     1.082   .     S
C68    C556    1.430   .     S
C69    O105    1.374   .     S
C69    N75     1.390   .     A
C69    C553    1.408   .     S
C70    O107    1.378   .     S
C70    N76     1.374   .     A
C70    C1040   1.430   1_554 S
Cu71   O84     1.972   .     S
Cu71   O77     1.963   .     S
Cu71   Cu72    2.688   .     S
Cu71   O80     1.955   .     S
Cu71   O81     1.974   .     S
Cu71   N75     2.020   .     S
Cu72   N76     2.020   .     S
Cu72   O83     1.972   .     S
Cu72   O79     1.955   .     S
Cu72   O78     1.963   .     S
Cu72   O82     1.974   .     S
O85    C113    1.389   .     S
O85    H140    0.991   .     S
H88    O141    0.991   .     S
O89    H90     0.986   .     S
O91    H92     0.990   .     S
N93    C95     1.449   .     S
N93    H94     1.031   .     S
C95    H96     1.110   .     S
C95    H97     1.110   .     S
C95    H98     1.111   .     S
N99    C101    1.448   .     S
N99    H100    1.032   .     S
C101   H103    1.111   .     S
C101   H104    1.110   .     S
C101   H102    1.111   .     S
O105   H106    0.977   .     S
O107   H108    0.992   .     S
C109   O131    1.291   .     A
C109   O133    1.293   .     A
C109   C120    1.448   .     S
C110   C119    1.449   .     S
C110   O132    1.291   .     A
C110   O134    1.294   .     A
C111   O135    1.289   .     A
C111   O137    1.292   .     A
C111   C113    1.446   .     S
C112   O136    1.289   .     A
C112   C114    1.446   .     S
C112   O138    1.292   .     A
C114   C5      1.352   1_655 S
C114   O33     1.389   1_655 S
C115   C120    1.405   .     A
C115   O143    1.386   .     S
C115   C441    1.409   1_545 S
C116   C119    1.413   .     A
C116   O145    1.384   .     S
C116   C280    1.393   .     S
C117   C119    1.411   .     A
C117   N147    1.427   .     S
C117   C277    1.409   .     S
C118   N153    1.425   .     S
C118   C120    1.406   .     A
C118   C440    1.393   1_545 S
C121   N130    1.354   .     A
C121   H127    1.082   .     S
C121   C1095   1.408   1_554 S
C122   N129    1.365   .     A
C122   H128    1.082   .     S
C122   C610    1.430   .     S
C123   O159    1.374   .     S
C123   N129    1.390   .     A
C123   C607    1.408   .     S
C124   O161    1.378   .     S
C124   N130    1.374   .     A
C124   C1094   1.430   1_554 S
Cu125  O138    1.972   .     S
Cu125  O131    1.963   .     S
Cu125  Cu126   2.688   .     S
Cu125  O134    1.955   .     S
Cu125  O135    1.974   .     S
Cu125  N129    2.020   .     S
Cu126  N130    2.020   .     S
Cu126  O137    1.972   .     S
Cu126  O133    1.955   .     S
Cu126  O132    1.963   .     S
Cu126  O136    1.974   .     S
O139   C5      1.389   1_655 S
O139   H32     0.991   1_655 S
H142   O33     0.991   1_655 S
O143   H144    0.986   .     S
O145   H146    0.990   .     S
N147   C149    1.449   .     S
N147   H148    1.031   .     S
C149   H150    1.110   .     S
C149   H151    1.110   .     S
C149   H152    1.111   .     S
N153   C155    1.448   .     S
N153   H154    1.032   .     S
C155   H157    1.111   .     S
C155   H158    1.110   .     S
C155   H156    1.111   .     S
O159   H160    0.977   .     S
O161   H162    0.992   .     S
C163   O185    1.291   .     A
C163   O187    1.293   .     A
C163   C174    1.448   .     S
C164   C173    1.449   .     S
C164   O186    1.291   .     A
C164   O188    1.294   .     A
C165   O189    1.289   .     A
C165   O191    1.292   .     A
C165   C167    1.446   .     S
C166   O190    1.289   .     A
C166   C168    1.446   .     S
C166   O192    1.292   .     A
C167   C276    1.352   1_455 S
C167   O301    1.389   1_455 S
C168   C221    1.352   .     S
C168   O249    1.389   .     S
C169   C174    1.405   .     A
C169   O197    1.386   .     S
C170   C173    1.413   .     A
C170   O199    1.384   .     S
C170   C334    1.393   .     S
C171   C173    1.411   .     A
C171   N201    1.427   .     S
C171   C331    1.409   .     S
C172   N207    1.425   .     S
C172   C174    1.406   .     A
C175   N184    1.354   .     A
C175   H181    1.082   .     S
C175   C1149   1.408   1_554 S
C176   N183    1.365   .     A
C176   H182    1.082   .     S
C176   C664    1.430   .     S
C177   O213    1.374   .     S
C177   N183    1.390   .     A
C177   C661    1.408   .     S
C178   O215    1.378   .     S
C178   N184    1.374   .     A
C178   C1148   1.430   1_554 S
Cu179  O192    1.972   .     S
Cu179  O185    1.963   .     S
Cu179  Cu180   2.688   .     S
Cu179  O188    1.955   .     S
Cu179  O189    1.974   .     S
Cu179  N183    2.020   .     S
Cu180  N184    2.020   .     S
Cu180  O191    1.972   .     S
Cu180  O187    1.955   .     S
Cu180  O186    1.963   .     S
Cu180  O190    1.974   .     S
O193   C221    1.389   .     S
O193   H248    0.991   .     S
H194   O301    0.991   1_455 S
O195   C276    1.389   1_455 S
O195   H304    0.991   1_455 S
H196   O249    0.991   .     S
O197   H198    0.986   .     S
O199   H200    0.990   .     S
N201   C203    1.449   .     S
N201   H202    1.031   .     S
C203   H204    1.110   .     S
C203   H205    1.110   .     S
C203   H206    1.111   .     S
N207   C209    1.448   .     S
N207   H208    1.032   .     S
C209   H211    1.111   .     S
C209   H212    1.110   .     S
C209   H210    1.111   .     S
O213   H214    0.977   .     S
O215   H216    0.992   .     S
C217   O239    1.291   .     A
C217   O241    1.293   .     A
C217   C228    1.448   .     S
C218   C227    1.449   .     S
C218   O240    1.291   .     A
C218   O242    1.294   .     A
C219   O243    1.289   .     A
C219   O245    1.292   .     A
C219   C221    1.446   .     S
C220   O244    1.289   .     A
C220   C222    1.446   .     S
C220   O246    1.292   .     A
C222   C275    1.352   .     S
C222   O303    1.389   .     S
C223   C228    1.405   .     A
C223   O251    1.386   .     S
C224   C227    1.413   .     A
C224   O253    1.384   .     S
C224   C388    1.393   .     S
C225   C227    1.411   .     A
C225   N255    1.427   .     S
C225   C385    1.409   .     S
C226   N261    1.425   .     S
C226   C228    1.406   .     A
C229   N238    1.354   .     A
C229   H235    1.082   .     S
C229   C1203   1.408   1_554 S
C230   N237    1.365   .     A
C230   H236    1.082   .     S
C230   C718    1.430   .     S
C231   O267    1.374   .     S
C231   N237    1.390   .     A
C231   C715    1.408   .     S
C232   O269    1.378   .     S
C232   N238    1.374   .     A
C232   C1202   1.430   1_554 S
Cu233  O246    1.972   .     S
Cu233  O239    1.963   .     S
Cu233  Cu234   2.688   .     S
Cu233  O242    1.955   .     S
Cu233  O243    1.974   .     S
Cu233  N237    2.020   .     S
Cu234  N238    2.020   .     S
Cu234  O245    1.972   .     S
Cu234  O241    1.955   .     S
Cu234  O240    1.963   .     S
Cu234  O244    1.974   .     S
O247   C275    1.389   .     S
O247   H302    0.991   .     S
H250   O303    0.991   .     S
O251   H252    0.986   .     S
O253   H254    0.990   .     S
N255   C257    1.449   .     S
N255   H256    1.031   .     S
C257   H258    1.110   .     S
C257   H259    1.110   .     S
C257   H260    1.111   .     S
N261   C263    1.448   .     S
N261   H262    1.032   .     S
C263   H265    1.111   .     S
C263   H266    1.110   .     S
C263   H264    1.111   .     S
O267   H268    0.977   .     S
O269   H270    0.992   .     S
C271   O293    1.291   .     A
C271   O295    1.293   .     A
C271   C282    1.448   .     S
C272   C281    1.449   .     S
C272   O294    1.291   .     A
C272   O296    1.294   .     A
C273   O297    1.289   .     A
C273   O299    1.292   .     A
C273   C275    1.446   .     S
C274   O298    1.289   .     A
C274   C276    1.446   .     S
C274   O300    1.292   .     A
C276   C167    1.352   1_655 S
C276   O195    1.389   1_655 S
C277   C282    1.405   .     A
C277   O305    1.386   .     S
C278   C281    1.413   .     A
C278   O307    1.384   .     S
C278   C442    1.393   .     S
C279   C281    1.411   .     A
C279   N309    1.427   .     S
C279   C439    1.409   .     S
C280   N315    1.425   .     S
C280   C282    1.406   .     A
C283   N292    1.354   .     A
C283   H289    1.082   .     S
C283   C1257   1.408   1_554 S
C284   N291    1.365   .     A
C284   H290    1.082   .     S
C284   C772    1.430   .     S
C285   O321    1.374   .     S
C285   N291    1.390   .     A
C285   C769    1.408   .     S
C286   O323    1.378   .     S
C286   N292    1.374   .     A
C286   C1256   1.430   1_554 S
Cu287  O300    1.972   .     S
Cu287  O293    1.963   .     S
Cu287  Cu288   2.688   .     S
Cu287  O296    1.955   .     S
Cu287  O297    1.974   .     S
Cu287  N291    2.020   .     S
Cu288  N292    2.020   .     S
Cu288  O299    1.972   .     S
Cu288  O295    1.955   .     S
Cu288  O294    1.963   .     S
Cu288  O298    1.974   .     S
O301   C167    1.389   1_655 S
O301   H194    0.991   1_655 S
H304   O195    0.991   1_655 S
O305   H306    0.986   .     S
O307   H308    0.990   .     S
N309   C311    1.449   .     S
N309   H310    1.031   .     S
C311   H312    1.110   .     S
C311   H313    1.110   .     S
C311   H314    1.111   .     S
N315   C317    1.448   .     S
N315   H316    1.032   .     S
C317   H319    1.111   .     S
C317   H320    1.110   .     S
C317   H318    1.111   .     S
O321   H322    0.977   .     S
O323   H324    0.992   .     S
C325   O347    1.291   .     A
C325   O349    1.293   .     A
C325   C336    1.448   .     S
C326   C335    1.449   .     S
C326   O348    1.291   .     A
C326   O350    1.294   .     A
C327   O351    1.289   .     A
C327   O353    1.292   .     A
C327   C329    1.446   .     S
C328   O352    1.289   .     A
C328   C330    1.446   .     S
C328   O354    1.292   .     A
C329   C438    1.352   1_455 S
C329   O463    1.389   1_455 S
C330   C383    1.352   .     S
C330   O411    1.389   .     S
C331   C336    1.405   .     A
C331   O359    1.386   .     S
C332   C335    1.413   .     A
C332   O361    1.384   .     S
C332   C10     1.393   1_565 S
C333   C335    1.411   .     A
C333   N363    1.427   .     S
C333   C7      1.409   1_565 S
C334   N369    1.425   .     S
C334   C336    1.406   .     A
C337   N346    1.354   .     A
C337   H343    1.082   .     S
C337   C1311   1.408   1_554 S
C338   N345    1.365   .     A
C338   H344    1.082   .     S
C338   C826    1.430   .     S
C339   O375    1.374   .     S
C339   N345    1.390   .     A
C339   C823    1.408   .     S
C340   O377    1.378   .     S
C340   N346    1.374   .     A
C340   C1310   1.430   1_554 S
Cu341  O354    1.972   .     S
Cu341  O347    1.963   .     S
Cu341  Cu342   2.688   .     S
Cu341  O350    1.955   .     S
Cu341  O351    1.974   .     S
Cu341  N345    2.020   .     S
Cu342  N346    2.020   .     S
Cu342  O353    1.972   .     S
Cu342  O349    1.955   .     S
Cu342  O348    1.963   .     S
Cu342  O352    1.974   .     S
O355   C383    1.389   .     S
O355   H410    0.991   .     S
H356   O463    0.991   1_455 S
O357   C438    1.389   1_455 S
O357   H466    0.991   1_455 S
H358   O411    0.991   .     S
O359   H360    0.986   .     S
O361   H362    0.990   .     S
N363   C365    1.449   .     S
N363   H364    1.031   .     S
C365   H366    1.110   .     S
C365   H367    1.110   .     S
C365   H368    1.111   .     S
N369   C371    1.448   .     S
N369   H370    1.032   .     S
C371   H373    1.111   .     S
C371   H374    1.110   .     S
C371   H372    1.111   .     S
O375   H376    0.977   .     S
O377   H378    0.992   .     S
C379   O401    1.291   .     A
C379   O403    1.293   .     A
C379   C390    1.448   .     S
C380   C389    1.449   .     S
C380   O402    1.291   .     A
C380   O404    1.294   .     A
C381   O405    1.289   .     A
C381   O407    1.292   .     A
C381   C383    1.446   .     S
C382   O406    1.289   .     A
C382   C384    1.446   .     S
C382   O408    1.292   .     A
C384   C437    1.352   .     S
C384   O465    1.389   .     S
C385   C390    1.405   .     A
C385   O413    1.386   .     S
C386   C389    1.413   .     A
C386   O415    1.384   .     S
C386   C64     1.393   1_565 S
C387   C389    1.411   .     A
C387   N417    1.427   .     S
C387   C61     1.409   1_565 S
C388   N423    1.425   .     S
C388   C390    1.406   .     A
C391   N400    1.354   .     A
C391   H397    1.082   .     S
C391   C1365   1.408   1_554 S
C392   N399    1.365   .     A
C392   H398    1.082   .     S
C392   C880    1.430   .     S
C393   O429    1.374   .     S
C393   N399    1.390   .     A
C393   C877    1.408   .     S
C394   O431    1.378   .     S
C394   N400    1.374   .     A
C394   C1364   1.430   1_554 S
Cu395  O408    1.972   .     S
Cu395  O401    1.963   .     S
Cu395  Cu396   2.688   .     S
Cu395  O404    1.955   .     S
Cu395  O405    1.974   .     S
Cu395  N399    2.020   .     S
Cu396  N400    2.020   .     S
Cu396  O407    1.972   .     S
Cu396  O403    1.955   .     S
Cu396  O402    1.963   .     S
Cu396  O406    1.974   .     S
O409   C437    1.389   .     S
O409   H464    0.991   .     S
H412   O465    0.991   .     S
O413   H414    0.986   .     S
O415   H416    0.990   .     S
N417   C419    1.449   .     S
N417   H418    1.031   .     S
C419   H420    1.110   .     S
C419   H421    1.110   .     S
C419   H422    1.111   .     S
N423   C425    1.448   .     S
N423   H424    1.032   .     S
C425   H427    1.111   .     S
C425   H428    1.110   .     S
C425   H426    1.111   .     S
O429   H430    0.977   .     S
O431   H432    0.992   .     S
C433   O455    1.291   .     A
C433   O457    1.293   .     A
C433   C444    1.448   .     S
C434   C443    1.449   .     S
C434   O456    1.291   .     A
C434   O458    1.294   .     A
C435   O459    1.289   .     A
C435   O461    1.292   .     A
C435   C437    1.446   .     S
C436   O460    1.289   .     A
C436   C438    1.446   .     S
C436   O462    1.292   .     A
C438   C329    1.352   1_655 S
C438   O357    1.389   1_655 S
C439   C444    1.405   .     A
C439   O467    1.386   .     S
C440   C443    1.413   .     A
C440   O469    1.384   .     S
C440   C118    1.393   1_565 S
C441   C443    1.411   .     A
C441   N471    1.427   .     S
C441   C115    1.409   1_565 S
C442   N477    1.425   .     S
C442   C444    1.406   .     A
C445   N454    1.354   .     A
C445   H451    1.082   .     S
C445   C1419   1.408   1_554 S
C446   N453    1.365   .     A
C446   H452    1.082   .     S
C446   C934    1.430   .     S
C447   O483    1.374   .     S
C447   N453    1.390   .     A
C447   C931    1.408   .     S
C448   O485    1.378   .     S
C448   N454    1.374   .     A
C448   C1418   1.430   1_554 S
Cu449  O462    1.972   .     S
Cu449  O455    1.963   .     S
Cu449  Cu450   2.688   .     S
Cu449  O458    1.955   .     S
Cu449  O459    1.974   .     S
Cu449  N453    2.020   .     S
Cu450  N454    2.020   .     S
Cu450  O461    1.972   .     S
Cu450  O457    1.955   .     S
Cu450  O456    1.963   .     S
Cu450  O460    1.974   .     S
O463   C329    1.389   1_655 S
O463   H356    0.991   1_655 S
H466   O357    0.991   1_655 S
O467   H468    0.986   .     S
O469   H470    0.990   .     S
N471   C473    1.449   .     S
N471   H472    1.031   .     S
C473   H474    1.110   .     S
C473   H475    1.110   .     S
C473   H476    1.111   .     S
N477   C479    1.448   .     S
N477   H478    1.032   .     S
C479   H481    1.111   .     S
C479   H482    1.110   .     S
C479   H480    1.111   .     S
O483   H484    0.977   .     S
O485   H486    0.992   .     S
C487   O509    1.291   .     A
C487   O511    1.293   .     A
C487   C498    1.448   .     S
C488   C497    1.449   .     S
C488   O510    1.291   .     A
C488   O512    1.294   .     A
C489   O513    1.289   .     A
C489   O515    1.292   .     A
C489   C491    1.446   .     S
C490   O514    1.289   .     A
C490   C492    1.446   .     S
C490   O516    1.292   .     A
C491   C600    1.352   1_455 S
C491   O625    1.389   1_455 S
C492   C545    1.352   .     S
C492   O573    1.389   .     S
C493   C498    1.405   .     A
C493   O521    1.386   .     S
C493   C819    1.409   1_545 S
C494   C497    1.413   .     A
C494   O523    1.384   .     S
C494   C658    1.393   .     S
C495   C497    1.411   .     A
C495   N525    1.427   .     S
C495   C655    1.409   .     S
C496   N531    1.425   .     S
C496   C498    1.406   .     A
C496   C818    1.393   1_545 S
C499   N508    1.354   .     A
C499   H505    1.082   .     S
C500   N507    1.365   .     A
C500   H506    1.082   .     S
C500   C988    1.430   .     S
C501   O537    1.374   .     S
C501   N507    1.390   .     A
C501   C985    1.408   .     S
C502   O539    1.378   .     S
C502   N508    1.374   .     A
Cu503  O516    1.972   .     S
Cu503  O509    1.963   .     S
Cu503  Cu504   2.688   .     S
Cu503  O512    1.955   .     S
Cu503  O513    1.974   .     S
Cu503  N507    2.020   .     S
Cu504  N508    2.020   .     S
Cu504  O515    1.972   .     S
Cu504  O511    1.955   .     S
Cu504  O510    1.963   .     S
Cu504  O514    1.974   .     S
O517   C545    1.389   .     S
O517   H572    0.991   .     S
H518   O625    0.991   1_455 S
O519   C600    1.389   1_455 S
O519   H628    0.991   1_455 S
H520   O573    0.991   .     S
O521   H522    0.986   .     S
O523   H524    0.990   .     S
N525   C527    1.449   .     S
N525   H526    1.031   .     S
C527   H528    1.110   .     S
C527   H529    1.110   .     S
C527   H530    1.111   .     S
N531   C533    1.448   .     S
N531   H532    1.032   .     S
C533   H535    1.111   .     S
C533   H536    1.110   .     S
C533   H534    1.111   .     S
O537   H538    0.977   .     S
O539   H540    0.992   .     S
C541   O563    1.291   .     A
C541   O565    1.293   .     A
C541   C552    1.448   .     S
C542   C551    1.449   .     S
C542   O564    1.291   .     A
C542   O566    1.294   .     A
C543   O567    1.289   .     A
C543   O569    1.292   .     A
C543   C545    1.446   .     S
C544   O568    1.289   .     A
C544   C546    1.446   .     S
C544   O570    1.292   .     A
C546   C599    1.352   .     S
C546   O627    1.389   .     S
C547   C552    1.405   .     A
C547   O575    1.386   .     S
C547   C873    1.409   1_545 S
C548   C551    1.413   .     A
C548   O577    1.384   .     S
C548   C712    1.393   .     S
C549   C551    1.411   .     A
C549   N579    1.427   .     S
C549   C709    1.409   .     S
C550   N585    1.425   .     S
C550   C552    1.406   .     A
C550   C872    1.393   1_545 S
C553   N562    1.354   .     A
C553   H559    1.082   .     S
C554   N561    1.365   .     A
C554   H560    1.082   .     S
C554   C1042   1.430   .     S
C555   O591    1.374   .     S
C555   N561    1.390   .     A
C555   C1039   1.408   .     S
C556   O593    1.378   .     S
C556   N562    1.374   .     A
Cu557  O570    1.972   .     S
Cu557  O563    1.963   .     S
Cu557  Cu558   2.688   .     S
Cu557  O566    1.955   .     S
Cu557  O567    1.974   .     S
Cu557  N561    2.020   .     S
Cu558  N562    2.020   .     S
Cu558  O569    1.972   .     S
Cu558  O565    1.955   .     S
Cu558  O564    1.963   .     S
Cu558  O568    1.974   .     S
O571   C599    1.389   .     S
O571   H626    0.991   .     S
H574   O627    0.991   .     S
O575   H576    0.986   .     S
O577   H578    0.990   .     S
N579   C581    1.449   .     S
N579   H580    1.031   .     S
C581   H582    1.110   .     S
C581   H583    1.110   .     S
C581   H584    1.111   .     S
N585   C587    1.448   .     S
N585   H586    1.032   .     S
C587   H589    1.111   .     S
C587   H590    1.110   .     S
C587   H588    1.111   .     S
O591   H592    0.977   .     S
O593   H594    0.992   .     S
C595   O617    1.291   .     A
C595   O619    1.293   .     A
C595   C606    1.448   .     S
C596   C605    1.449   .     S
C596   O618    1.291   .     A
C596   O620    1.294   .     A
C597   O621    1.289   .     A
C597   O623    1.292   .     A
C597   C599    1.446   .     S
C598   O622    1.289   .     A
C598   C600    1.446   .     S
C598   O624    1.292   .     A
C600   C491    1.352   1_655 S
C600   O519    1.389   1_655 S
C601   C606    1.405   .     A
C601   O629    1.386   .     S
C601   C927    1.409   1_545 S
C602   C605    1.413   .     A
C602   O631    1.384   .     S
C602   C766    1.393   .     S
C603   C605    1.411   .     A
C603   N633    1.427   .     S
C603   C763    1.409   .     S
C604   N639    1.425   .     S
C604   C606    1.406   .     A
C604   C926    1.393   1_545 S
C607   N616    1.354   .     A
C607   H613    1.082   .     S
C608   N615    1.365   .     A
C608   H614    1.082   .     S
C608   C1096   1.430   .     S
C609   O645    1.374   .     S
C609   N615    1.390   .     A
C609   C1093   1.408   .     S
C610   O647    1.378   .     S
C610   N616    1.374   .     A
Cu611  O624    1.972   .     S
Cu611  O617    1.963   .     S
Cu611  Cu612   2.688   .     S
Cu611  O620    1.955   .     S
Cu611  O621    1.974   .     S
Cu611  N615    2.020   .     S
Cu612  N616    2.020   .     S
Cu612  O623    1.972   .     S
Cu612  O619    1.955   .     S
Cu612  O618    1.963   .     S
Cu612  O622    1.974   .     S
O625   C491    1.389   1_655 S
O625   H518    0.991   1_655 S
H628   O519    0.991   1_655 S
O629   H630    0.986   .     S
O631   H632    0.990   .     S
N633   C635    1.449   .     S
N633   H634    1.031   .     S
C635   H636    1.110   .     S
C635   H637    1.110   .     S
C635   H638    1.111   .     S
N639   C641    1.448   .     S
N639   H640    1.032   .     S
C641   H643    1.111   .     S
C641   H644    1.110   .     S
C641   H642    1.111   .     S
O645   H646    0.977   .     S
O647   H648    0.992   .     S
C649   O671    1.291   .     A
C649   O673    1.293   .     A
C649   C660    1.448   .     S
C650   C659    1.449   .     S
C650   O672    1.291   .     A
C650   O674    1.294   .     A
C651   O675    1.289   .     A
C651   O677    1.292   .     A
C651   C653    1.446   .     S
C652   O676    1.289   .     A
C652   C654    1.446   .     S
C652   O678    1.292   .     A
C653   C762    1.352   1_455 S
C653   O787    1.389   1_455 S
C654   C707    1.352   .     S
C654   O735    1.389   .     S
C655   C660    1.405   .     A
C655   O683    1.386   .     S
C656   C659    1.413   .     A
C656   O685    1.384   .     S
C656   C820    1.393   .     S
C657   C659    1.411   .     A
C657   N687    1.427   .     S
C657   C817    1.409   .     S
C658   N693    1.425   .     S
C658   C660    1.406   .     A
C661   N670    1.354   .     A
C661   H667    1.082   .     S
C662   N669    1.365   .     A
C662   H668    1.082   .     S
C662   C1150   1.430   .     S
C663   O699    1.374   .     S
C663   N669    1.390   .     A
C663   C1147   1.408   .     S
C664   O701    1.378   .     S
C664   N670    1.374   .     A
Cu665  O678    1.972   .     S
Cu665  O671    1.963   .     S
Cu665  Cu666   2.688   .     S
Cu665  O674    1.955   .     S
Cu665  O675    1.974   .     S
Cu665  N669    2.020   .     S
Cu666  N670    2.020   .     S
Cu666  O677    1.972   .     S
Cu666  O673    1.955   .     S
Cu666  O672    1.963   .     S
Cu666  O676    1.974   .     S
O679   C707    1.389   .     S
O679   H734    0.991   .     S
H680   O787    0.991   1_455 S
O681   C762    1.389   1_455 S
O681   H790    0.991   1_455 S
H682   O735    0.991   .     S
O683   H684    0.986   .     S
O685   H686    0.990   .     S
N687   C689    1.449   .     S
N687   H688    1.031   .     S
C689   H690    1.110   .     S
C689   H691    1.110   .     S
C689   H692    1.111   .     S
N693   C695    1.448   .     S
N693   H694    1.032   .     S
C695   H697    1.111   .     S
C695   H698    1.110   .     S
C695   H696    1.111   .     S
O699   H700    0.977   .     S
O701   H702    0.992   .     S
C703   O725    1.291   .     A
C703   O727    1.293   .     A
C703   C714    1.448   .     S
C704   C713    1.449   .     S
C704   O726    1.291   .     A
C704   O728    1.294   .     A
C705   O729    1.289   .     A
C705   O731    1.292   .     A
C705   C707    1.446   .     S
C706   O730    1.289   .     A
C706   C708    1.446   .     S
C706   O732    1.292   .     A
C708   C761    1.352   .     S
C708   O789    1.389   .     S
C709   C714    1.405   .     A
C709   O737    1.386   .     S
C710   C713    1.413   .     A
C710   O739    1.384   .     S
C710   C874    1.393   .     S
C711   C713    1.411   .     A
C711   N741    1.427   .     S
C711   C871    1.409   .     S
C712   N747    1.425   .     S
C712   C714    1.406   .     A
C715   N724    1.354   .     A
C715   H721    1.082   .     S
C716   N723    1.365   .     A
C716   H722    1.082   .     S
C716   C1204   1.430   .     S
C717   O753    1.374   .     S
C717   N723    1.390   .     A
C717   C1201   1.408   .     S
C718   O755    1.378   .     S
C718   N724    1.374   .     A
Cu719  O732    1.972   .     S
Cu719  O725    1.963   .     S
Cu719  Cu720   2.688   .     S
Cu719  O728    1.955   .     S
Cu719  O729    1.974   .     S
Cu719  N723    2.020   .     S
Cu720  N724    2.020   .     S
Cu720  O731    1.972   .     S
Cu720  O727    1.955   .     S
Cu720  O726    1.963   .     S
Cu720  O730    1.974   .     S
O733   C761    1.389   .     S
O733   H788    0.991   .     S
H736   O789    0.991   .     S
O737   H738    0.986   .     S
O739   H740    0.990   .     S
N741   C743    1.449   .     S
N741   H742    1.031   .     S
C743   H744    1.110   .     S
C743   H745    1.110   .     S
C743   H746    1.111   .     S
N747   C749    1.448   .     S
N747   H748    1.032   .     S
C749   H751    1.111   .     S
C749   H752    1.110   .     S
C749   H750    1.111   .     S
O753   H754    0.977   .     S
O755   H756    0.992   .     S
C757   O779    1.291   .     A
C757   O781    1.293   .     A
C757   C768    1.448   .     S
C758   C767    1.449   .     S
C758   O780    1.291   .     A
C758   O782    1.294   .     A
C759   O783    1.289   .     A
C759   O785    1.292   .     A
C759   C761    1.446   .     S
C760   O784    1.289   .     A
C760   C762    1.446   .     S
C760   O786    1.292   .     A
C762   C653    1.352   1_655 S
C762   O681    1.389   1_655 S
C763   C768    1.405   .     A
C763   O791    1.386   .     S
C764   C767    1.413   .     A
C764   O793    1.384   .     S
C764   C928    1.393   .     S
C765   C767    1.411   .     A
C765   N795    1.427   .     S
C765   C925    1.409   .     S
C766   N801    1.425   .     S
C766   C768    1.406   .     A
C769   N778    1.354   .     A
C769   H775    1.082   .     S
C770   N777    1.365   .     A
C770   H776    1.082   .     S
C770   C1258   1.430   .     S
C771   O807    1.374   .     S
C771   N777    1.390   .     A
C771   C1255   1.408   .     S
C772   O809    1.378   .     S
C772   N778    1.374   .     A
Cu773  O786    1.972   .     S
Cu773  O779    1.963   .     S
Cu773  Cu774   2.688   .     S
Cu773  O782    1.955   .     S
Cu773  O783    1.974   .     S
Cu773  N777    2.020   .     S
Cu774  N778    2.020   .     S
Cu774  O785    1.972   .     S
Cu774  O781    1.955   .     S
Cu774  O780    1.963   .     S
Cu774  O784    1.974   .     S
O787   C653    1.389   1_655 S
O787   H680    0.991   1_655 S
H790   O681    0.991   1_655 S
O791   H792    0.986   .     S
O793   H794    0.990   .     S
N795   C797    1.449   .     S
N795   H796    1.031   .     S
C797   H798    1.110   .     S
C797   H799    1.110   .     S
C797   H800    1.111   .     S
N801   C803    1.448   .     S
N801   H802    1.032   .     S
C803   H805    1.111   .     S
C803   H806    1.110   .     S
C803   H804    1.111   .     S
O807   H808    0.977   .     S
O809   H810    0.992   .     S
C811   O833    1.291   .     A
C811   O835    1.293   .     A
C811   C822    1.448   .     S
C812   C821    1.449   .     S
C812   O834    1.291   .     A
C812   O836    1.294   .     A
C813   O837    1.289   .     A
C813   O839    1.292   .     A
C813   C815    1.446   .     S
C814   O838    1.289   .     A
C814   C816    1.446   .     S
C814   O840    1.292   .     A
C815   C924    1.352   1_455 S
C815   O949    1.389   1_455 S
C816   C869    1.352   .     S
C816   O897    1.389   .     S
C817   C822    1.405   .     A
C817   O845    1.386   .     S
C818   C821    1.413   .     A
C818   O847    1.384   .     S
C818   C496    1.393   1_565 S
C819   C821    1.411   .     A
C819   N849    1.427   .     S
C819   C493    1.409   1_565 S
C820   N855    1.425   .     S
C820   C822    1.406   .     A
C823   N832    1.354   .     A
C823   H829    1.082   .     S
C824   N831    1.365   .     A
C824   H830    1.082   .     S
C824   C1312   1.430   .     S
C825   O861    1.374   .     S
C825   N831    1.390   .     A
C825   C1309   1.408   .     S
C826   O863    1.378   .     S
C826   N832    1.374   .     A
Cu827  O840    1.972   .     S
Cu827  O833    1.963   .     S
Cu827  Cu828   2.688   .     S
Cu827  O836    1.955   .     S
Cu827  O837    1.974   .     S
Cu827  N831    2.020   .     S
Cu828  N832    2.020   .     S
Cu828  O839    1.972   .     S
Cu828  O835    1.955   .     S
Cu828  O834    1.963   .     S
Cu828  O838    1.974   .     S
O841   C869    1.389   .     S
O841   H896    0.991   .     S
H842   O949    0.991   1_455 S
O843   C924    1.389   1_455 S
O843   H952    0.991   1_455 S
H844   O897    0.991   .     S
O845   H846    0.986   .     S
O847   H848    0.990   .     S
N849   C851    1.449   .     S
N849   H850    1.031   .     S
C851   H852    1.110   .     S
C851   H853    1.110   .     S
C851   H854    1.111   .     S
N855   C857    1.448   .     S
N855   H856    1.032   .     S
C857   H859    1.111   .     S
C857   H860    1.110   .     S
C857   H858    1.111   .     S
O861   H862    0.977   .     S
O863   H864    0.992   .     S
C865   O887    1.291   .     A
C865   O889    1.293   .     A
C865   C876    1.448   .     S
C866   C875    1.449   .     S
C866   O888    1.291   .     A
C866   O890    1.294   .     A
C867   O891    1.289   .     A
C867   O893    1.292   .     A
C867   C869    1.446   .     S
C868   O892    1.289   .     A
C868   C870    1.446   .     S
C868   O894    1.292   .     A
C870   C923    1.352   .     S
C870   O951    1.389   .     S
C871   C876    1.405   .     A
C871   O899    1.386   .     S
C872   C875    1.413   .     A
C872   O901    1.384   .     S
C872   C550    1.393   1_565 S
C873   C875    1.411   .     A
C873   N903    1.427   .     S
C873   C547    1.409   1_565 S
C874   N909    1.425   .     S
C874   C876    1.406   .     A
C877   N886    1.354   .     A
C877   H883    1.082   .     S
C878   N885    1.365   .     A
C878   H884    1.082   .     S
C878   C1366   1.430   .     S
C879   O915    1.374   .     S
C879   N885    1.390   .     A
C879   C1363   1.408   .     S
C880   O917    1.378   .     S
C880   N886    1.374   .     A
Cu881  O894    1.972   .     S
Cu881  O887    1.963   .     S
Cu881  Cu882   2.688   .     S
Cu881  O890    1.955   .     S
Cu881  O891    1.974   .     S
Cu881  N885    2.020   .     S
Cu882  N886    2.020   .     S
Cu882  O893    1.972   .     S
Cu882  O889    1.955   .     S
Cu882  O888    1.963   .     S
Cu882  O892    1.974   .     S
O895   C923    1.389   .     S
O895   H950    0.991   .     S
H898   O951    0.991   .     S
O899   H900    0.986   .     S
O901   H902    0.990   .     S
N903   C905    1.449   .     S
N903   H904    1.031   .     S
C905   H906    1.110   .     S
C905   H907    1.110   .     S
C905   H908    1.111   .     S
N909   C911    1.448   .     S
N909   H910    1.032   .     S
C911   H913    1.111   .     S
C911   H914    1.110   .     S
C911   H912    1.111   .     S
O915   H916    0.977   .     S
O917   H918    0.992   .     S
C919   O941    1.291   .     A
C919   O943    1.293   .     A
C919   C930    1.448   .     S
C920   C929    1.449   .     S
C920   O942    1.291   .     A
C920   O944    1.294   .     A
C921   O945    1.289   .     A
C921   O947    1.292   .     A
C921   C923    1.446   .     S
C922   O946    1.289   .     A
C922   C924    1.446   .     S
C922   O948    1.292   .     A
C924   C815    1.352   1_655 S
C924   O843    1.389   1_655 S
C925   C930    1.405   .     A
C925   O953    1.386   .     S
C926   C929    1.413   .     A
C926   O955    1.384   .     S
C926   C604    1.393   1_565 S
C927   C929    1.411   .     A
C927   N957    1.427   .     S
C927   C601    1.409   1_565 S
C928   N963    1.425   .     S
C928   C930    1.406   .     A
C931   N940    1.354   .     A
C931   H937    1.082   .     S
C932   N939    1.365   .     A
C932   H938    1.082   .     S
C932   C1420   1.430   .     S
C933   O969    1.374   .     S
C933   N939    1.390   .     A
C933   C1417   1.408   .     S
C934   O971    1.378   .     S
C934   N940    1.374   .     A
Cu935  O948    1.972   .     S
Cu935  O941    1.963   .     S
Cu935  Cu936   2.688   .     S
Cu935  O944    1.955   .     S
Cu935  O945    1.974   .     S
Cu935  N939    2.020   .     S
Cu936  N940    2.020   .     S
Cu936  O947    1.972   .     S
Cu936  O943    1.955   .     S
Cu936  O942    1.963   .     S
Cu936  O946    1.974   .     S
O949   C815    1.389   1_655 S
O949   H842    0.991   1_655 S
H952   O843    0.991   1_655 S
O953   H954    0.986   .     S
O955   H956    0.990   .     S
N957   C959    1.449   .     S
N957   H958    1.031   .     S
C959   H960    1.110   .     S
C959   H961    1.110   .     S
C959   H962    1.111   .     S
N963   C965    1.448   .     S
N963   H964    1.032   .     S
C965   H967    1.111   .     S
C965   H968    1.110   .     S
C965   H966    1.111   .     S
O969   H970    0.977   .     S
O971   H972    0.992   .     S
C973   O995    1.291   .     A
C973   O997    1.293   .     A
C973   C984    1.448   .     S
C974   C983    1.449   .     S
C974   O996    1.291   .     A
C974   O998    1.294   .     A
C975   O999    1.289   .     A
C975   O1001   1.292   .     A
C975   C977    1.446   .     S
C976   O1000   1.289   .     A
C976   C978    1.446   .     S
C976   O1002   1.292   .     A
C977   C1086   1.352   1_455 S
C977   O1111   1.389   1_455 S
C978   C1031   1.352   .     S
C978   O1059   1.389   .     S
C979   C984    1.405   .     A
C979   O1007   1.386   .     S
C979   C1305   1.409   1_545 S
C980   C983    1.413   .     A
C980   O1009   1.384   .     S
C980   C1144   1.393   .     S
C981   C983    1.411   .     A
C981   N1011   1.427   .     S
C981   C1141   1.409   .     S
C982   N1017   1.425   .     S
C982   C984    1.406   .     A
C982   C1304   1.393   1_545 S
C985   N994    1.354   .     A
C985   H991    1.082   .     S
C986   N993    1.365   .     A
C986   H992    1.082   .     S
C986   C16     1.430   1_556 S
C987   O1023   1.374   .     S
C987   N993    1.390   .     A
C987   C13     1.408   1_556 S
C988   O1025   1.378   .     S
C988   N994    1.374   .     A
Cu989  O1002   1.972   .     S
Cu989  O995    1.963   .     S
Cu989  Cu990   2.688   .     S
Cu989  O998    1.955   .     S
Cu989  O999    1.974   .     S
Cu989  N993    2.020   .     S
Cu990  N994    2.020   .     S
Cu990  O1001   1.972   .     S
Cu990  O997    1.955   .     S
Cu990  O996    1.963   .     S
Cu990  O1000   1.974   .     S
O1003  C1031   1.389   .     S
O1003  H1058   0.991   .     S
H1004  O1111   0.991   1_455 S
O1005  C1086   1.389   1_455 S
O1005  H1114   0.991   1_455 S
H1006  O1059   0.991   .     S
O1007  H1008   0.986   .     S
O1009  H1010   0.990   .     S
N1011  C1013   1.449   .     S
N1011  H1012   1.031   .     S
C1013  H1014   1.110   .     S
C1013  H1015   1.110   .     S
C1013  H1016   1.111   .     S
N1017  C1019   1.448   .     S
N1017  H1018   1.032   .     S
C1019  H1021   1.111   .     S
C1019  H1022   1.110   .     S
C1019  H1020   1.111   .     S
O1023  H1024   0.977   .     S
O1025  H1026   0.992   .     S
C1027  O1049   1.291   .     A
C1027  O1051   1.293   .     A
C1027  C1038   1.448   .     S
C1028  C1037   1.449   .     S
C1028  O1050   1.291   .     A
C1028  O1052   1.294   .     A
C1029  O1053   1.289   .     A
C1029  O1055   1.292   .     A
C1029  C1031   1.446   .     S
C1030  O1054   1.289   .     A
C1030  C1032   1.446   .     S
C1030  O1056   1.292   .     A
C1032  C1085   1.352   .     S
C1032  O1113   1.389   .     S
C1033  C1038   1.405   .     A
C1033  O1061   1.386   .     S
C1033  C1359   1.409   1_545 S
C1034  C1037   1.413   .     A
C1034  O1063   1.384   .     S
C1034  C1198   1.393   .     S
C1035  C1037   1.411   .     A
C1035  N1065   1.427   .     S
C1035  C1195   1.409   .     S
C1036  N1071   1.425   .     S
C1036  C1038   1.406   .     A
C1036  C1358   1.393   1_545 S
C1039  N1048   1.354   .     A
C1039  H1045   1.082   .     S
C1040  N1047   1.365   .     A
C1040  H1046   1.082   .     S
C1040  C70     1.430   1_556 S
C1041  O1077   1.374   .     S
C1041  N1047   1.390   .     A
C1041  C67     1.408   1_556 S
C1042  O1079   1.378   .     S
C1042  N1048   1.374   .     A
Cu1043 O1056   1.972   .     S
Cu1043 O1049   1.963   .     S
Cu1043 Cu1044  2.688   .     S
Cu1043 O1052   1.955   .     S
Cu1043 O1053   1.974   .     S
Cu1043 N1047   2.020   .     S
Cu1044 N1048   2.020   .     S
Cu1044 O1055   1.972   .     S
Cu1044 O1051   1.955   .     S
Cu1044 O1050   1.963   .     S
Cu1044 O1054   1.974   .     S
O1057  C1085   1.389   .     S
O1057  H1112   0.991   .     S
H1060  O1113   0.991   .     S
O1061  H1062   0.986   .     S
O1063  H1064   0.990   .     S
N1065  C1067   1.449   .     S
N1065  H1066   1.031   .     S
C1067  H1068   1.110   .     S
C1067  H1069   1.110   .     S
C1067  H1070   1.111   .     S
N1071  C1073   1.448   .     S
N1071  H1072   1.032   .     S
C1073  H1075   1.111   .     S
C1073  H1076   1.110   .     S
C1073  H1074   1.111   .     S
O1077  H1078   0.977   .     S
O1079  H1080   0.992   .     S
C1081  O1103   1.291   .     A
C1081  O1105   1.293   .     A
C1081  C1092   1.448   .     S
C1082  C1091   1.449   .     S
C1082  O1104   1.291   .     A
C1082  O1106   1.294   .     A
C1083  O1107   1.289   .     A
C1083  O1109   1.292   .     A
C1083  C1085   1.446   .     S
C1084  O1108   1.289   .     A
C1084  C1086   1.446   .     S
C1084  O1110   1.292   .     A
C1086  C977    1.352   1_655 S
C1086  O1005   1.389   1_655 S
C1087  C1092   1.405   .     A
C1087  O1115   1.386   .     S
C1087  C1413   1.409   1_545 S
C1088  C1091   1.413   .     A
C1088  O1117   1.384   .     S
C1088  C1252   1.393   .     S
C1089  C1091   1.411   .     A
C1089  N1119   1.427   .     S
C1089  C1249   1.409   .     S
C1090  N1125   1.425   .     S
C1090  C1092   1.406   .     A
C1090  C1412   1.393   1_545 S
C1093  N1102   1.354   .     A
C1093  H1099   1.082   .     S
C1094  N1101   1.365   .     A
C1094  H1100   1.082   .     S
C1094  C124    1.430   1_556 S
C1095  O1131   1.374   .     S
C1095  N1101   1.390   .     A
C1095  C121    1.408   1_556 S
C1096  O1133   1.378   .     S
C1096  N1102   1.374   .     A
Cu1097 O1110   1.972   .     S
Cu1097 O1103   1.963   .     S
Cu1097 Cu1098  2.688   .     S
Cu1097 O1106   1.955   .     S
Cu1097 O1107   1.974   .     S
Cu1097 N1101   2.020   .     S
Cu1098 N1102   2.020   .     S
Cu1098 O1109   1.972   .     S
Cu1098 O1105   1.955   .     S
Cu1098 O1104   1.963   .     S
Cu1098 O1108   1.974   .     S
O1111  C977    1.389   1_655 S
O1111  H1004   0.991   1_655 S
H1114  O1005   0.991   1_655 S
O1115  H1116   0.986   .     S
O1117  H1118   0.990   .     S
N1119  C1121   1.449   .     S
N1119  H1120   1.031   .     S
C1121  H1122   1.110   .     S
C1121  H1123   1.110   .     S
C1121  H1124   1.111   .     S
N1125  C1127   1.448   .     S
N1125  H1126   1.032   .     S
C1127  H1129   1.111   .     S
C1127  H1130   1.110   .     S
C1127  H1128   1.111   .     S
O1131  H1132   0.977   .     S
O1133  H1134   0.992   .     S
C1135  O1157   1.291   .     A
C1135  O1159   1.293   .     A
C1135  C1146   1.448   .     S
C1136  C1145   1.449   .     S
C1136  O1158   1.291   .     A
C1136  O1160   1.294   .     A
C1137  O1161   1.289   .     A
C1137  O1163   1.292   .     A
C1137  C1139   1.446   .     S
C1138  O1162   1.289   .     A
C1138  C1140   1.446   .     S
C1138  O1164   1.292   .     A
C1139  C1248   1.352   1_455 S
C1139  O1273   1.389   1_455 S
C1140  C1193   1.352   .     S
C1140  O1221   1.389   .     S
C1141  C1146   1.405   .     A
C1141  O1169   1.386   .     S
C1142  C1145   1.413   .     A
C1142  O1171   1.384   .     S
C1142  C1306   1.393   .     S
C1143  C1145   1.411   .     A
C1143  N1173   1.427   .     S
C1143  C1303   1.409   .     S
C1144  N1179   1.425   .     S
C1144  C1146   1.406   .     A
C1147  N1156   1.354   .     A
C1147  H1153   1.082   .     S
C1148  N1155   1.365   .     A
C1148  H1154   1.082   .     S
C1148  C178    1.430   1_556 S
C1149  O1185   1.374   .     S
C1149  N1155   1.390   .     A
C1149  C175    1.408   1_556 S
C1150  O1187   1.378   .     S
C1150  N1156   1.374   .     A
Cu1151 O1164   1.972   .     S
Cu1151 O1157   1.963   .     S
Cu1151 Cu1152  2.688   .     S
Cu1151 O1160   1.955   .     S
Cu1151 O1161   1.974   .     S
Cu1151 N1155   2.020   .     S
Cu1152 N1156   2.020   .     S
Cu1152 O1163   1.972   .     S
Cu1152 O1159   1.955   .     S
Cu1152 O1158   1.963   .     S
Cu1152 O1162   1.974   .     S
O1165  C1193   1.389   .     S
O1165  H1220   0.991   .     S
H1166  O1273   0.991   1_455 S
O1167  C1248   1.389   1_455 S
O1167  H1276   0.991   1_455 S
H1168  O1221   0.991   .     S
O1169  H1170   0.986   .     S
O1171  H1172   0.990   .     S
N1173  C1175   1.449   .     S
N1173  H1174   1.031   .     S
C1175  H1176   1.110   .     S
C1175  H1177   1.110   .     S
C1175  H1178   1.111   .     S
N1179  C1181   1.448   .     S
N1179  H1180   1.032   .     S
C1181  H1183   1.111   .     S
C1181  H1184   1.110   .     S
C1181  H1182   1.111   .     S
O1185  H1186   0.977   .     S
O1187  H1188   0.992   .     S
C1189  O1211   1.291   .     A
C1189  O1213   1.293   .     A
C1189  C1200   1.448   .     S
C1190  C1199   1.449   .     S
C1190  O1212   1.291   .     A
C1190  O1214   1.294   .     A
C1191  O1215   1.289   .     A
C1191  O1217   1.292   .     A
C1191  C1193   1.446   .     S
C1192  O1216   1.289   .     A
C1192  C1194   1.446   .     S
C1192  O1218   1.292   .     A
C1194  C1247   1.352   .     S
C1194  O1275   1.389   .     S
C1195  C1200   1.405   .     A
C1195  O1223   1.386   .     S
C1196  C1199   1.413   .     A
C1196  O1225   1.384   .     S
C1196  C1360   1.393   .     S
C1197  C1199   1.411   .     A
C1197  N1227   1.427   .     S
C1197  C1357   1.409   .     S
C1198  N1233   1.425   .     S
C1198  C1200   1.406   .     A
C1201  N1210   1.354   .     A
C1201  H1207   1.082   .     S
C1202  N1209   1.365   .     A
C1202  H1208   1.082   .     S
C1202  C232    1.430   1_556 S
C1203  O1239   1.374   .     S
C1203  N1209   1.390   .     A
C1203  C229    1.408   1_556 S
C1204  O1241   1.378   .     S
C1204  N1210   1.374   .     A
Cu1205 O1218   1.972   .     S
Cu1205 O1211   1.963   .     S
Cu1205 Cu1206  2.688   .     S
Cu1205 O1214   1.955   .     S
Cu1205 O1215   1.974   .     S
Cu1205 N1209   2.020   .     S
Cu1206 N1210   2.020   .     S
Cu1206 O1217   1.972   .     S
Cu1206 O1213   1.955   .     S
Cu1206 O1212   1.963   .     S
Cu1206 O1216   1.974   .     S
O1219  C1247   1.389   .     S
O1219  H1274   0.991   .     S
H1222  O1275   0.991   .     S
O1223  H1224   0.986   .     S
O1225  H1226   0.990   .     S
N1227  C1229   1.449   .     S
N1227  H1228   1.031   .     S
C1229  H1230   1.110   .     S
C1229  H1231   1.110   .     S
C1229  H1232   1.111   .     S
N1233  C1235   1.448   .     S
N1233  H1234   1.032   .     S
C1235  H1237   1.111   .     S
C1235  H1238   1.110   .     S
C1235  H1236   1.111   .     S
O1239  H1240   0.977   .     S
O1241  H1242   0.992   .     S
C1243  O1265   1.291   .     A
C1243  O1267   1.293   .     A
C1243  C1254   1.448   .     S
C1244  C1253   1.449   .     S
C1244  O1266   1.291   .     A
C1244  O1268   1.294   .     A
C1245  O1269   1.289   .     A
C1245  O1271   1.292   .     A
C1245  C1247   1.446   .     S
C1246  O1270   1.289   .     A
C1246  C1248   1.446   .     S
C1246  O1272   1.292   .     A
C1248  C1139   1.352   1_655 S
C1248  O1167   1.389   1_655 S
C1249  C1254   1.405   .     A
C1249  O1277   1.386   .     S
C1250  C1253   1.413   .     A
C1250  O1279   1.384   .     S
C1250  C1414   1.393   .     S
C1251  C1253   1.411   .     A
C1251  N1281   1.427   .     S
C1251  C1411   1.409   .     S
C1252  N1287   1.425   .     S
C1252  C1254   1.406   .     A
C1255  N1264   1.354   .     A
C1255  H1261   1.082   .     S
C1256  N1263   1.365   .     A
C1256  H1262   1.082   .     S
C1256  C286    1.430   1_556 S
C1257  O1293   1.374   .     S
C1257  N1263   1.390   .     A
C1257  C283    1.408   1_556 S
C1258  O1295   1.378   .     S
C1258  N1264   1.374   .     A
Cu1259 O1272   1.972   .     S
Cu1259 O1265   1.963   .     S
Cu1259 Cu1260  2.688   .     S
Cu1259 O1268   1.955   .     S
Cu1259 O1269   1.974   .     S
Cu1259 N1263   2.020   .     S
Cu1260 N1264   2.020   .     S
Cu1260 O1271   1.972   .     S
Cu1260 O1267   1.955   .     S
Cu1260 O1266   1.963   .     S
Cu1260 O1270   1.974   .     S
O1273  C1139   1.389   1_655 S
O1273  H1166   0.991   1_655 S
H1276  O1167   0.991   1_655 S
O1277  H1278   0.986   .     S
O1279  H1280   0.990   .     S
N1281  C1283   1.449   .     S
N1281  H1282   1.031   .     S
C1283  H1284   1.110   .     S
C1283  H1285   1.110   .     S
C1283  H1286   1.111   .     S
N1287  C1289   1.448   .     S
N1287  H1288   1.032   .     S
C1289  H1291   1.111   .     S
C1289  H1292   1.110   .     S
C1289  H1290   1.111   .     S
O1293  H1294   0.977   .     S
O1295  H1296   0.992   .     S
C1297  O1319   1.291   .     A
C1297  O1321   1.293   .     A
C1297  C1308   1.448   .     S
C1298  C1307   1.449   .     S
C1298  O1320   1.291   .     A
C1298  O1322   1.294   .     A
C1299  O1323   1.289   .     A
C1299  O1325   1.292   .     A
C1299  C1301   1.446   .     S
C1300  O1324   1.289   .     A
C1300  C1302   1.446   .     S
C1300  O1326   1.292   .     A
C1301  C1410   1.352   1_455 S
C1301  O1435   1.389   1_455 S
C1302  C1355   1.352   .     S
C1302  O1383   1.389   .     S
C1303  C1308   1.405   .     A
C1303  O1331   1.386   .     S
C1304  C1307   1.413   .     A
C1304  O1333   1.384   .     S
C1304  C982    1.393   1_565 S
C1305  C1307   1.411   .     A
C1305  N1335   1.427   .     S
C1305  C979    1.409   1_565 S
C1306  N1341   1.425   .     S
C1306  C1308   1.406   .     A
C1309  N1318   1.354   .     A
C1309  H1315   1.082   .     S
C1310  N1317   1.365   .     A
C1310  H1316   1.082   .     S
C1310  C340    1.430   1_556 S
C1311  O1347   1.374   .     S
C1311  N1317   1.390   .     A
C1311  C337    1.408   1_556 S
C1312  O1349   1.378   .     S
C1312  N1318   1.374   .     A
Cu1313 O1326   1.972   .     S
Cu1313 O1319   1.963   .     S
Cu1313 Cu1314  2.688   .     S
Cu1313 O1322   1.955   .     S
Cu1313 O1323   1.974   .     S
Cu1313 N1317   2.020   .     S
Cu1314 N1318   2.020   .     S
Cu1314 O1325   1.972   .     S
Cu1314 O1321   1.955   .     S
Cu1314 O1320   1.963   .     S
Cu1314 O1324   1.974   .     S
O1327  C1355   1.389   .     S
O1327  H1382   0.991   .     S
H1328  O1435   0.991   1_455 S
O1329  C1410   1.389   1_455 S
O1329  H1438   0.991   1_455 S
H1330  O1383   0.991   .     S
O1331  H1332   0.986   .     S
O1333  H1334   0.990   .     S
N1335  C1337   1.449   .     S
N1335  H1336   1.031   .     S
C1337  H1338   1.110   .     S
C1337  H1339   1.110   .     S
C1337  H1340   1.111   .     S
N1341  C1343   1.448   .     S
N1341  H1342   1.032   .     S
C1343  H1345   1.111   .     S
C1343  H1346   1.110   .     S
C1343  H1344   1.111   .     S
O1347  H1348   0.977   .     S
O1349  H1350   0.992   .     S
C1351  O1373   1.291   .     A
C1351  O1375   1.293   .     A
C1351  C1362   1.448   .     S
C1352  C1361   1.449   .     S
C1352  O1374   1.291   .     A
C1352  O1376   1.294   .     A
C1353  O1377   1.289   .     A
C1353  O1379   1.292   .     A
C1353  C1355   1.446   .     S
C1354  O1378   1.289   .     A
C1354  C1356   1.446   .     S
C1354  O1380   1.292   .     A
C1356  C1409   1.352   .     S
C1356  O1437   1.389   .     S
C1357  C1362   1.405   .     A
C1357  O1385   1.386   .     S
C1358  C1361   1.413   .     A
C1358  O1387   1.384   .     S
C1358  C1036   1.393   1_565 S
C1359  C1361   1.411   .     A
C1359  N1389   1.427   .     S
C1359  C1033   1.409   1_565 S
C1360  N1395   1.425   .     S
C1360  C1362   1.406   .     A
C1363  N1372   1.354   .     A
C1363  H1369   1.082   .     S
C1364  N1371   1.365   .     A
C1364  H1370   1.082   .     S
C1364  C394    1.430   1_556 S
C1365  O1401   1.374   .     S
C1365  N1371   1.390   .     A
C1365  C391    1.408   1_556 S
C1366  O1403   1.378   .     S
C1366  N1372   1.374   .     A
Cu1367 O1380   1.972   .     S
Cu1367 O1373   1.963   .     S
Cu1367 Cu1368  2.688   .     S
Cu1367 O1376   1.955   .     S
Cu1367 O1377   1.974   .     S
Cu1367 N1371   2.020   .     S
Cu1368 N1372   2.020   .     S
Cu1368 O1379   1.972   .     S
Cu1368 O1375   1.955   .     S
Cu1368 O1374   1.963   .     S
Cu1368 O1378   1.974   .     S
O1381  C1409   1.389   .     S
O1381  H1436   0.991   .     S
H1384  O1437   0.991   .     S
O1385  H1386   0.986   .     S
O1387  H1388   0.990   .     S
N1389  C1391   1.449   .     S
N1389  H1390   1.031   .     S
C1391  H1392   1.110   .     S
C1391  H1393   1.110   .     S
C1391  H1394   1.111   .     S
N1395  C1397   1.448   .     S
N1395  H1396   1.032   .     S
C1397  H1399   1.111   .     S
C1397  H1400   1.110   .     S
C1397  H1398   1.111   .     S
O1401  H1402   0.977   .     S
O1403  H1404   0.992   .     S
C1405  O1427   1.291   .     A
C1405  O1429   1.293   .     A
C1405  C1416   1.448   .     S
C1406  C1415   1.449   .     S
C1406  O1428   1.291   .     A
C1406  O1430   1.294   .     A
C1407  O1431   1.289   .     A
C1407  O1433   1.292   .     A
C1407  C1409   1.446   .     S
C1408  O1432   1.289   .     A
C1408  C1410   1.446   .     S
C1408  O1434   1.292   .     A
C1410  C1301   1.352   1_655 S
C1410  O1329   1.389   1_655 S
C1411  C1416   1.405   .     A
C1411  O1439   1.386   .     S
C1412  C1415   1.413   .     A
C1412  O1441   1.384   .     S
C1412  C1090   1.393   1_565 S
C1413  C1415   1.411   .     A
C1413  N1443   1.427   .     S
C1413  C1087   1.409   1_565 S
C1414  N1449   1.425   .     S
C1414  C1416   1.406   .     A
C1417  N1426   1.354   .     A
C1417  H1423   1.082   .     S
C1418  N1425   1.365   .     A
C1418  H1424   1.082   .     S
C1418  C448    1.430   1_556 S
C1419  O1455   1.374   .     S
C1419  N1425   1.390   .     A
C1419  C445    1.408   1_556 S
C1420  O1457   1.378   .     S
C1420  N1426   1.374   .     A
Cu1421 O1434   1.972   .     S
Cu1421 O1427   1.963   .     S
Cu1421 Cu1422  2.688   .     S
Cu1421 O1430   1.955   .     S
Cu1421 O1431   1.974   .     S
Cu1421 N1425   2.020   .     S
Cu1422 N1426   2.020   .     S
Cu1422 O1433   1.972   .     S
Cu1422 O1429   1.955   .     S
Cu1422 O1428   1.963   .     S
Cu1422 O1432   1.974   .     S
O1435  C1301   1.389   1_655 S
O1435  H1328   0.991   1_655 S
H1438  O1329   0.991   1_655 S
O1439  H1440   0.986   .     S
O1441  H1442   0.990   .     S
N1443  C1445   1.449   .     S
N1443  H1444   1.031   .     S
C1445  H1446   1.110   .     S
C1445  H1447   1.110   .     S
C1445  H1448   1.111   .     S
N1449  C1451   1.448   .     S
N1449  H1450   1.032   .     S
C1451  H1453   1.111   .     S
C1451  H1454   1.110   .     S
C1451  H1452   1.111   .     S
O1455  H1456   0.977   .     S
O1457  H1458   0.992   .     S
