data_str_m3_o2_o10_pcu_sym.167
_audit_creation_date              2020-01-03
_audit_creation_method            'Materials Studio'
_symmetry_space_group_name_H-M    'P1'
_symmetry_Int_Tables_number       1
_symmetry_cell_setting            triclinic
loop_
_symmetry_equiv_pos_as_xyz
  x,y,z
_cell_length_a                    25.8922
_cell_length_b                    29.8709
_cell_length_c                    28.4079
_cell_angle_alpha                 89.8394
_cell_angle_beta                  98.0231
_cell_angle_gamma                 90.3018
loop_
_atom_site_label
_atom_site_type_symbol
_atom_site_fract_x
_atom_site_fract_y
_atom_site_fract_z
_atom_site_U_iso_or_equiv
_atom_site_adp_type
_atom_site_occupancy
C1     C     0.16792   0.16396   0.25019   0.00000  Uiso   1.00
C2     C     0.16806   0.33606   0.25014   0.00000  Uiso   1.00
C3     C     0.14214   0.21538   0.04987   0.00000  Uiso   1.00
C4     C     0.20650   0.27187   0.45207   0.00000  Uiso   1.00
C5     C     0.14174   0.21663   0.09931   0.00000  Uiso   1.00
C6     C     0.20500   0.27215   0.40239   0.00000  Uiso   1.00
C7     C     0.19282   0.28273   0.10543   0.00000  Uiso   1.00
C8     C     0.12905   0.22695   0.39312   0.00000  Uiso   1.00
C9     C     0.19282   0.28331   0.05579   0.00000  Uiso   1.00
C10    C     0.12840   0.22698   0.44267   0.00000  Uiso   1.00
C11    C     0.16750   0.24931   0.02682   0.00000  Uiso   1.00
C12    C     0.16753   0.24939   0.47340   0.00000  Uiso   1.00
C13    C     0.06726   0.24889   0.23789   0.00000  Uiso   1.00
C14    C     0.26607   0.25115   0.26211   0.00000  Uiso   1.00
C15    C     0.01274   0.24217   0.23268   0.00000  Uiso   1.00
C16    C     0.32057   0.25797   0.26728   0.00000  Uiso   1.00
C17    C     0.14879   0.04506   0.28060   0.00000  Uiso   1.00
C18    C     0.15042   0.45469   0.21373   0.00000  Uiso   1.00
C19    C     0.14463   0.09109   0.27909   0.00000  Uiso   1.00
C20    C     0.14622   0.40863   0.21431   0.00000  Uiso   1.00
C21    C     0.17405   0.11624   0.25111   0.00000  Uiso   1.00
C22    C     0.17429   0.38387   0.25074   0.00000  Uiso   1.00
C23    C     0.21033   0.09608   0.22557   0.00000  Uiso   1.00
C24    C     0.20941   0.40451   0.28634   0.00000  Uiso   1.00
C25    C     0.21601   0.04975   0.22704   0.00000  Uiso   1.00
C26    C     0.21505   0.45090   0.28625   0.00000  Uiso   1.00
C27    C     0.18406   0.02423   0.25372   0.00000  Uiso   1.00
C28    C     0.18430   0.47598   0.25048   0.00000  Uiso   1.00
H29    H     0.11727   0.10732   0.29908   0.00000  Uiso   1.00
H30    H     0.11983   0.39209   0.18667   0.00000  Uiso   1.00
H31    H     0.12315   0.18747   0.03032   0.00000  Uiso   1.00
H32    H     0.23863   0.28876   0.47331   0.00000  Uiso   1.00
H33    H     0.12184   0.19049   0.11626   0.00000  Uiso   1.00
H34    H     0.23502   0.28976   0.38670   0.00000  Uiso   1.00
H35    H     0.21235   0.31071   0.04052   0.00000  Uiso   1.00
H36    H     0.09688   0.20969   0.45641   0.00000  Uiso   1.00
N37    N     0.16667   0.24999   0.12624   0.00000  Uiso   1.00
N38    N     0.16667   0.25001   0.37377   0.00000  Uiso   1.00
O39    O     0.16667   0.18454   0.28974   0.00000  Uiso   1.00
O40    O     0.16666   0.31547   0.21026   0.00000  Uiso   1.00
O41    O     0.16667   0.18453   0.21026   0.00000  Uiso   1.00
O42    O     0.16666   0.31547   0.28974   0.00000  Uiso   1.00
O43    O     0.09058   0.25000   0.28045   0.00000  Uiso   1.00
O44    O     0.24275   0.25000   0.21956   0.00000  Uiso   1.00
O45    O     0.09058   0.25000   0.20097   0.00000  Uiso   1.00
O46    O     0.24275   0.25001   0.29904   0.00000  Uiso   1.00
Zn47   Zn    0.16667   0.25001   0.30307   0.00000  Uiso   1.00
Zn48   Zn    0.16667   0.25000   0.19693   0.00000  Uiso   1.00
O49    O     0.32142   0.21620   0.19554   0.00000  Uiso   1.00
H50    H     0.01426   0.20455   0.17640   0.00000  Uiso   1.00
O51    O     0.01184   0.28412   0.30429   0.00000  Uiso   1.00
H52    H     0.31905   0.29543   0.32367   0.00000  Uiso   1.00
O53    O     0.11684   0.02216   0.30772   0.00000  Uiso   1.00
H54    H     0.12412   0.48974   0.30780   0.00000  Uiso   1.00
O55    O     0.11978   0.47716   0.17747   0.00000  Uiso   1.00
H56    H     0.12725   0.00962   0.17913   0.00000  Uiso   1.00
N57    N     0.24238   0.12300   0.19916   0.00000  Uiso   1.00
H58    H     0.28148   0.11707   0.21242   0.00000  Uiso   1.00
H59    H     0.23591   0.11283   0.16363   0.00000  Uiso   1.00
N60    N     0.24036   0.37805   0.32185   0.00000  Uiso   1.00
H61    H     0.23257   0.38829   0.35531   0.00000  Uiso   1.00
H62    H     0.27973   0.38434   0.31974   0.00000  Uiso   1.00
O63    O     0.25208   0.03100   0.20132   0.00000  Uiso   1.00
H64    H     0.25655   0.49882   0.20890   0.00000  Uiso   1.00
O65    O     0.24985   0.47013   0.32204   0.00000  Uiso   1.00
H66    H     0.25467   0.00229   0.31552   0.00000  Uiso   1.00
N67    N     0.22089   0.31635   0.13432   0.00000  Uiso   1.00
H68    H     0.26000   0.31498   0.12898   0.00000  Uiso   1.00
H69    H     0.20630   0.34761   0.12253   0.00000  Uiso   1.00
N70    N     0.09043   0.20214   0.36291   0.00000  Uiso   1.00
H71    H     0.05372   0.21382   0.36832   0.00000  Uiso   1.00
H72    H     0.09305   0.16859   0.37352   0.00000  Uiso   1.00
C73    C     0.50125   0.16396   0.25019   0.00000  Uiso   1.00
C74    C     0.50140   0.33606   0.25014   0.00000  Uiso   1.00
C75    C     0.47547   0.21538   0.04987   0.00000  Uiso   1.00
C76    C     0.53983   0.27187   0.45207   0.00000  Uiso   1.00
C77    C     0.47507   0.21663   0.09931   0.00000  Uiso   1.00
C78    C     0.53834   0.27215   0.40239   0.00000  Uiso   1.00
C79    C     0.52615   0.28273   0.10543   0.00000  Uiso   1.00
C80    C     0.46238   0.22695   0.39312   0.00000  Uiso   1.00
C81    C     0.52615   0.28331   0.05579   0.00000  Uiso   1.00
C82    C     0.46173   0.22698   0.44267   0.00000  Uiso   1.00
C83    C     0.50083   0.24931   0.02682   0.00000  Uiso   1.00
C84    C     0.50086   0.24939   0.47340   0.00000  Uiso   1.00
C85    C     0.40059   0.24889   0.23789   0.00000  Uiso   1.00
C86    C     0.59941   0.25115   0.26211   0.00000  Uiso   1.00
C87    C     0.34607   0.24217   0.23268   0.00000  Uiso   1.00
C88    C     0.65391   0.25797   0.26728   0.00000  Uiso   1.00
C89    C     0.48212   0.04506   0.28060   0.00000  Uiso   1.00
C90    C     0.48375   0.45469   0.21373   0.00000  Uiso   1.00
C91    C     0.47796   0.09109   0.27909   0.00000  Uiso   1.00
C92    C     0.47955   0.40863   0.21431   0.00000  Uiso   1.00
C93    C     0.50738   0.11624   0.25111   0.00000  Uiso   1.00
C94    C     0.50762   0.38387   0.25074   0.00000  Uiso   1.00
C95    C     0.54367   0.09608   0.22557   0.00000  Uiso   1.00
C96    C     0.54275   0.40451   0.28634   0.00000  Uiso   1.00
C97    C     0.54934   0.04975   0.22704   0.00000  Uiso   1.00
C98    C     0.54838   0.45090   0.28625   0.00000  Uiso   1.00
C99    C     0.51739   0.02423   0.25372   0.00000  Uiso   1.00
C100   C     0.51763   0.47598   0.25048   0.00000  Uiso   1.00
H101   H     0.45060   0.10732   0.29908   0.00000  Uiso   1.00
H102   H     0.45316   0.39209   0.18667   0.00000  Uiso   1.00
H103   H     0.45648   0.18747   0.03032   0.00000  Uiso   1.00
H104   H     0.57196   0.28876   0.47331   0.00000  Uiso   1.00
H105   H     0.45517   0.19049   0.11626   0.00000  Uiso   1.00
H106   H     0.56835   0.28976   0.38670   0.00000  Uiso   1.00
H107   H     0.54569   0.31071   0.04052   0.00000  Uiso   1.00
H108   H     0.43021   0.20969   0.45641   0.00000  Uiso   1.00
N109   N     0.50000   0.24999   0.12624   0.00000  Uiso   1.00
N110   N     0.50000   0.25001   0.37377   0.00000  Uiso   1.00
O111   O     0.50000   0.18454   0.28974   0.00000  Uiso   1.00
O112   O     0.50000   0.31547   0.21026   0.00000  Uiso   1.00
O113   O     0.50000   0.18453   0.21026   0.00000  Uiso   1.00
O114   O     0.50000   0.31547   0.28974   0.00000  Uiso   1.00
O115   O     0.42392   0.25000   0.28045   0.00000  Uiso   1.00
O116   O     0.57608   0.25000   0.21956   0.00000  Uiso   1.00
O117   O     0.42392   0.25000   0.20097   0.00000  Uiso   1.00
O118   O     0.57608   0.25001   0.29904   0.00000  Uiso   1.00
Zn119  Zn    0.50000   0.25001   0.30307   0.00000  Uiso   1.00
Zn120  Zn    0.50000   0.25000   0.19693   0.00000  Uiso   1.00
O121   O     0.65475   0.21620   0.19554   0.00000  Uiso   1.00
H122   H     0.34760   0.20455   0.17640   0.00000  Uiso   1.00
O123   O     0.34518   0.28412   0.30429   0.00000  Uiso   1.00
H124   H     0.65238   0.29543   0.32367   0.00000  Uiso   1.00
O125   O     0.45017   0.02216   0.30772   0.00000  Uiso   1.00
H126   H     0.45745   0.48974   0.30780   0.00000  Uiso   1.00
O127   O     0.45311   0.47716   0.17747   0.00000  Uiso   1.00
H128   H     0.46058   0.00962   0.17913   0.00000  Uiso   1.00
N129   N     0.57571   0.12300   0.19916   0.00000  Uiso   1.00
H130   H     0.61481   0.11707   0.21242   0.00000  Uiso   1.00
H131   H     0.56924   0.11283   0.16363   0.00000  Uiso   1.00
N132   N     0.57369   0.37805   0.32185   0.00000  Uiso   1.00
H133   H     0.56590   0.38829   0.35531   0.00000  Uiso   1.00
H134   H     0.61306   0.38434   0.31974   0.00000  Uiso   1.00
O135   O     0.58542   0.03100   0.20132   0.00000  Uiso   1.00
H136   H     0.58988   0.49882   0.20890   0.00000  Uiso   1.00
O137   O     0.58319   0.47013   0.32204   0.00000  Uiso   1.00
H138   H     0.58800   0.00229   0.31552   0.00000  Uiso   1.00
N139   N     0.55423   0.31635   0.13432   0.00000  Uiso   1.00
H140   H     0.59333   0.31498   0.12898   0.00000  Uiso   1.00
H141   H     0.53963   0.34761   0.12253   0.00000  Uiso   1.00
N142   N     0.42377   0.20214   0.36291   0.00000  Uiso   1.00
H143   H     0.38705   0.21382   0.36832   0.00000  Uiso   1.00
H144   H     0.42638   0.16859   0.37352   0.00000  Uiso   1.00
C145   C     0.83458   0.16396   0.25019   0.00000  Uiso   1.00
C146   C     0.83473   0.33606   0.25014   0.00000  Uiso   1.00
C147   C     0.80880   0.21538   0.04987   0.00000  Uiso   1.00
C148   C     0.87317   0.27187   0.45207   0.00000  Uiso   1.00
C149   C     0.80840   0.21663   0.09931   0.00000  Uiso   1.00
C150   C     0.87167   0.27215   0.40239   0.00000  Uiso   1.00
C151   C     0.85948   0.28273   0.10543   0.00000  Uiso   1.00
C152   C     0.79571   0.22695   0.39312   0.00000  Uiso   1.00
C153   C     0.85948   0.28331   0.05579   0.00000  Uiso   1.00
C154   C     0.79507   0.22698   0.44267   0.00000  Uiso   1.00
C155   C     0.83417   0.24931   0.02682   0.00000  Uiso   1.00
C156   C     0.83420   0.24939   0.47340   0.00000  Uiso   1.00
C157   C     0.73393   0.24889   0.23789   0.00000  Uiso   1.00
C158   C     0.93274   0.25115   0.26211   0.00000  Uiso   1.00
C159   C     0.67940   0.24217   0.23268   0.00000  Uiso   1.00
C160   C     0.98724   0.25797   0.26728   0.00000  Uiso   1.00
C161   C     0.81545   0.04506   0.28060   0.00000  Uiso   1.00
C162   C     0.81709   0.45469   0.21373   0.00000  Uiso   1.00
C163   C     0.81130   0.09109   0.27909   0.00000  Uiso   1.00
C164   C     0.81288   0.40863   0.21431   0.00000  Uiso   1.00
C165   C     0.84072   0.11624   0.25111   0.00000  Uiso   1.00
C166   C     0.84096   0.38387   0.25074   0.00000  Uiso   1.00
C167   C     0.87700   0.09608   0.22557   0.00000  Uiso   1.00
C168   C     0.87608   0.40451   0.28634   0.00000  Uiso   1.00
C169   C     0.88267   0.04975   0.22704   0.00000  Uiso   1.00
C170   C     0.88172   0.45090   0.28625   0.00000  Uiso   1.00
C171   C     0.85072   0.02423   0.25372   0.00000  Uiso   1.00
C172   C     0.85096   0.47598   0.25048   0.00000  Uiso   1.00
H173   H     0.78393   0.10732   0.29908   0.00000  Uiso   1.00
H174   H     0.78650   0.39209   0.18667   0.00000  Uiso   1.00
H175   H     0.78981   0.18747   0.03032   0.00000  Uiso   1.00
H176   H     0.90530   0.28876   0.47331   0.00000  Uiso   1.00
H177   H     0.78851   0.19049   0.11626   0.00000  Uiso   1.00
H178   H     0.90168   0.28976   0.38670   0.00000  Uiso   1.00
H179   H     0.87902   0.31071   0.04052   0.00000  Uiso   1.00
H180   H     0.76355   0.20969   0.45641   0.00000  Uiso   1.00
N181   N     0.83333   0.24999   0.12624   0.00000  Uiso   1.00
N182   N     0.83333   0.25001   0.37377   0.00000  Uiso   1.00
O183   O     0.83334   0.18454   0.28974   0.00000  Uiso   1.00
O184   O     0.83333   0.31547   0.21026   0.00000  Uiso   1.00
O185   O     0.83334   0.18453   0.21026   0.00000  Uiso   1.00
O186   O     0.83333   0.31547   0.28974   0.00000  Uiso   1.00
O187   O     0.75725   0.25000   0.28045   0.00000  Uiso   1.00
O188   O     0.90942   0.25000   0.21956   0.00000  Uiso   1.00
O189   O     0.75725   0.25000   0.20097   0.00000  Uiso   1.00
O190   O     0.90942   0.25001   0.29904   0.00000  Uiso   1.00
Zn191  Zn    0.83333   0.25001   0.30307   0.00000  Uiso   1.00
Zn192  Zn    0.83333   0.25000   0.19693   0.00000  Uiso   1.00
O193   O     0.98809   0.21620   0.19554   0.00000  Uiso   1.00
H194   H     0.68093   0.20455   0.17640   0.00000  Uiso   1.00
O195   O     0.67851   0.28412   0.30429   0.00000  Uiso   1.00
H196   H     0.98571   0.29543   0.32367   0.00000  Uiso   1.00
O197   O     0.78350   0.02216   0.30772   0.00000  Uiso   1.00
H198   H     0.79078   0.48974   0.30780   0.00000  Uiso   1.00
O199   O     0.78645   0.47716   0.17747   0.00000  Uiso   1.00
H200   H     0.79392   0.00962   0.17913   0.00000  Uiso   1.00
N201   N     0.90904   0.12300   0.19916   0.00000  Uiso   1.00
H202   H     0.94815   0.11707   0.21242   0.00000  Uiso   1.00
H203   H     0.90258   0.11283   0.16363   0.00000  Uiso   1.00
N204   N     0.90702   0.37805   0.32185   0.00000  Uiso   1.00
H205   H     0.89923   0.38829   0.35531   0.00000  Uiso   1.00
H206   H     0.94640   0.38434   0.31974   0.00000  Uiso   1.00
O207   O     0.91875   0.03100   0.20132   0.00000  Uiso   1.00
H208   H     0.92322   0.49882   0.20890   0.00000  Uiso   1.00
O209   O     0.91652   0.47013   0.32204   0.00000  Uiso   1.00
H210   H     0.92133   0.00229   0.31552   0.00000  Uiso   1.00
N211   N     0.88756   0.31635   0.13432   0.00000  Uiso   1.00
H212   H     0.92666   0.31498   0.12898   0.00000  Uiso   1.00
H213   H     0.87296   0.34761   0.12253   0.00000  Uiso   1.00
N214   N     0.75710   0.20214   0.36291   0.00000  Uiso   1.00
H215   H     0.72039   0.21382   0.36832   0.00000  Uiso   1.00
H216   H     0.75971   0.16859   0.37352   0.00000  Uiso   1.00
C217   C     0.16792   0.66396   0.25019   0.00000  Uiso   1.00
C218   C     0.16806   0.83606   0.25014   0.00000  Uiso   1.00
C219   C     0.14214   0.71538   0.04987   0.00000  Uiso   1.00
C220   C     0.20650   0.77187   0.45207   0.00000  Uiso   1.00
C221   C     0.14174   0.71663   0.09931   0.00000  Uiso   1.00
C222   C     0.20500   0.77215   0.40239   0.00000  Uiso   1.00
C223   C     0.19282   0.78273   0.10543   0.00000  Uiso   1.00
C224   C     0.12905   0.72695   0.39312   0.00000  Uiso   1.00
C225   C     0.19282   0.78331   0.05579   0.00000  Uiso   1.00
C226   C     0.12840   0.72698   0.44267   0.00000  Uiso   1.00
C227   C     0.16750   0.74931   0.02682   0.00000  Uiso   1.00
C228   C     0.16753   0.74939   0.47340   0.00000  Uiso   1.00
C229   C     0.06726   0.74889   0.23789   0.00000  Uiso   1.00
C230   C     0.26607   0.75115   0.26211   0.00000  Uiso   1.00
C231   C     0.01274   0.74217   0.23268   0.00000  Uiso   1.00
C232   C     0.32057   0.75797   0.26728   0.00000  Uiso   1.00
C233   C     0.14879   0.54506   0.28060   0.00000  Uiso   1.00
C234   C     0.15042   0.95469   0.21373   0.00000  Uiso   1.00
C235   C     0.14463   0.59109   0.27909   0.00000  Uiso   1.00
C236   C     0.14622   0.90863   0.21431   0.00000  Uiso   1.00
C237   C     0.17405   0.61624   0.25111   0.00000  Uiso   1.00
C238   C     0.17429   0.88387   0.25074   0.00000  Uiso   1.00
C239   C     0.21033   0.59608   0.22557   0.00000  Uiso   1.00
C240   C     0.20941   0.90451   0.28634   0.00000  Uiso   1.00
C241   C     0.21601   0.54975   0.22704   0.00000  Uiso   1.00
C242   C     0.21505   0.95090   0.28625   0.00000  Uiso   1.00
C243   C     0.18406   0.52423   0.25372   0.00000  Uiso   1.00
C244   C     0.18430   0.97598   0.25048   0.00000  Uiso   1.00
H245   H     0.11727   0.60732   0.29908   0.00000  Uiso   1.00
H246   H     0.11983   0.89209   0.18667   0.00000  Uiso   1.00
H247   H     0.12315   0.68747   0.03032   0.00000  Uiso   1.00
H248   H     0.23863   0.78876   0.47331   0.00000  Uiso   1.00
H249   H     0.12184   0.69049   0.11626   0.00000  Uiso   1.00
H250   H     0.23502   0.78976   0.38670   0.00000  Uiso   1.00
H251   H     0.21235   0.81071   0.04052   0.00000  Uiso   1.00
H252   H     0.09688   0.70969   0.45641   0.00000  Uiso   1.00
N253   N     0.16667   0.74999   0.12624   0.00000  Uiso   1.00
N254   N     0.16667   0.75001   0.37377   0.00000  Uiso   1.00
O255   O     0.16667   0.68454   0.28974   0.00000  Uiso   1.00
O256   O     0.16666   0.81547   0.21026   0.00000  Uiso   1.00
O257   O     0.16667   0.68453   0.21026   0.00000  Uiso   1.00
O258   O     0.16666   0.81547   0.28974   0.00000  Uiso   1.00
O259   O     0.09058   0.75000   0.28045   0.00000  Uiso   1.00
O260   O     0.24275   0.75000   0.21956   0.00000  Uiso   1.00
O261   O     0.09058   0.75000   0.20097   0.00000  Uiso   1.00
O262   O     0.24275   0.75001   0.29904   0.00000  Uiso   1.00
Zn263  Zn    0.16667   0.75001   0.30307   0.00000  Uiso   1.00
Zn264  Zn    0.16667   0.75000   0.19693   0.00000  Uiso   1.00
O265   O     0.32142   0.71620   0.19554   0.00000  Uiso   1.00
H266   H     0.01426   0.70455   0.17640   0.00000  Uiso   1.00
O267   O     0.01184   0.78412   0.30429   0.00000  Uiso   1.00
H268   H     0.31905   0.79543   0.32367   0.00000  Uiso   1.00
O269   O     0.11684   0.52216   0.30772   0.00000  Uiso   1.00
H270   H     0.12412   0.98974   0.30780   0.00000  Uiso   1.00
O271   O     0.11978   0.97716   0.17747   0.00000  Uiso   1.00
H272   H     0.12725   0.50962   0.17913   0.00000  Uiso   1.00
N273   N     0.24238   0.62300   0.19916   0.00000  Uiso   1.00
H274   H     0.28148   0.61707   0.21242   0.00000  Uiso   1.00
H275   H     0.23591   0.61283   0.16363   0.00000  Uiso   1.00
N276   N     0.24036   0.87805   0.32185   0.00000  Uiso   1.00
H277   H     0.23257   0.88829   0.35531   0.00000  Uiso   1.00
H278   H     0.27973   0.88434   0.31974   0.00000  Uiso   1.00
O279   O     0.25208   0.53100   0.20132   0.00000  Uiso   1.00
H280   H     0.25655   0.99882   0.20890   0.00000  Uiso   1.00
O281   O     0.24985   0.97013   0.32204   0.00000  Uiso   1.00
H282   H     0.25467   0.50229   0.31552   0.00000  Uiso   1.00
N283   N     0.22089   0.81635   0.13432   0.00000  Uiso   1.00
H284   H     0.26000   0.81498   0.12898   0.00000  Uiso   1.00
H285   H     0.20630   0.84761   0.12253   0.00000  Uiso   1.00
N286   N     0.09043   0.70214   0.36291   0.00000  Uiso   1.00
H287   H     0.05372   0.71382   0.36832   0.00000  Uiso   1.00
H288   H     0.09305   0.66859   0.37352   0.00000  Uiso   1.00
C289   C     0.50125   0.66396   0.25019   0.00000  Uiso   1.00
C290   C     0.50140   0.83606   0.25014   0.00000  Uiso   1.00
C291   C     0.47547   0.71538   0.04987   0.00000  Uiso   1.00
C292   C     0.53983   0.77187   0.45207   0.00000  Uiso   1.00
C293   C     0.47507   0.71663   0.09931   0.00000  Uiso   1.00
C294   C     0.53834   0.77215   0.40239   0.00000  Uiso   1.00
C295   C     0.52615   0.78273   0.10543   0.00000  Uiso   1.00
C296   C     0.46238   0.72695   0.39312   0.00000  Uiso   1.00
C297   C     0.52615   0.78331   0.05579   0.00000  Uiso   1.00
C298   C     0.46173   0.72698   0.44267   0.00000  Uiso   1.00
C299   C     0.50083   0.74931   0.02682   0.00000  Uiso   1.00
C300   C     0.50086   0.74939   0.47340   0.00000  Uiso   1.00
C301   C     0.40059   0.74889   0.23789   0.00000  Uiso   1.00
C302   C     0.59941   0.75115   0.26211   0.00000  Uiso   1.00
C303   C     0.34607   0.74217   0.23268   0.00000  Uiso   1.00
C304   C     0.65391   0.75797   0.26728   0.00000  Uiso   1.00
C305   C     0.48212   0.54506   0.28060   0.00000  Uiso   1.00
C306   C     0.48375   0.95469   0.21373   0.00000  Uiso   1.00
C307   C     0.47796   0.59109   0.27909   0.00000  Uiso   1.00
C308   C     0.47955   0.90863   0.21431   0.00000  Uiso   1.00
C309   C     0.50738   0.61624   0.25111   0.00000  Uiso   1.00
C310   C     0.50762   0.88387   0.25074   0.00000  Uiso   1.00
C311   C     0.54367   0.59608   0.22557   0.00000  Uiso   1.00
C312   C     0.54275   0.90451   0.28634   0.00000  Uiso   1.00
C313   C     0.54934   0.54975   0.22704   0.00000  Uiso   1.00
C314   C     0.54838   0.95090   0.28625   0.00000  Uiso   1.00
C315   C     0.51739   0.52423   0.25372   0.00000  Uiso   1.00
C316   C     0.51763   0.97598   0.25048   0.00000  Uiso   1.00
H317   H     0.45060   0.60732   0.29908   0.00000  Uiso   1.00
H318   H     0.45316   0.89209   0.18667   0.00000  Uiso   1.00
H319   H     0.45648   0.68747   0.03032   0.00000  Uiso   1.00
H320   H     0.57196   0.78876   0.47331   0.00000  Uiso   1.00
H321   H     0.45517   0.69049   0.11626   0.00000  Uiso   1.00
H322   H     0.56835   0.78976   0.38670   0.00000  Uiso   1.00
H323   H     0.54569   0.81071   0.04052   0.00000  Uiso   1.00
H324   H     0.43021   0.70969   0.45641   0.00000  Uiso   1.00
N325   N     0.50000   0.74999   0.12624   0.00000  Uiso   1.00
N326   N     0.50000   0.75001   0.37377   0.00000  Uiso   1.00
O327   O     0.50000   0.68454   0.28974   0.00000  Uiso   1.00
O328   O     0.50000   0.81547   0.21026   0.00000  Uiso   1.00
O329   O     0.50000   0.68453   0.21026   0.00000  Uiso   1.00
O330   O     0.50000   0.81547   0.28974   0.00000  Uiso   1.00
O331   O     0.42392   0.75000   0.28045   0.00000  Uiso   1.00
O332   O     0.57608   0.75000   0.21956   0.00000  Uiso   1.00
O333   O     0.42392   0.75000   0.20097   0.00000  Uiso   1.00
O334   O     0.57608   0.75001   0.29904   0.00000  Uiso   1.00
Zn335  Zn    0.50000   0.75001   0.30307   0.00000  Uiso   1.00
Zn336  Zn    0.50000   0.75000   0.19693   0.00000  Uiso   1.00
O337   O     0.65475   0.71620   0.19554   0.00000  Uiso   1.00
H338   H     0.34760   0.70455   0.17640   0.00000  Uiso   1.00
O339   O     0.34518   0.78412   0.30429   0.00000  Uiso   1.00
H340   H     0.65238   0.79543   0.32367   0.00000  Uiso   1.00
O341   O     0.45017   0.52216   0.30772   0.00000  Uiso   1.00
H342   H     0.45745   0.98974   0.30780   0.00000  Uiso   1.00
O343   O     0.45311   0.97716   0.17747   0.00000  Uiso   1.00
H344   H     0.46058   0.50962   0.17913   0.00000  Uiso   1.00
N345   N     0.57571   0.62300   0.19916   0.00000  Uiso   1.00
H346   H     0.61481   0.61707   0.21242   0.00000  Uiso   1.00
H347   H     0.56924   0.61283   0.16363   0.00000  Uiso   1.00
N348   N     0.57369   0.87805   0.32185   0.00000  Uiso   1.00
H349   H     0.56590   0.88829   0.35531   0.00000  Uiso   1.00
H350   H     0.61306   0.88434   0.31974   0.00000  Uiso   1.00
O351   O     0.58542   0.53100   0.20132   0.00000  Uiso   1.00
H352   H     0.58988   0.99882   0.20890   0.00000  Uiso   1.00
O353   O     0.58319   0.97013   0.32204   0.00000  Uiso   1.00
H354   H     0.58800   0.50229   0.31552   0.00000  Uiso   1.00
N355   N     0.55423   0.81635   0.13432   0.00000  Uiso   1.00
H356   H     0.59333   0.81498   0.12898   0.00000  Uiso   1.00
H357   H     0.53963   0.84761   0.12253   0.00000  Uiso   1.00
N358   N     0.42377   0.70214   0.36291   0.00000  Uiso   1.00
H359   H     0.38705   0.71382   0.36832   0.00000  Uiso   1.00
H360   H     0.42638   0.66859   0.37352   0.00000  Uiso   1.00
C361   C     0.83458   0.66396   0.25019   0.00000  Uiso   1.00
C362   C     0.83473   0.83606   0.25014   0.00000  Uiso   1.00
C363   C     0.80880   0.71538   0.04987   0.00000  Uiso   1.00
C364   C     0.87317   0.77187   0.45207   0.00000  Uiso   1.00
C365   C     0.80840   0.71663   0.09931   0.00000  Uiso   1.00
C366   C     0.87167   0.77215   0.40239   0.00000  Uiso   1.00
C367   C     0.85948   0.78273   0.10543   0.00000  Uiso   1.00
C368   C     0.79571   0.72695   0.39312   0.00000  Uiso   1.00
C369   C     0.85948   0.78331   0.05579   0.00000  Uiso   1.00
C370   C     0.79507   0.72698   0.44267   0.00000  Uiso   1.00
C371   C     0.83417   0.74931   0.02682   0.00000  Uiso   1.00
C372   C     0.83420   0.74939   0.47340   0.00000  Uiso   1.00
C373   C     0.73393   0.74889   0.23789   0.00000  Uiso   1.00
C374   C     0.93274   0.75115   0.26211   0.00000  Uiso   1.00
C375   C     0.67940   0.74217   0.23268   0.00000  Uiso   1.00
C376   C     0.98724   0.75797   0.26728   0.00000  Uiso   1.00
C377   C     0.81545   0.54506   0.28060   0.00000  Uiso   1.00
C378   C     0.81709   0.95469   0.21373   0.00000  Uiso   1.00
C379   C     0.81130   0.59109   0.27909   0.00000  Uiso   1.00
C380   C     0.81288   0.90863   0.21431   0.00000  Uiso   1.00
C381   C     0.84072   0.61624   0.25111   0.00000  Uiso   1.00
C382   C     0.84096   0.88387   0.25074   0.00000  Uiso   1.00
C383   C     0.87700   0.59608   0.22557   0.00000  Uiso   1.00
C384   C     0.87608   0.90451   0.28634   0.00000  Uiso   1.00
C385   C     0.88267   0.54975   0.22704   0.00000  Uiso   1.00
C386   C     0.88172   0.95090   0.28625   0.00000  Uiso   1.00
C387   C     0.85072   0.52423   0.25372   0.00000  Uiso   1.00
C388   C     0.85096   0.97598   0.25048   0.00000  Uiso   1.00
H389   H     0.78393   0.60732   0.29908   0.00000  Uiso   1.00
H390   H     0.78650   0.89209   0.18667   0.00000  Uiso   1.00
H391   H     0.78981   0.68747   0.03032   0.00000  Uiso   1.00
H392   H     0.90530   0.78876   0.47331   0.00000  Uiso   1.00
H393   H     0.78851   0.69049   0.11626   0.00000  Uiso   1.00
H394   H     0.90168   0.78976   0.38670   0.00000  Uiso   1.00
H395   H     0.87902   0.81071   0.04052   0.00000  Uiso   1.00
H396   H     0.76355   0.70969   0.45641   0.00000  Uiso   1.00
N397   N     0.83333   0.74999   0.12624   0.00000  Uiso   1.00
N398   N     0.83333   0.75001   0.37377   0.00000  Uiso   1.00
O399   O     0.83334   0.68454   0.28974   0.00000  Uiso   1.00
O400   O     0.83333   0.81547   0.21026   0.00000  Uiso   1.00
O401   O     0.83334   0.68453   0.21026   0.00000  Uiso   1.00
O402   O     0.83333   0.81547   0.28974   0.00000  Uiso   1.00
O403   O     0.75725   0.75000   0.28045   0.00000  Uiso   1.00
O404   O     0.90942   0.75000   0.21956   0.00000  Uiso   1.00
O405   O     0.75725   0.75000   0.20097   0.00000  Uiso   1.00
O406   O     0.90942   0.75001   0.29904   0.00000  Uiso   1.00
Zn407  Zn    0.83333   0.75001   0.30307   0.00000  Uiso   1.00
Zn408  Zn    0.83333   0.75000   0.19693   0.00000  Uiso   1.00
O409   O     0.98809   0.71620   0.19554   0.00000  Uiso   1.00
H410   H     0.68093   0.70455   0.17640   0.00000  Uiso   1.00
O411   O     0.67851   0.78412   0.30429   0.00000  Uiso   1.00
H412   H     0.98571   0.79543   0.32367   0.00000  Uiso   1.00
O413   O     0.78350   0.52216   0.30772   0.00000  Uiso   1.00
H414   H     0.79078   0.98974   0.30780   0.00000  Uiso   1.00
O415   O     0.78645   0.97716   0.17747   0.00000  Uiso   1.00
H416   H     0.79392   0.50962   0.17913   0.00000  Uiso   1.00
N417   N     0.90904   0.62300   0.19916   0.00000  Uiso   1.00
H418   H     0.94815   0.61707   0.21242   0.00000  Uiso   1.00
H419   H     0.90258   0.61283   0.16363   0.00000  Uiso   1.00
N420   N     0.90702   0.87805   0.32185   0.00000  Uiso   1.00
H421   H     0.89923   0.88829   0.35531   0.00000  Uiso   1.00
H422   H     0.94640   0.88434   0.31974   0.00000  Uiso   1.00
O423   O     0.91875   0.53100   0.20132   0.00000  Uiso   1.00
H424   H     0.92322   0.99882   0.20890   0.00000  Uiso   1.00
O425   O     0.91652   0.97013   0.32204   0.00000  Uiso   1.00
H426   H     0.92133   0.50229   0.31552   0.00000  Uiso   1.00
N427   N     0.88756   0.81635   0.13432   0.00000  Uiso   1.00
H428   H     0.92666   0.81498   0.12898   0.00000  Uiso   1.00
H429   H     0.87296   0.84761   0.12253   0.00000  Uiso   1.00
N430   N     0.75710   0.70214   0.36291   0.00000  Uiso   1.00
H431   H     0.72039   0.71382   0.36832   0.00000  Uiso   1.00
H432   H     0.75971   0.66859   0.37352   0.00000  Uiso   1.00
C433   C     0.16792   0.16396   0.75019   0.00000  Uiso   1.00
C434   C     0.16806   0.33606   0.75014   0.00000  Uiso   1.00
C435   C     0.14214   0.21538   0.54987   0.00000  Uiso   1.00
C436   C     0.20650   0.27187   0.95207   0.00000  Uiso   1.00
C437   C     0.14174   0.21663   0.59931   0.00000  Uiso   1.00
C438   C     0.20500   0.27215   0.90239   0.00000  Uiso   1.00
C439   C     0.19282   0.28273   0.60543   0.00000  Uiso   1.00
C440   C     0.12905   0.22695   0.89312   0.00000  Uiso   1.00
C441   C     0.19282   0.28331   0.55579   0.00000  Uiso   1.00
C442   C     0.12840   0.22698   0.94267   0.00000  Uiso   1.00
C443   C     0.16750   0.24931   0.52682   0.00000  Uiso   1.00
C444   C     0.16753   0.24939   0.97340   0.00000  Uiso   1.00
C445   C     0.06726   0.24889   0.73789   0.00000  Uiso   1.00
C446   C     0.26607   0.25115   0.76211   0.00000  Uiso   1.00
C447   C     0.01274   0.24217   0.73268   0.00000  Uiso   1.00
C448   C     0.32057   0.25797   0.76728   0.00000  Uiso   1.00
C449   C     0.14879   0.04506   0.78060   0.00000  Uiso   1.00
C450   C     0.15042   0.45469   0.71373   0.00000  Uiso   1.00
C451   C     0.14463   0.09109   0.77909   0.00000  Uiso   1.00
C452   C     0.14622   0.40863   0.71431   0.00000  Uiso   1.00
C453   C     0.17405   0.11624   0.75111   0.00000  Uiso   1.00
C454   C     0.17429   0.38387   0.75074   0.00000  Uiso   1.00
C455   C     0.21033   0.09608   0.72557   0.00000  Uiso   1.00
C456   C     0.20941   0.40451   0.78634   0.00000  Uiso   1.00
C457   C     0.21601   0.04975   0.72704   0.00000  Uiso   1.00
C458   C     0.21505   0.45090   0.78625   0.00000  Uiso   1.00
C459   C     0.18406   0.02423   0.75372   0.00000  Uiso   1.00
C460   C     0.18430   0.47598   0.75048   0.00000  Uiso   1.00
H461   H     0.11727   0.10732   0.79908   0.00000  Uiso   1.00
H462   H     0.11983   0.39209   0.68667   0.00000  Uiso   1.00
H463   H     0.12315   0.18747   0.53032   0.00000  Uiso   1.00
H464   H     0.23863   0.28876   0.97331   0.00000  Uiso   1.00
H465   H     0.12184   0.19049   0.61626   0.00000  Uiso   1.00
H466   H     0.23502   0.28976   0.88670   0.00000  Uiso   1.00
H467   H     0.21235   0.31071   0.54052   0.00000  Uiso   1.00
H468   H     0.09688   0.20969   0.95641   0.00000  Uiso   1.00
N469   N     0.16667   0.24999   0.62624   0.00000  Uiso   1.00
N470   N     0.16667   0.25001   0.87377   0.00000  Uiso   1.00
O471   O     0.16667   0.18454   0.78974   0.00000  Uiso   1.00
O472   O     0.16666   0.31547   0.71026   0.00000  Uiso   1.00
O473   O     0.16667   0.18453   0.71026   0.00000  Uiso   1.00
O474   O     0.16666   0.31547   0.78974   0.00000  Uiso   1.00
O475   O     0.09058   0.25000   0.78045   0.00000  Uiso   1.00
O476   O     0.24275   0.25000   0.71956   0.00000  Uiso   1.00
O477   O     0.09058   0.25000   0.70097   0.00000  Uiso   1.00
O478   O     0.24275   0.25001   0.79904   0.00000  Uiso   1.00
Zn479  Zn    0.16667   0.25001   0.80307   0.00000  Uiso   1.00
Zn480  Zn    0.16667   0.25000   0.69693   0.00000  Uiso   1.00
O481   O     0.32142   0.21620   0.69554   0.00000  Uiso   1.00
H482   H     0.01426   0.20455   0.67640   0.00000  Uiso   1.00
O483   O     0.01184   0.28412   0.80429   0.00000  Uiso   1.00
H484   H     0.31905   0.29543   0.82367   0.00000  Uiso   1.00
O485   O     0.11684   0.02216   0.80772   0.00000  Uiso   1.00
H486   H     0.12412   0.48974   0.80780   0.00000  Uiso   1.00
O487   O     0.11978   0.47716   0.67747   0.00000  Uiso   1.00
H488   H     0.12725   0.00962   0.67913   0.00000  Uiso   1.00
N489   N     0.24238   0.12300   0.69916   0.00000  Uiso   1.00
H490   H     0.28148   0.11707   0.71242   0.00000  Uiso   1.00
H491   H     0.23591   0.11283   0.66363   0.00000  Uiso   1.00
N492   N     0.24036   0.37805   0.82185   0.00000  Uiso   1.00
H493   H     0.23257   0.38829   0.85531   0.00000  Uiso   1.00
H494   H     0.27973   0.38434   0.81974   0.00000  Uiso   1.00
O495   O     0.25208   0.03100   0.70132   0.00000  Uiso   1.00
H496   H     0.25655   0.49882   0.70890   0.00000  Uiso   1.00
O497   O     0.24985   0.47013   0.82204   0.00000  Uiso   1.00
H498   H     0.25467   0.00229   0.81552   0.00000  Uiso   1.00
N499   N     0.22089   0.31635   0.63432   0.00000  Uiso   1.00
H500   H     0.26000   0.31498   0.62898   0.00000  Uiso   1.00
H501   H     0.20630   0.34761   0.62253   0.00000  Uiso   1.00
N502   N     0.09043   0.20214   0.86291   0.00000  Uiso   1.00
H503   H     0.05372   0.21382   0.86832   0.00000  Uiso   1.00
H504   H     0.09305   0.16859   0.87352   0.00000  Uiso   1.00
C505   C     0.50125   0.16396   0.75019   0.00000  Uiso   1.00
C506   C     0.50140   0.33606   0.75014   0.00000  Uiso   1.00
C507   C     0.47547   0.21538   0.54987   0.00000  Uiso   1.00
C508   C     0.53983   0.27187   0.95207   0.00000  Uiso   1.00
C509   C     0.47507   0.21663   0.59931   0.00000  Uiso   1.00
C510   C     0.53834   0.27215   0.90239   0.00000  Uiso   1.00
C511   C     0.52615   0.28273   0.60543   0.00000  Uiso   1.00
C512   C     0.46238   0.22695   0.89312   0.00000  Uiso   1.00
C513   C     0.52615   0.28331   0.55579   0.00000  Uiso   1.00
C514   C     0.46173   0.22698   0.94267   0.00000  Uiso   1.00
C515   C     0.50083   0.24931   0.52682   0.00000  Uiso   1.00
C516   C     0.50086   0.24939   0.97340   0.00000  Uiso   1.00
C517   C     0.40059   0.24889   0.73789   0.00000  Uiso   1.00
C518   C     0.59941   0.25115   0.76211   0.00000  Uiso   1.00
C519   C     0.34607   0.24217   0.73268   0.00000  Uiso   1.00
C520   C     0.65391   0.25797   0.76728   0.00000  Uiso   1.00
C521   C     0.48212   0.04506   0.78060   0.00000  Uiso   1.00
C522   C     0.48375   0.45469   0.71373   0.00000  Uiso   1.00
C523   C     0.47796   0.09109   0.77909   0.00000  Uiso   1.00
C524   C     0.47955   0.40863   0.71431   0.00000  Uiso   1.00
C525   C     0.50738   0.11624   0.75111   0.00000  Uiso   1.00
C526   C     0.50762   0.38387   0.75074   0.00000  Uiso   1.00
C527   C     0.54367   0.09608   0.72557   0.00000  Uiso   1.00
C528   C     0.54275   0.40451   0.78634   0.00000  Uiso   1.00
C529   C     0.54934   0.04975   0.72704   0.00000  Uiso   1.00
C530   C     0.54838   0.45090   0.78625   0.00000  Uiso   1.00
C531   C     0.51739   0.02423   0.75372   0.00000  Uiso   1.00
C532   C     0.51763   0.47598   0.75048   0.00000  Uiso   1.00
H533   H     0.45060   0.10732   0.79908   0.00000  Uiso   1.00
H534   H     0.45316   0.39209   0.68667   0.00000  Uiso   1.00
H535   H     0.45648   0.18747   0.53032   0.00000  Uiso   1.00
H536   H     0.57196   0.28876   0.97331   0.00000  Uiso   1.00
H537   H     0.45517   0.19049   0.61626   0.00000  Uiso   1.00
H538   H     0.56835   0.28976   0.88670   0.00000  Uiso   1.00
H539   H     0.54569   0.31071   0.54052   0.00000  Uiso   1.00
H540   H     0.43021   0.20969   0.95641   0.00000  Uiso   1.00
N541   N     0.50000   0.24999   0.62624   0.00000  Uiso   1.00
N542   N     0.50000   0.25001   0.87377   0.00000  Uiso   1.00
O543   O     0.50000   0.18454   0.78974   0.00000  Uiso   1.00
O544   O     0.50000   0.31547   0.71026   0.00000  Uiso   1.00
O545   O     0.50000   0.18453   0.71026   0.00000  Uiso   1.00
O546   O     0.50000   0.31547   0.78974   0.00000  Uiso   1.00
O547   O     0.42392   0.25000   0.78045   0.00000  Uiso   1.00
O548   O     0.57608   0.25000   0.71956   0.00000  Uiso   1.00
O549   O     0.42392   0.25000   0.70097   0.00000  Uiso   1.00
O550   O     0.57608   0.25001   0.79904   0.00000  Uiso   1.00
Zn551  Zn    0.50000   0.25001   0.80307   0.00000  Uiso   1.00
Zn552  Zn    0.50000   0.25000   0.69693   0.00000  Uiso   1.00
O553   O     0.65475   0.21620   0.69554   0.00000  Uiso   1.00
H554   H     0.34760   0.20455   0.67640   0.00000  Uiso   1.00
O555   O     0.34518   0.28412   0.80429   0.00000  Uiso   1.00
H556   H     0.65238   0.29543   0.82367   0.00000  Uiso   1.00
O557   O     0.45017   0.02216   0.80772   0.00000  Uiso   1.00
H558   H     0.45745   0.48974   0.80780   0.00000  Uiso   1.00
O559   O     0.45311   0.47716   0.67747   0.00000  Uiso   1.00
H560   H     0.46058   0.00962   0.67913   0.00000  Uiso   1.00
N561   N     0.57571   0.12300   0.69916   0.00000  Uiso   1.00
H562   H     0.61481   0.11707   0.71242   0.00000  Uiso   1.00
H563   H     0.56924   0.11283   0.66363   0.00000  Uiso   1.00
N564   N     0.57369   0.37805   0.82185   0.00000  Uiso   1.00
H565   H     0.56590   0.38829   0.85531   0.00000  Uiso   1.00
H566   H     0.61306   0.38434   0.81974   0.00000  Uiso   1.00
O567   O     0.58542   0.03100   0.70132   0.00000  Uiso   1.00
H568   H     0.58988   0.49882   0.70890   0.00000  Uiso   1.00
O569   O     0.58319   0.47013   0.82204   0.00000  Uiso   1.00
H570   H     0.58800   0.00229   0.81552   0.00000  Uiso   1.00
N571   N     0.55423   0.31635   0.63432   0.00000  Uiso   1.00
H572   H     0.59333   0.31498   0.62898   0.00000  Uiso   1.00
H573   H     0.53963   0.34761   0.62253   0.00000  Uiso   1.00
N574   N     0.42377   0.20214   0.86291   0.00000  Uiso   1.00
H575   H     0.38705   0.21382   0.86832   0.00000  Uiso   1.00
H576   H     0.42638   0.16859   0.87352   0.00000  Uiso   1.00
C577   C     0.83458   0.16396   0.75019   0.00000  Uiso   1.00
C578   C     0.83473   0.33606   0.75014   0.00000  Uiso   1.00
C579   C     0.80880   0.21538   0.54987   0.00000  Uiso   1.00
C580   C     0.87317   0.27187   0.95207   0.00000  Uiso   1.00
C581   C     0.80840   0.21663   0.59931   0.00000  Uiso   1.00
C582   C     0.87167   0.27215   0.90239   0.00000  Uiso   1.00
C583   C     0.85948   0.28273   0.60543   0.00000  Uiso   1.00
C584   C     0.79571   0.22695   0.89312   0.00000  Uiso   1.00
C585   C     0.85948   0.28331   0.55579   0.00000  Uiso   1.00
C586   C     0.79507   0.22698   0.94267   0.00000  Uiso   1.00
C587   C     0.83417   0.24931   0.52682   0.00000  Uiso   1.00
C588   C     0.83420   0.24939   0.97340   0.00000  Uiso   1.00
C589   C     0.73393   0.24889   0.73789   0.00000  Uiso   1.00
C590   C     0.93274   0.25115   0.76211   0.00000  Uiso   1.00
C591   C     0.67940   0.24217   0.73268   0.00000  Uiso   1.00
C592   C     0.98724   0.25797   0.76728   0.00000  Uiso   1.00
C593   C     0.81545   0.04506   0.78060   0.00000  Uiso   1.00
C594   C     0.81709   0.45469   0.71373   0.00000  Uiso   1.00
C595   C     0.81130   0.09109   0.77909   0.00000  Uiso   1.00
C596   C     0.81288   0.40863   0.71431   0.00000  Uiso   1.00
C597   C     0.84072   0.11624   0.75111   0.00000  Uiso   1.00
C598   C     0.84096   0.38387   0.75074   0.00000  Uiso   1.00
C599   C     0.87700   0.09608   0.72557   0.00000  Uiso   1.00
C600   C     0.87608   0.40451   0.78634   0.00000  Uiso   1.00
C601   C     0.88267   0.04975   0.72704   0.00000  Uiso   1.00
C602   C     0.88172   0.45090   0.78625   0.00000  Uiso   1.00
C603   C     0.85072   0.02423   0.75372   0.00000  Uiso   1.00
C604   C     0.85096   0.47598   0.75048   0.00000  Uiso   1.00
H605   H     0.78393   0.10732   0.79908   0.00000  Uiso   1.00
H606   H     0.78650   0.39209   0.68667   0.00000  Uiso   1.00
H607   H     0.78981   0.18747   0.53032   0.00000  Uiso   1.00
H608   H     0.90530   0.28876   0.97331   0.00000  Uiso   1.00
H609   H     0.78851   0.19049   0.61626   0.00000  Uiso   1.00
H610   H     0.90168   0.28976   0.88670   0.00000  Uiso   1.00
H611   H     0.87902   0.31071   0.54052   0.00000  Uiso   1.00
H612   H     0.76355   0.20969   0.95641   0.00000  Uiso   1.00
N613   N     0.83333   0.24999   0.62624   0.00000  Uiso   1.00
N614   N     0.83333   0.25001   0.87377   0.00000  Uiso   1.00
O615   O     0.83334   0.18454   0.78974   0.00000  Uiso   1.00
O616   O     0.83333   0.31547   0.71026   0.00000  Uiso   1.00
O617   O     0.83334   0.18453   0.71026   0.00000  Uiso   1.00
O618   O     0.83333   0.31547   0.78974   0.00000  Uiso   1.00
O619   O     0.75725   0.25000   0.78045   0.00000  Uiso   1.00
O620   O     0.90942   0.25000   0.71956   0.00000  Uiso   1.00
O621   O     0.75725   0.25000   0.70097   0.00000  Uiso   1.00
O622   O     0.90942   0.25001   0.79904   0.00000  Uiso   1.00
Zn623  Zn    0.83333   0.25001   0.80307   0.00000  Uiso   1.00
Zn624  Zn    0.83333   0.25000   0.69693   0.00000  Uiso   1.00
O625   O     0.98809   0.21620   0.69554   0.00000  Uiso   1.00
H626   H     0.68093   0.20455   0.67640   0.00000  Uiso   1.00
O627   O     0.67851   0.28412   0.80429   0.00000  Uiso   1.00
H628   H     0.98571   0.29543   0.82367   0.00000  Uiso   1.00
O629   O     0.78350   0.02216   0.80772   0.00000  Uiso   1.00
H630   H     0.79078   0.48974   0.80780   0.00000  Uiso   1.00
O631   O     0.78645   0.47716   0.67747   0.00000  Uiso   1.00
H632   H     0.79392   0.00962   0.67913   0.00000  Uiso   1.00
N633   N     0.90904   0.12300   0.69916   0.00000  Uiso   1.00
H634   H     0.94815   0.11707   0.71242   0.00000  Uiso   1.00
H635   H     0.90258   0.11283   0.66363   0.00000  Uiso   1.00
N636   N     0.90702   0.37805   0.82185   0.00000  Uiso   1.00
H637   H     0.89923   0.38829   0.85531   0.00000  Uiso   1.00
H638   H     0.94640   0.38434   0.81974   0.00000  Uiso   1.00
O639   O     0.91875   0.03100   0.70132   0.00000  Uiso   1.00
H640   H     0.92322   0.49882   0.70890   0.00000  Uiso   1.00
O641   O     0.91652   0.47013   0.82204   0.00000  Uiso   1.00
H642   H     0.92133   0.00229   0.81552   0.00000  Uiso   1.00
N643   N     0.88756   0.31635   0.63432   0.00000  Uiso   1.00
H644   H     0.92666   0.31498   0.62898   0.00000  Uiso   1.00
H645   H     0.87296   0.34761   0.62253   0.00000  Uiso   1.00
N646   N     0.75710   0.20214   0.86291   0.00000  Uiso   1.00
H647   H     0.72039   0.21382   0.86832   0.00000  Uiso   1.00
H648   H     0.75971   0.16859   0.87352   0.00000  Uiso   1.00
C649   C     0.16792   0.66396   0.75019   0.00000  Uiso   1.00
C650   C     0.16806   0.83606   0.75014   0.00000  Uiso   1.00
C651   C     0.14214   0.71538   0.54987   0.00000  Uiso   1.00
C652   C     0.20650   0.77187   0.95207   0.00000  Uiso   1.00
C653   C     0.14174   0.71663   0.59931   0.00000  Uiso   1.00
C654   C     0.20500   0.77215   0.90239   0.00000  Uiso   1.00
C655   C     0.19282   0.78273   0.60543   0.00000  Uiso   1.00
C656   C     0.12905   0.72695   0.89312   0.00000  Uiso   1.00
C657   C     0.19282   0.78331   0.55579   0.00000  Uiso   1.00
C658   C     0.12840   0.72698   0.94267   0.00000  Uiso   1.00
C659   C     0.16750   0.74931   0.52682   0.00000  Uiso   1.00
C660   C     0.16753   0.74939   0.97340   0.00000  Uiso   1.00
C661   C     0.06726   0.74889   0.73789   0.00000  Uiso   1.00
C662   C     0.26607   0.75115   0.76211   0.00000  Uiso   1.00
C663   C     0.01274   0.74217   0.73268   0.00000  Uiso   1.00
C664   C     0.32057   0.75797   0.76728   0.00000  Uiso   1.00
C665   C     0.14879   0.54506   0.78060   0.00000  Uiso   1.00
C666   C     0.15042   0.95469   0.71373   0.00000  Uiso   1.00
C667   C     0.14463   0.59109   0.77909   0.00000  Uiso   1.00
C668   C     0.14622   0.90863   0.71431   0.00000  Uiso   1.00
C669   C     0.17405   0.61624   0.75111   0.00000  Uiso   1.00
C670   C     0.17429   0.88387   0.75074   0.00000  Uiso   1.00
C671   C     0.21033   0.59608   0.72557   0.00000  Uiso   1.00
C672   C     0.20941   0.90451   0.78634   0.00000  Uiso   1.00
C673   C     0.21601   0.54975   0.72704   0.00000  Uiso   1.00
C674   C     0.21505   0.95090   0.78625   0.00000  Uiso   1.00
C675   C     0.18406   0.52423   0.75372   0.00000  Uiso   1.00
C676   C     0.18430   0.97598   0.75048   0.00000  Uiso   1.00
H677   H     0.11727   0.60732   0.79908   0.00000  Uiso   1.00
H678   H     0.11983   0.89209   0.68667   0.00000  Uiso   1.00
H679   H     0.12315   0.68747   0.53032   0.00000  Uiso   1.00
H680   H     0.23863   0.78876   0.97331   0.00000  Uiso   1.00
H681   H     0.12184   0.69049   0.61626   0.00000  Uiso   1.00
H682   H     0.23502   0.78976   0.88670   0.00000  Uiso   1.00
H683   H     0.21235   0.81071   0.54052   0.00000  Uiso   1.00
H684   H     0.09688   0.70969   0.95641   0.00000  Uiso   1.00
N685   N     0.16667   0.74999   0.62624   0.00000  Uiso   1.00
N686   N     0.16667   0.75001   0.87377   0.00000  Uiso   1.00
O687   O     0.16667   0.68454   0.78974   0.00000  Uiso   1.00
O688   O     0.16666   0.81547   0.71026   0.00000  Uiso   1.00
O689   O     0.16667   0.68453   0.71026   0.00000  Uiso   1.00
O690   O     0.16666   0.81547   0.78974   0.00000  Uiso   1.00
O691   O     0.09058   0.75000   0.78045   0.00000  Uiso   1.00
O692   O     0.24275   0.75000   0.71956   0.00000  Uiso   1.00
O693   O     0.09058   0.75000   0.70097   0.00000  Uiso   1.00
O694   O     0.24275   0.75001   0.79904   0.00000  Uiso   1.00
Zn695  Zn    0.16667   0.75001   0.80307   0.00000  Uiso   1.00
Zn696  Zn    0.16667   0.75000   0.69693   0.00000  Uiso   1.00
O697   O     0.32142   0.71620   0.69554   0.00000  Uiso   1.00
H698   H     0.01426   0.70455   0.67640   0.00000  Uiso   1.00
O699   O     0.01184   0.78412   0.80429   0.00000  Uiso   1.00
H700   H     0.31905   0.79543   0.82367   0.00000  Uiso   1.00
O701   O     0.11684   0.52216   0.80772   0.00000  Uiso   1.00
H702   H     0.12412   0.98974   0.80780   0.00000  Uiso   1.00
O703   O     0.11978   0.97716   0.67747   0.00000  Uiso   1.00
H704   H     0.12725   0.50962   0.67913   0.00000  Uiso   1.00
N705   N     0.24238   0.62300   0.69916   0.00000  Uiso   1.00
H706   H     0.28148   0.61707   0.71242   0.00000  Uiso   1.00
H707   H     0.23591   0.61283   0.66363   0.00000  Uiso   1.00
N708   N     0.24036   0.87805   0.82185   0.00000  Uiso   1.00
H709   H     0.23257   0.88829   0.85531   0.00000  Uiso   1.00
H710   H     0.27973   0.88434   0.81974   0.00000  Uiso   1.00
O711   O     0.25208   0.53100   0.70132   0.00000  Uiso   1.00
H712   H     0.25655   0.99882   0.70890   0.00000  Uiso   1.00
O713   O     0.24985   0.97013   0.82204   0.00000  Uiso   1.00
H714   H     0.25467   0.50229   0.81552   0.00000  Uiso   1.00
N715   N     0.22089   0.81635   0.63432   0.00000  Uiso   1.00
H716   H     0.26000   0.81498   0.62898   0.00000  Uiso   1.00
H717   H     0.20630   0.84761   0.62253   0.00000  Uiso   1.00
N718   N     0.09043   0.70214   0.86291   0.00000  Uiso   1.00
H719   H     0.05372   0.71382   0.86832   0.00000  Uiso   1.00
H720   H     0.09305   0.66859   0.87352   0.00000  Uiso   1.00
C721   C     0.50125   0.66396   0.75019   0.00000  Uiso   1.00
C722   C     0.50140   0.83606   0.75014   0.00000  Uiso   1.00
C723   C     0.47547   0.71538   0.54987   0.00000  Uiso   1.00
C724   C     0.53983   0.77187   0.95207   0.00000  Uiso   1.00
C725   C     0.47507   0.71663   0.59931   0.00000  Uiso   1.00
C726   C     0.53834   0.77215   0.90239   0.00000  Uiso   1.00
C727   C     0.52615   0.78273   0.60543   0.00000  Uiso   1.00
C728   C     0.46238   0.72695   0.89312   0.00000  Uiso   1.00
C729   C     0.52615   0.78331   0.55579   0.00000  Uiso   1.00
C730   C     0.46173   0.72698   0.94267   0.00000  Uiso   1.00
C731   C     0.50083   0.74931   0.52682   0.00000  Uiso   1.00
C732   C     0.50086   0.74939   0.97340   0.00000  Uiso   1.00
C733   C     0.40059   0.74889   0.73789   0.00000  Uiso   1.00
C734   C     0.59941   0.75115   0.76211   0.00000  Uiso   1.00
C735   C     0.34607   0.74217   0.73268   0.00000  Uiso   1.00
C736   C     0.65391   0.75797   0.76728   0.00000  Uiso   1.00
C737   C     0.48212   0.54506   0.78060   0.00000  Uiso   1.00
C738   C     0.48375   0.95469   0.71373   0.00000  Uiso   1.00
C739   C     0.47796   0.59109   0.77909   0.00000  Uiso   1.00
C740   C     0.47955   0.90863   0.71431   0.00000  Uiso   1.00
C741   C     0.50738   0.61624   0.75111   0.00000  Uiso   1.00
C742   C     0.50762   0.88387   0.75074   0.00000  Uiso   1.00
C743   C     0.54367   0.59608   0.72557   0.00000  Uiso   1.00
C744   C     0.54275   0.90451   0.78634   0.00000  Uiso   1.00
C745   C     0.54934   0.54975   0.72704   0.00000  Uiso   1.00
C746   C     0.54838   0.95090   0.78625   0.00000  Uiso   1.00
C747   C     0.51739   0.52423   0.75372   0.00000  Uiso   1.00
C748   C     0.51763   0.97598   0.75048   0.00000  Uiso   1.00
H749   H     0.45060   0.60732   0.79908   0.00000  Uiso   1.00
H750   H     0.45316   0.89209   0.68667   0.00000  Uiso   1.00
H751   H     0.45648   0.68747   0.53032   0.00000  Uiso   1.00
H752   H     0.57196   0.78876   0.97331   0.00000  Uiso   1.00
H753   H     0.45517   0.69049   0.61626   0.00000  Uiso   1.00
H754   H     0.56835   0.78976   0.88670   0.00000  Uiso   1.00
H755   H     0.54569   0.81071   0.54052   0.00000  Uiso   1.00
H756   H     0.43021   0.70969   0.95641   0.00000  Uiso   1.00
N757   N     0.50000   0.74999   0.62624   0.00000  Uiso   1.00
N758   N     0.50000   0.75001   0.87377   0.00000  Uiso   1.00
O759   O     0.50000   0.68454   0.78974   0.00000  Uiso   1.00
O760   O     0.50000   0.81547   0.71026   0.00000  Uiso   1.00
O761   O     0.50000   0.68453   0.71026   0.00000  Uiso   1.00
O762   O     0.50000   0.81547   0.78974   0.00000  Uiso   1.00
O763   O     0.42392   0.75000   0.78045   0.00000  Uiso   1.00
O764   O     0.57608   0.75000   0.71956   0.00000  Uiso   1.00
O765   O     0.42392   0.75000   0.70097   0.00000  Uiso   1.00
O766   O     0.57608   0.75001   0.79904   0.00000  Uiso   1.00
Zn767  Zn    0.50000   0.75001   0.80307   0.00000  Uiso   1.00
Zn768  Zn    0.50000   0.75000   0.69693   0.00000  Uiso   1.00
O769   O     0.65475   0.71620   0.69554   0.00000  Uiso   1.00
H770   H     0.34760   0.70455   0.67640   0.00000  Uiso   1.00
O771   O     0.34518   0.78412   0.80429   0.00000  Uiso   1.00
H772   H     0.65238   0.79543   0.82367   0.00000  Uiso   1.00
O773   O     0.45017   0.52216   0.80772   0.00000  Uiso   1.00
H774   H     0.45745   0.98974   0.80780   0.00000  Uiso   1.00
O775   O     0.45311   0.97716   0.67747   0.00000  Uiso   1.00
H776   H     0.46058   0.50962   0.67913   0.00000  Uiso   1.00
N777   N     0.57571   0.62300   0.69916   0.00000  Uiso   1.00
H778   H     0.61481   0.61707   0.71242   0.00000  Uiso   1.00
H779   H     0.56924   0.61283   0.66363   0.00000  Uiso   1.00
N780   N     0.57369   0.87805   0.82185   0.00000  Uiso   1.00
H781   H     0.56590   0.88829   0.85531   0.00000  Uiso   1.00
H782   H     0.61306   0.88434   0.81974   0.00000  Uiso   1.00
O783   O     0.58542   0.53100   0.70132   0.00000  Uiso   1.00
H784   H     0.58988   0.99882   0.70890   0.00000  Uiso   1.00
O785   O     0.58319   0.97013   0.82204   0.00000  Uiso   1.00
H786   H     0.58800   0.50229   0.81552   0.00000  Uiso   1.00
N787   N     0.55423   0.81635   0.63432   0.00000  Uiso   1.00
H788   H     0.59333   0.81498   0.62898   0.00000  Uiso   1.00
H789   H     0.53963   0.84761   0.62253   0.00000  Uiso   1.00
N790   N     0.42377   0.70214   0.86291   0.00000  Uiso   1.00
H791   H     0.38705   0.71382   0.86832   0.00000  Uiso   1.00
H792   H     0.42638   0.66859   0.87352   0.00000  Uiso   1.00
C793   C     0.83458   0.66396   0.75019   0.00000  Uiso   1.00
C794   C     0.83473   0.83606   0.75014   0.00000  Uiso   1.00
C795   C     0.80880   0.71538   0.54987   0.00000  Uiso   1.00
C796   C     0.87317   0.77187   0.95207   0.00000  Uiso   1.00
C797   C     0.80840   0.71663   0.59931   0.00000  Uiso   1.00
C798   C     0.87167   0.77215   0.90239   0.00000  Uiso   1.00
C799   C     0.85948   0.78273   0.60543   0.00000  Uiso   1.00
C800   C     0.79571   0.72695   0.89312   0.00000  Uiso   1.00
C801   C     0.85948   0.78331   0.55579   0.00000  Uiso   1.00
C802   C     0.79507   0.72698   0.94267   0.00000  Uiso   1.00
C803   C     0.83417   0.74931   0.52682   0.00000  Uiso   1.00
C804   C     0.83420   0.74939   0.97340   0.00000  Uiso   1.00
C805   C     0.73393   0.74889   0.73789   0.00000  Uiso   1.00
C806   C     0.93274   0.75115   0.76211   0.00000  Uiso   1.00
C807   C     0.67940   0.74217   0.73268   0.00000  Uiso   1.00
C808   C     0.98724   0.75797   0.76728   0.00000  Uiso   1.00
C809   C     0.81545   0.54506   0.78060   0.00000  Uiso   1.00
C810   C     0.81709   0.95469   0.71373   0.00000  Uiso   1.00
C811   C     0.81130   0.59109   0.77909   0.00000  Uiso   1.00
C812   C     0.81288   0.90863   0.71431   0.00000  Uiso   1.00
C813   C     0.84072   0.61624   0.75111   0.00000  Uiso   1.00
C814   C     0.84096   0.88387   0.75074   0.00000  Uiso   1.00
C815   C     0.87700   0.59608   0.72557   0.00000  Uiso   1.00
C816   C     0.87608   0.90451   0.78634   0.00000  Uiso   1.00
C817   C     0.88267   0.54975   0.72704   0.00000  Uiso   1.00
C818   C     0.88172   0.95090   0.78625   0.00000  Uiso   1.00
C819   C     0.85072   0.52423   0.75372   0.00000  Uiso   1.00
C820   C     0.85096   0.97598   0.75048   0.00000  Uiso   1.00
H821   H     0.78393   0.60732   0.79908   0.00000  Uiso   1.00
H822   H     0.78650   0.89209   0.68667   0.00000  Uiso   1.00
H823   H     0.78981   0.68747   0.53032   0.00000  Uiso   1.00
H824   H     0.90530   0.78876   0.97331   0.00000  Uiso   1.00
H825   H     0.78851   0.69049   0.61626   0.00000  Uiso   1.00
H826   H     0.90168   0.78976   0.88670   0.00000  Uiso   1.00
H827   H     0.87902   0.81071   0.54052   0.00000  Uiso   1.00
H828   H     0.76355   0.70969   0.95641   0.00000  Uiso   1.00
N829   N     0.83333   0.74999   0.62624   0.00000  Uiso   1.00
N830   N     0.83333   0.75001   0.87377   0.00000  Uiso   1.00
O831   O     0.83334   0.68454   0.78974   0.00000  Uiso   1.00
O832   O     0.83333   0.81547   0.71026   0.00000  Uiso   1.00
O833   O     0.83334   0.68453   0.71026   0.00000  Uiso   1.00
O834   O     0.83333   0.81547   0.78974   0.00000  Uiso   1.00
O835   O     0.75725   0.75000   0.78045   0.00000  Uiso   1.00
O836   O     0.90942   0.75000   0.71956   0.00000  Uiso   1.00
O837   O     0.75725   0.75000   0.70097   0.00000  Uiso   1.00
O838   O     0.90942   0.75001   0.79904   0.00000  Uiso   1.00
Zn839  Zn    0.83333   0.75001   0.80307   0.00000  Uiso   1.00
Zn840  Zn    0.83333   0.75000   0.69693   0.00000  Uiso   1.00
O841   O     0.98809   0.71620   0.69554   0.00000  Uiso   1.00
H842   H     0.68093   0.70455   0.67640   0.00000  Uiso   1.00
O843   O     0.67851   0.78412   0.80429   0.00000  Uiso   1.00
H844   H     0.98571   0.79543   0.82367   0.00000  Uiso   1.00
O845   O     0.78350   0.52216   0.80772   0.00000  Uiso   1.00
H846   H     0.79078   0.98974   0.80780   0.00000  Uiso   1.00
O847   O     0.78645   0.97716   0.67747   0.00000  Uiso   1.00
H848   H     0.79392   0.50962   0.67913   0.00000  Uiso   1.00
N849   N     0.90904   0.62300   0.69916   0.00000  Uiso   1.00
H850   H     0.94815   0.61707   0.71242   0.00000  Uiso   1.00
H851   H     0.90258   0.61283   0.66363   0.00000  Uiso   1.00
N852   N     0.90702   0.87805   0.82185   0.00000  Uiso   1.00
H853   H     0.89923   0.88829   0.85531   0.00000  Uiso   1.00
H854   H     0.94640   0.88434   0.81974   0.00000  Uiso   1.00
O855   O     0.91875   0.53100   0.70132   0.00000  Uiso   1.00
H856   H     0.92322   0.99882   0.70890   0.00000  Uiso   1.00
O857   O     0.91652   0.97013   0.82204   0.00000  Uiso   1.00
H858   H     0.92133   0.50229   0.81552   0.00000  Uiso   1.00
N859   N     0.88756   0.81635   0.63432   0.00000  Uiso   1.00
H860   H     0.92666   0.81498   0.62898   0.00000  Uiso   1.00
H861   H     0.87296   0.84761   0.62253   0.00000  Uiso   1.00
N862   N     0.75710   0.70214   0.86291   0.00000  Uiso   1.00
H863   H     0.72039   0.71382   0.86832   0.00000  Uiso   1.00
H864   H     0.75971   0.66859   0.87352   0.00000  Uiso   1.00
loop_
_geom_bond_atom_site_label_1
_geom_bond_atom_site_label_2
_geom_bond_distance
_geom_bond_site_symmetry_2
_ccdc_geom_bond_type
C1     C21     1.435   .     S
C1     O41     1.285   .     A
C1     O39     1.286   .     A
C2     C22     1.436   .     S
C2     O42     1.286   .     A
C2     O40     1.287   .     A
C3     C5      1.406   .     A
C3     H31     1.081   .     S
C3     C11     1.413   .     A
C4     H32     1.081   .     S
C4     C6      1.407   .     A
C4     C12     1.413   .     A
C5     N37     1.362   .     A
C5     H33     1.082   .     S
C6     N38     1.362   .     A
C6     H34     1.082   .     S
C7     C9      1.410   .     A
C7     N67     1.429   .     S
C7     N37     1.366   .     A
C8     N38     1.366   .     A
C8     N70     1.429   .     S
C8     C10     1.410   .     A
C9     C11     1.409   .     A
C9     H35     1.081   .     S
C10    C12     1.409   .     A
C10    H36     1.081   .     S
C11    C444    1.518   1_554 S
C12    C443    1.518   .     S
C13    C15     1.412   .     S
C13    O43     1.274   .     A
C13    O45     1.282   .     A
C14    O46     1.282   .     A
C14    C16     1.412   .     S
C14    O44     1.274   .     A
C15    C160    1.346   1_455 S
C15    O193    1.391   1_455 S
C16    C87     1.346   .     S
C16    O123    1.390   .     S
C17    O53     1.384   .     S
C17    C19     1.380   .     A
C17    C27     1.417   .     A
C18    C28     1.416   .     A
C18    O55     1.384   .     S
C18    C20     1.380   .     A
C19    C21     1.391   .     A
C19    H29     1.085   .     S
C20    H30     1.085   .     S
C20    C22     1.392   .     A
C21    C23     1.404   .     A
C22    C24     1.404   .     A
C23    C25     1.392   .     A
C23    N57     1.436   .     S
C24    N60     1.436   .     S
C24    C26     1.392   .     A
C25    C27     1.416   .     A
C25    O63     1.385   .     S
C26    C28     1.416   .     A
C26    O65     1.385   .     S
C27    C244    1.445   1_545 S
C28    C243    1.445   .     S
N37    Zn48    2.008   .     S
N38    Zn47    2.008   .     S
O39    Zn47    1.993   .     S
O40    Zn48    1.993   .     S
O41    Zn48    1.991   .     S
O42    Zn47    1.991   .     S
O43    Zn47    1.985   .     S
O44    Zn48    1.985   .     S
O45    Zn48    1.989   .     S
O46    Zn47    1.989   .     S
O49    C87     1.391   .     S
O49    H122    0.991   .     S
H50    O193    0.991   1_455 S
O51    C160    1.390   1_455 S
O51    H196    0.991   1_455 S
H52    O123    0.991   .     S
O53    H270    0.988   1_545 S
H54    O269    0.988   .     S
O55    H272    0.988   .     S
H56    O271    0.988   1_545 S
N57    H58     1.046   .     S
N57    H59     1.046   .     S
N60    H62     1.046   .     S
N60    H61     1.046   .     S
O63    H280    0.988   1_545 S
H64    O279    0.988   .     S
O65    H282    0.988   .     S
H66    O281    0.988   1_545 S
N67    H68     1.046   .     S
N67    H69     1.046   .     S
N70    H71     1.046   .     S
N70    H72     1.045   .     S
C73    C93     1.435   .     S
C73    O113    1.285   .     A
C73    O111    1.286   .     A
C74    C94     1.436   .     S
C74    O114    1.286   .     A
C74    O112    1.287   .     A
C75    C77     1.406   .     A
C75    H103    1.081   .     S
C75    C83     1.413   .     A
C76    H104    1.081   .     S
C76    C78     1.407   .     A
C76    C84     1.413   .     A
C77    N109    1.362   .     A
C77    H105    1.082   .     S
C78    N110    1.362   .     A
C78    H106    1.082   .     S
C79    C81     1.410   .     A
C79    N139    1.429   .     S
C79    N109    1.366   .     A
C80    N110    1.366   .     A
C80    N142    1.429   .     S
C80    C82     1.410   .     A
C81    C83     1.409   .     A
C81    H107    1.081   .     S
C82    C84     1.409   .     A
C82    H108    1.081   .     S
C83    C516    1.518   1_554 S
C84    C515    1.518   .     S
C85    C87     1.412   .     S
C85    O115    1.274   .     A
C85    O117    1.282   .     A
C86    O118    1.282   .     A
C86    C88     1.412   .     S
C86    O116    1.274   .     A
C88    C159    1.346   .     S
C88    O195    1.390   .     S
C89    O125    1.384   .     S
C89    C91     1.380   .     A
C89    C99     1.417   .     A
C90    C100    1.416   .     A
C90    O127    1.384   .     S
C90    C92     1.380   .     A
C91    C93     1.391   .     A
C91    H101    1.085   .     S
C92    H102    1.085   .     S
C92    C94     1.392   .     A
C93    C95     1.404   .     A
C94    C96     1.404   .     A
C95    C97     1.392   .     A
C95    N129    1.436   .     S
C96    N132    1.436   .     S
C96    C98     1.392   .     A
C97    C99     1.416   .     A
C97    O135    1.385   .     S
C98    C100    1.416   .     A
C98    O137    1.385   .     S
C99    C316    1.445   1_545 S
C100   C315    1.445   .     S
N109   Zn120   2.008   .     S
N110   Zn119   2.008   .     S
O111   Zn119   1.993   .     S
O112   Zn120   1.993   .     S
O113   Zn120   1.991   .     S
O114   Zn119   1.991   .     S
O115   Zn119   1.985   .     S
O116   Zn120   1.985   .     S
O117   Zn120   1.989   .     S
O118   Zn119   1.989   .     S
O121   C159    1.391   .     S
O121   H194    0.991   .     S
H124   O195    0.991   .     S
O125   H342    0.988   1_545 S
H126   O341    0.988   .     S
O127   H344    0.988   .     S
H128   O343    0.988   1_545 S
N129   H130    1.046   .     S
N129   H131    1.046   .     S
N132   H134    1.046   .     S
N132   H133    1.046   .     S
O135   H352    0.988   1_545 S
H136   O351    0.988   .     S
O137   H354    0.988   .     S
H138   O353    0.988   1_545 S
N139   H140    1.046   .     S
N139   H141    1.046   .     S
N142   H143    1.046   .     S
N142   H144    1.045   .     S
C145   C165    1.435   .     S
C145   O185    1.285   .     A
C145   O183    1.286   .     A
C146   C166    1.436   .     S
C146   O186    1.286   .     A
C146   O184    1.287   .     A
C147   C149    1.406   .     A
C147   H175    1.081   .     S
C147   C155    1.413   .     A
C148   H176    1.081   .     S
C148   C150    1.407   .     A
C148   C156    1.413   .     A
C149   N181    1.362   .     A
C149   H177    1.082   .     S
C150   N182    1.362   .     A
C150   H178    1.082   .     S
C151   C153    1.410   .     A
C151   N211    1.429   .     S
C151   N181    1.366   .     A
C152   N182    1.366   .     A
C152   N214    1.429   .     S
C152   C154    1.410   .     A
C153   C155    1.409   .     A
C153   H179    1.081   .     S
C154   C156    1.409   .     A
C154   H180    1.081   .     S
C155   C588    1.518   1_554 S
C156   C587    1.518   .     S
C157   C159    1.412   .     S
C157   O187    1.274   .     A
C157   O189    1.282   .     A
C158   O190    1.282   .     A
C158   C160    1.412   .     S
C158   O188    1.274   .     A
C160   C15     1.346   1_655 S
C160   O51     1.390   1_655 S
C161   O197    1.384   .     S
C161   C163    1.380   .     A
C161   C171    1.417   .     A
C162   C172    1.416   .     A
C162   O199    1.384   .     S
C162   C164    1.380   .     A
C163   C165    1.391   .     A
C163   H173    1.085   .     S
C164   H174    1.085   .     S
C164   C166    1.392   .     A
C165   C167    1.404   .     A
C166   C168    1.404   .     A
C167   C169    1.392   .     A
C167   N201    1.436   .     S
C168   N204    1.436   .     S
C168   C170    1.392   .     A
C169   C171    1.416   .     A
C169   O207    1.385   .     S
C170   C172    1.416   .     A
C170   O209    1.385   .     S
C171   C388    1.445   1_545 S
C172   C387    1.445   .     S
N181   Zn192   2.008   .     S
N182   Zn191   2.008   .     S
O183   Zn191   1.993   .     S
O184   Zn192   1.993   .     S
O185   Zn192   1.991   .     S
O186   Zn191   1.991   .     S
O187   Zn191   1.985   .     S
O188   Zn192   1.985   .     S
O189   Zn192   1.989   .     S
O190   Zn191   1.989   .     S
O193   C15     1.391   1_655 S
O193   H50     0.991   1_655 S
H196   O51     0.991   1_655 S
O197   H414    0.988   1_545 S
H198   O413    0.988   .     S
O199   H416    0.988   .     S
H200   O415    0.988   1_545 S
N201   H202    1.046   .     S
N201   H203    1.046   .     S
N204   H206    1.046   .     S
N204   H205    1.046   .     S
O207   H424    0.988   1_545 S
H208   O423    0.988   .     S
O209   H426    0.988   .     S
H210   O425    0.988   1_545 S
N211   H212    1.046   .     S
N211   H213    1.046   .     S
N214   H215    1.046   .     S
N214   H216    1.045   .     S
C217   C237    1.435   .     S
C217   O257    1.285   .     A
C217   O255    1.286   .     A
C218   C238    1.436   .     S
C218   O258    1.286   .     A
C218   O256    1.287   .     A
C219   C221    1.406   .     A
C219   H247    1.081   .     S
C219   C227    1.413   .     A
C220   H248    1.081   .     S
C220   C222    1.407   .     A
C220   C228    1.413   .     A
C221   N253    1.362   .     A
C221   H249    1.082   .     S
C222   N254    1.362   .     A
C222   H250    1.082   .     S
C223   C225    1.410   .     A
C223   N283    1.429   .     S
C223   N253    1.366   .     A
C224   N254    1.366   .     A
C224   N286    1.429   .     S
C224   C226    1.410   .     A
C225   C227    1.409   .     A
C225   H251    1.081   .     S
C226   C228    1.409   .     A
C226   H252    1.081   .     S
C227   C660    1.518   1_554 S
C228   C659    1.518   .     S
C229   C231    1.412   .     S
C229   O259    1.274   .     A
C229   O261    1.282   .     A
C230   O262    1.282   .     A
C230   C232    1.412   .     S
C230   O260    1.274   .     A
C231   C376    1.346   1_455 S
C231   O409    1.391   1_455 S
C232   C303    1.346   .     S
C232   O339    1.390   .     S
C233   O269    1.384   .     S
C233   C235    1.380   .     A
C233   C243    1.417   .     A
C234   C244    1.416   .     A
C234   O271    1.384   .     S
C234   C236    1.380   .     A
C235   C237    1.391   .     A
C235   H245    1.085   .     S
C236   H246    1.085   .     S
C236   C238    1.392   .     A
C237   C239    1.404   .     A
C238   C240    1.404   .     A
C239   C241    1.392   .     A
C239   N273    1.436   .     S
C240   N276    1.436   .     S
C240   C242    1.392   .     A
C241   C243    1.416   .     A
C241   O279    1.385   .     S
C242   C244    1.416   .     A
C242   O281    1.385   .     S
C244   C27     1.445   1_565 S
N253   Zn264   2.008   .     S
N254   Zn263   2.008   .     S
O255   Zn263   1.993   .     S
O256   Zn264   1.993   .     S
O257   Zn264   1.991   .     S
O258   Zn263   1.991   .     S
O259   Zn263   1.985   .     S
O260   Zn264   1.985   .     S
O261   Zn264   1.989   .     S
O262   Zn263   1.989   .     S
O265   C303    1.391   .     S
O265   H338    0.991   .     S
H266   O409    0.991   1_455 S
O267   C376    1.390   1_455 S
O267   H412    0.991   1_455 S
H268   O339    0.991   .     S
H270   O53     0.988   1_565 S
O271   H56     0.988   1_565 S
N273   H274    1.046   .     S
N273   H275    1.046   .     S
N276   H278    1.046   .     S
N276   H277    1.046   .     S
H280   O63     0.988   1_565 S
O281   H66     0.988   1_565 S
N283   H284    1.046   .     S
N283   H285    1.046   .     S
N286   H287    1.046   .     S
N286   H288    1.045   .     S
C289   C309    1.435   .     S
C289   O329    1.285   .     A
C289   O327    1.286   .     A
C290   C310    1.436   .     S
C290   O330    1.286   .     A
C290   O328    1.287   .     A
C291   C293    1.406   .     A
C291   H319    1.081   .     S
C291   C299    1.413   .     A
C292   H320    1.081   .     S
C292   C294    1.407   .     A
C292   C300    1.413   .     A
C293   N325    1.362   .     A
C293   H321    1.082   .     S
C294   N326    1.362   .     A
C294   H322    1.082   .     S
C295   C297    1.410   .     A
C295   N355    1.429   .     S
C295   N325    1.366   .     A
C296   N326    1.366   .     A
C296   N358    1.429   .     S
C296   C298    1.410   .     A
C297   C299    1.409   .     A
C297   H323    1.081   .     S
C298   C300    1.409   .     A
C298   H324    1.081   .     S
C299   C732    1.518   1_554 S
C300   C731    1.518   .     S
C301   C303    1.412   .     S
C301   O331    1.274   .     A
C301   O333    1.282   .     A
C302   O334    1.282   .     A
C302   C304    1.412   .     S
C302   O332    1.274   .     A
C304   C375    1.346   .     S
C304   O411    1.390   .     S
C305   O341    1.384   .     S
C305   C307    1.380   .     A
C305   C315    1.417   .     A
C306   C316    1.416   .     A
C306   O343    1.384   .     S
C306   C308    1.380   .     A
C307   C309    1.391   .     A
C307   H317    1.085   .     S
C308   H318    1.085   .     S
C308   C310    1.392   .     A
C309   C311    1.404   .     A
C310   C312    1.404   .     A
C311   C313    1.392   .     A
C311   N345    1.436   .     S
C312   N348    1.436   .     S
C312   C314    1.392   .     A
C313   C315    1.416   .     A
C313   O351    1.385   .     S
C314   C316    1.416   .     A
C314   O353    1.385   .     S
C316   C99     1.445   1_565 S
N325   Zn336   2.008   .     S
N326   Zn335   2.008   .     S
O327   Zn335   1.993   .     S
O328   Zn336   1.993   .     S
O329   Zn336   1.991   .     S
O330   Zn335   1.991   .     S
O331   Zn335   1.985   .     S
O332   Zn336   1.985   .     S
O333   Zn336   1.989   .     S
O334   Zn335   1.989   .     S
O337   C375    1.391   .     S
O337   H410    0.991   .     S
H340   O411    0.991   .     S
H342   O125    0.988   1_565 S
O343   H128    0.988   1_565 S
N345   H346    1.046   .     S
N345   H347    1.046   .     S
N348   H350    1.046   .     S
N348   H349    1.046   .     S
H352   O135    0.988   1_565 S
O353   H138    0.988   1_565 S
N355   H356    1.046   .     S
N355   H357    1.046   .     S
N358   H359    1.046   .     S
N358   H360    1.045   .     S
C361   C381    1.435   .     S
C361   O401    1.285   .     A
C361   O399    1.286   .     A
C362   C382    1.436   .     S
C362   O402    1.286   .     A
C362   O400    1.287   .     A
C363   C365    1.406   .     A
C363   H391    1.081   .     S
C363   C371    1.413   .     A
C364   H392    1.081   .     S
C364   C366    1.407   .     A
C364   C372    1.413   .     A
C365   N397    1.362   .     A
C365   H393    1.082   .     S
C366   N398    1.362   .     A
C366   H394    1.082   .     S
C367   C369    1.410   .     A
C367   N427    1.429   .     S
C367   N397    1.366   .     A
C368   N398    1.366   .     A
C368   N430    1.429   .     S
C368   C370    1.410   .     A
C369   C371    1.409   .     A
C369   H395    1.081   .     S
C370   C372    1.409   .     A
C370   H396    1.081   .     S
C371   C804    1.518   1_554 S
C372   C803    1.518   .     S
C373   C375    1.412   .     S
C373   O403    1.274   .     A
C373   O405    1.282   .     A
C374   O406    1.282   .     A
C374   C376    1.412   .     S
C374   O404    1.274   .     A
C376   C231    1.346   1_655 S
C376   O267    1.390   1_655 S
C377   O413    1.384   .     S
C377   C379    1.380   .     A
C377   C387    1.417   .     A
C378   C388    1.416   .     A
C378   O415    1.384   .     S
C378   C380    1.380   .     A
C379   C381    1.391   .     A
C379   H389    1.085   .     S
C380   H390    1.085   .     S
C380   C382    1.392   .     A
C381   C383    1.404   .     A
C382   C384    1.404   .     A
C383   C385    1.392   .     A
C383   N417    1.436   .     S
C384   N420    1.436   .     S
C384   C386    1.392   .     A
C385   C387    1.416   .     A
C385   O423    1.385   .     S
C386   C388    1.416   .     A
C386   O425    1.385   .     S
C388   C171    1.445   1_565 S
N397   Zn408   2.008   .     S
N398   Zn407   2.008   .     S
O399   Zn407   1.993   .     S
O400   Zn408   1.993   .     S
O401   Zn408   1.991   .     S
O402   Zn407   1.991   .     S
O403   Zn407   1.985   .     S
O404   Zn408   1.985   .     S
O405   Zn408   1.989   .     S
O406   Zn407   1.989   .     S
O409   C231    1.391   1_655 S
O409   H266    0.991   1_655 S
H412   O267    0.991   1_655 S
H414   O197    0.988   1_565 S
O415   H200    0.988   1_565 S
N417   H418    1.046   .     S
N417   H419    1.046   .     S
N420   H422    1.046   .     S
N420   H421    1.046   .     S
H424   O207    0.988   1_565 S
O425   H210    0.988   1_565 S
N427   H428    1.046   .     S
N427   H429    1.046   .     S
N430   H431    1.046   .     S
N430   H432    1.045   .     S
C433   C453    1.435   .     S
C433   O473    1.285   .     A
C433   O471    1.286   .     A
C434   C454    1.436   .     S
C434   O474    1.286   .     A
C434   O472    1.287   .     A
C435   C437    1.406   .     A
C435   H463    1.081   .     S
C435   C443    1.413   .     A
C436   H464    1.081   .     S
C436   C438    1.407   .     A
C436   C444    1.413   .     A
C437   N469    1.362   .     A
C437   H465    1.082   .     S
C438   N470    1.362   .     A
C438   H466    1.082   .     S
C439   C441    1.410   .     A
C439   N499    1.429   .     S
C439   N469    1.366   .     A
C440   N470    1.366   .     A
C440   N502    1.429   .     S
C440   C442    1.410   .     A
C441   C443    1.409   .     A
C441   H467    1.081   .     S
C442   C444    1.409   .     A
C442   H468    1.081   .     S
C444   C11     1.518   1_556 S
C445   C447    1.412   .     S
C445   O475    1.274   .     A
C445   O477    1.282   .     A
C446   O478    1.282   .     A
C446   C448    1.412   .     S
C446   O476    1.274   .     A
C447   C592    1.346   1_455 S
C447   O625    1.391   1_455 S
C448   C519    1.346   .     S
C448   O555    1.390   .     S
C449   O485    1.384   .     S
C449   C451    1.380   .     A
C449   C459    1.417   .     A
C450   C460    1.416   .     A
C450   O487    1.384   .     S
C450   C452    1.380   .     A
C451   C453    1.391   .     A
C451   H461    1.085   .     S
C452   H462    1.085   .     S
C452   C454    1.392   .     A
C453   C455    1.404   .     A
C454   C456    1.404   .     A
C455   C457    1.392   .     A
C455   N489    1.436   .     S
C456   N492    1.436   .     S
C456   C458    1.392   .     A
C457   C459    1.416   .     A
C457   O495    1.385   .     S
C458   C460    1.416   .     A
C458   O497    1.385   .     S
C459   C676    1.445   1_545 S
C460   C675    1.445   .     S
N469   Zn480   2.008   .     S
N470   Zn479   2.008   .     S
O471   Zn479   1.993   .     S
O472   Zn480   1.993   .     S
O473   Zn480   1.991   .     S
O474   Zn479   1.991   .     S
O475   Zn479   1.985   .     S
O476   Zn480   1.985   .     S
O477   Zn480   1.989   .     S
O478   Zn479   1.989   .     S
O481   C519    1.391   .     S
O481   H554    0.991   .     S
H482   O625    0.991   1_455 S
O483   C592    1.390   1_455 S
O483   H628    0.991   1_455 S
H484   O555    0.991   .     S
O485   H702    0.988   1_545 S
H486   O701    0.988   .     S
O487   H704    0.988   .     S
H488   O703    0.988   1_545 S
N489   H490    1.046   .     S
N489   H491    1.046   .     S
N492   H494    1.046   .     S
N492   H493    1.046   .     S
O495   H712    0.988   1_545 S
H496   O711    0.988   .     S
O497   H714    0.988   .     S
H498   O713    0.988   1_545 S
N499   H500    1.046   .     S
N499   H501    1.046   .     S
N502   H503    1.046   .     S
N502   H504    1.045   .     S
C505   C525    1.435   .     S
C505   O545    1.285   .     A
C505   O543    1.286   .     A
C506   C526    1.436   .     S
C506   O546    1.286   .     A
C506   O544    1.287   .     A
C507   C509    1.406   .     A
C507   H535    1.081   .     S
C507   C515    1.413   .     A
C508   H536    1.081   .     S
C508   C510    1.407   .     A
C508   C516    1.413   .     A
C509   N541    1.362   .     A
C509   H537    1.082   .     S
C510   N542    1.362   .     A
C510   H538    1.082   .     S
C511   C513    1.410   .     A
C511   N571    1.429   .     S
C511   N541    1.366   .     A
C512   N542    1.366   .     A
C512   N574    1.429   .     S
C512   C514    1.410   .     A
C513   C515    1.409   .     A
C513   H539    1.081   .     S
C514   C516    1.409   .     A
C514   H540    1.081   .     S
C516   C83     1.518   1_556 S
C517   C519    1.412   .     S
C517   O547    1.274   .     A
C517   O549    1.282   .     A
C518   O550    1.282   .     A
C518   C520    1.412   .     S
C518   O548    1.274   .     A
C520   C591    1.346   .     S
C520   O627    1.390   .     S
C521   O557    1.384   .     S
C521   C523    1.380   .     A
C521   C531    1.417   .     A
C522   C532    1.416   .     A
C522   O559    1.384   .     S
C522   C524    1.380   .     A
C523   C525    1.391   .     A
C523   H533    1.085   .     S
C524   H534    1.085   .     S
C524   C526    1.392   .     A
C525   C527    1.404   .     A
C526   C528    1.404   .     A
C527   C529    1.392   .     A
C527   N561    1.436   .     S
C528   N564    1.436   .     S
C528   C530    1.392   .     A
C529   C531    1.416   .     A
C529   O567    1.385   .     S
C530   C532    1.416   .     A
C530   O569    1.385   .     S
C531   C748    1.445   1_545 S
C532   C747    1.445   .     S
N541   Zn552   2.008   .     S
N542   Zn551   2.008   .     S
O543   Zn551   1.993   .     S
O544   Zn552   1.993   .     S
O545   Zn552   1.991   .     S
O546   Zn551   1.991   .     S
O547   Zn551   1.985   .     S
O548   Zn552   1.985   .     S
O549   Zn552   1.989   .     S
O550   Zn551   1.989   .     S
O553   C591    1.391   .     S
O553   H626    0.991   .     S
H556   O627    0.991   .     S
O557   H774    0.988   1_545 S
H558   O773    0.988   .     S
O559   H776    0.988   .     S
H560   O775    0.988   1_545 S
N561   H562    1.046   .     S
N561   H563    1.046   .     S
N564   H566    1.046   .     S
N564   H565    1.046   .     S
O567   H784    0.988   1_545 S
H568   O783    0.988   .     S
O569   H786    0.988   .     S
H570   O785    0.988   1_545 S
N571   H572    1.046   .     S
N571   H573    1.046   .     S
N574   H575    1.046   .     S
N574   H576    1.045   .     S
C577   C597    1.435   .     S
C577   O617    1.285   .     A
C577   O615    1.286   .     A
C578   C598    1.436   .     S
C578   O618    1.286   .     A
C578   O616    1.287   .     A
C579   C581    1.406   .     A
C579   H607    1.081   .     S
C579   C587    1.413   .     A
C580   H608    1.081   .     S
C580   C582    1.407   .     A
C580   C588    1.413   .     A
C581   N613    1.362   .     A
C581   H609    1.082   .     S
C582   N614    1.362   .     A
C582   H610    1.082   .     S
C583   C585    1.410   .     A
C583   N643    1.429   .     S
C583   N613    1.366   .     A
C584   N614    1.366   .     A
C584   N646    1.429   .     S
C584   C586    1.410   .     A
C585   C587    1.409   .     A
C585   H611    1.081   .     S
C586   C588    1.409   .     A
C586   H612    1.081   .     S
C588   C155    1.518   1_556 S
C589   C591    1.412   .     S
C589   O619    1.274   .     A
C589   O621    1.282   .     A
C590   O622    1.282   .     A
C590   C592    1.412   .     S
C590   O620    1.274   .     A
C592   C447    1.346   1_655 S
C592   O483    1.390   1_655 S
C593   O629    1.384   .     S
C593   C595    1.380   .     A
C593   C603    1.417   .     A
C594   C604    1.416   .     A
C594   O631    1.384   .     S
C594   C596    1.380   .     A
C595   C597    1.391   .     A
C595   H605    1.085   .     S
C596   H606    1.085   .     S
C596   C598    1.392   .     A
C597   C599    1.404   .     A
C598   C600    1.404   .     A
C599   C601    1.392   .     A
C599   N633    1.436   .     S
C600   N636    1.436   .     S
C600   C602    1.392   .     A
C601   C603    1.416   .     A
C601   O639    1.385   .     S
C602   C604    1.416   .     A
C602   O641    1.385   .     S
C603   C820    1.445   1_545 S
C604   C819    1.445   .     S
N613   Zn624   2.008   .     S
N614   Zn623   2.008   .     S
O615   Zn623   1.993   .     S
O616   Zn624   1.993   .     S
O617   Zn624   1.991   .     S
O618   Zn623   1.991   .     S
O619   Zn623   1.985   .     S
O620   Zn624   1.985   .     S
O621   Zn624   1.989   .     S
O622   Zn623   1.989   .     S
O625   C447    1.391   1_655 S
O625   H482    0.991   1_655 S
H628   O483    0.991   1_655 S
O629   H846    0.988   1_545 S
H630   O845    0.988   .     S
O631   H848    0.988   .     S
H632   O847    0.988   1_545 S
N633   H634    1.046   .     S
N633   H635    1.046   .     S
N636   H638    1.046   .     S
N636   H637    1.046   .     S
O639   H856    0.988   1_545 S
H640   O855    0.988   .     S
O641   H858    0.988   .     S
H642   O857    0.988   1_545 S
N643   H644    1.046   .     S
N643   H645    1.046   .     S
N646   H647    1.046   .     S
N646   H648    1.045   .     S
C649   C669    1.435   .     S
C649   O689    1.285   .     A
C649   O687    1.286   .     A
C650   C670    1.436   .     S
C650   O690    1.286   .     A
C650   O688    1.287   .     A
C651   C653    1.406   .     A
C651   H679    1.081   .     S
C651   C659    1.413   .     A
C652   H680    1.081   .     S
C652   C654    1.407   .     A
C652   C660    1.413   .     A
C653   N685    1.362   .     A
C653   H681    1.082   .     S
C654   N686    1.362   .     A
C654   H682    1.082   .     S
C655   C657    1.410   .     A
C655   N715    1.429   .     S
C655   N685    1.366   .     A
C656   N686    1.366   .     A
C656   N718    1.429   .     S
C656   C658    1.410   .     A
C657   C659    1.409   .     A
C657   H683    1.081   .     S
C658   C660    1.409   .     A
C658   H684    1.081   .     S
C660   C227    1.518   1_556 S
C661   C663    1.412   .     S
C661   O691    1.274   .     A
C661   O693    1.282   .     A
C662   O694    1.282   .     A
C662   C664    1.412   .     S
C662   O692    1.274   .     A
C663   C808    1.346   1_455 S
C663   O841    1.391   1_455 S
C664   C735    1.346   .     S
C664   O771    1.390   .     S
C665   O701    1.384   .     S
C665   C667    1.380   .     A
C665   C675    1.417   .     A
C666   C676    1.416   .     A
C666   O703    1.384   .     S
C666   C668    1.380   .     A
C667   C669    1.391   .     A
C667   H677    1.085   .     S
C668   H678    1.085   .     S
C668   C670    1.392   .     A
C669   C671    1.404   .     A
C670   C672    1.404   .     A
C671   C673    1.392   .     A
C671   N705    1.436   .     S
C672   N708    1.436   .     S
C672   C674    1.392   .     A
C673   C675    1.416   .     A
C673   O711    1.385   .     S
C674   C676    1.416   .     A
C674   O713    1.385   .     S
C676   C459    1.445   1_565 S
N685   Zn696   2.008   .     S
N686   Zn695   2.008   .     S
O687   Zn695   1.993   .     S
O688   Zn696   1.993   .     S
O689   Zn696   1.991   .     S
O690   Zn695   1.991   .     S
O691   Zn695   1.985   .     S
O692   Zn696   1.985   .     S
O693   Zn696   1.989   .     S
O694   Zn695   1.989   .     S
O697   C735    1.391   .     S
O697   H770    0.991   .     S
H698   O841    0.991   1_455 S
O699   C808    1.390   1_455 S
O699   H844    0.991   1_455 S
H700   O771    0.991   .     S
H702   O485    0.988   1_565 S
O703   H488    0.988   1_565 S
N705   H706    1.046   .     S
N705   H707    1.046   .     S
N708   H710    1.046   .     S
N708   H709    1.046   .     S
H712   O495    0.988   1_565 S
O713   H498    0.988   1_565 S
N715   H716    1.046   .     S
N715   H717    1.046   .     S
N718   H719    1.046   .     S
N718   H720    1.045   .     S
C721   C741    1.435   .     S
C721   O761    1.285   .     A
C721   O759    1.286   .     A
C722   C742    1.436   .     S
C722   O762    1.286   .     A
C722   O760    1.287   .     A
C723   C725    1.406   .     A
C723   H751    1.081   .     S
C723   C731    1.413   .     A
C724   H752    1.081   .     S
C724   C726    1.407   .     A
C724   C732    1.413   .     A
C725   N757    1.362   .     A
C725   H753    1.082   .     S
C726   N758    1.362   .     A
C726   H754    1.082   .     S
C727   C729    1.410   .     A
C727   N787    1.429   .     S
C727   N757    1.366   .     A
C728   N758    1.366   .     A
C728   N790    1.429   .     S
C728   C730    1.410   .     A
C729   C731    1.409   .     A
C729   H755    1.081   .     S
C730   C732    1.409   .     A
C730   H756    1.081   .     S
C732   C299    1.518   1_556 S
C733   C735    1.412   .     S
C733   O763    1.274   .     A
C733   O765    1.282   .     A
C734   O766    1.282   .     A
C734   C736    1.412   .     S
C734   O764    1.274   .     A
C736   C807    1.346   .     S
C736   O843    1.390   .     S
C737   O773    1.384   .     S
C737   C739    1.380   .     A
C737   C747    1.417   .     A
C738   C748    1.416   .     A
C738   O775    1.384   .     S
C738   C740    1.380   .     A
C739   C741    1.391   .     A
C739   H749    1.085   .     S
C740   H750    1.085   .     S
C740   C742    1.392   .     A
C741   C743    1.404   .     A
C742   C744    1.404   .     A
C743   C745    1.392   .     A
C743   N777    1.436   .     S
C744   N780    1.436   .     S
C744   C746    1.392   .     A
C745   C747    1.416   .     A
C745   O783    1.385   .     S
C746   C748    1.416   .     A
C746   O785    1.385   .     S
C748   C531    1.445   1_565 S
N757   Zn768   2.008   .     S
N758   Zn767   2.008   .     S
O759   Zn767   1.993   .     S
O760   Zn768   1.993   .     S
O761   Zn768   1.991   .     S
O762   Zn767   1.991   .     S
O763   Zn767   1.985   .     S
O764   Zn768   1.985   .     S
O765   Zn768   1.989   .     S
O766   Zn767   1.989   .     S
O769   C807    1.391   .     S
O769   H842    0.991   .     S
H772   O843    0.991   .     S
H774   O557    0.988   1_565 S
O775   H560    0.988   1_565 S
N777   H778    1.046   .     S
N777   H779    1.046   .     S
N780   H782    1.046   .     S
N780   H781    1.046   .     S
H784   O567    0.988   1_565 S
O785   H570    0.988   1_565 S
N787   H788    1.046   .     S
N787   H789    1.046   .     S
N790   H791    1.046   .     S
N790   H792    1.045   .     S
C793   C813    1.435   .     S
C793   O833    1.285   .     A
C793   O831    1.286   .     A
C794   C814    1.436   .     S
C794   O834    1.286   .     A
C794   O832    1.287   .     A
C795   C797    1.406   .     A
C795   H823    1.081   .     S
C795   C803    1.413   .     A
C796   H824    1.081   .     S
C796   C798    1.407   .     A
C796   C804    1.413   .     A
C797   N829    1.362   .     A
C797   H825    1.082   .     S
C798   N830    1.362   .     A
C798   H826    1.082   .     S
C799   C801    1.410   .     A
C799   N859    1.429   .     S
C799   N829    1.366   .     A
C800   N830    1.366   .     A
C800   N862    1.429   .     S
C800   C802    1.410   .     A
C801   C803    1.409   .     A
C801   H827    1.081   .     S
C802   C804    1.409   .     A
C802   H828    1.081   .     S
C804   C371    1.518   1_556 S
C805   C807    1.412   .     S
C805   O835    1.274   .     A
C805   O837    1.282   .     A
C806   O838    1.282   .     A
C806   C808    1.412   .     S
C806   O836    1.274   .     A
C808   C663    1.346   1_655 S
C808   O699    1.390   1_655 S
C809   O845    1.384   .     S
C809   C811    1.380   .     A
C809   C819    1.417   .     A
C810   C820    1.416   .     A
C810   O847    1.384   .     S
C810   C812    1.380   .     A
C811   C813    1.391   .     A
C811   H821    1.085   .     S
C812   H822    1.085   .     S
C812   C814    1.392   .     A
C813   C815    1.404   .     A
C814   C816    1.404   .     A
C815   C817    1.392   .     A
C815   N849    1.436   .     S
C816   N852    1.436   .     S
C816   C818    1.392   .     A
C817   C819    1.416   .     A
C817   O855    1.385   .     S
C818   C820    1.416   .     A
C818   O857    1.385   .     S
C820   C603    1.445   1_565 S
N829   Zn840   2.008   .     S
N830   Zn839   2.008   .     S
O831   Zn839   1.993   .     S
O832   Zn840   1.993   .     S
O833   Zn840   1.991   .     S
O834   Zn839   1.991   .     S
O835   Zn839   1.985   .     S
O836   Zn840   1.985   .     S
O837   Zn840   1.989   .     S
O838   Zn839   1.989   .     S
O841   C663    1.391   1_655 S
O841   H698    0.991   1_655 S
H844   O699    0.991   1_655 S
H846   O629    0.988   1_565 S
O847   H632    0.988   1_565 S
N849   H850    1.046   .     S
N849   H851    1.046   .     S
N852   H854    1.046   .     S
N852   H853    1.046   .     S
H856   O639    0.988   1_565 S
O857   H642    0.988   1_565 S
N859   H860    1.046   .     S
N859   H861    1.046   .     S
N862   H863    1.046   .     S
N862   H864    1.045   .     S
