data_str_m1_o10_o18_pcu_sym.138
_audit_creation_date              2020-01-03
_audit_creation_method            'Materials Studio'
_symmetry_space_group_name_H-M    'P1'
_symmetry_Int_Tables_number       1
_symmetry_cell_setting            triclinic
loop_
_symmetry_equiv_pos_as_xyz
  x,y,z
_cell_length_a                    32.5382
_cell_length_b                    32.6693
_cell_length_c                    35.5992
_cell_angle_alpha                 98.3287
_cell_angle_beta                  72.9347
_cell_angle_gamma                 98.5520
loop_
_atom_site_label
_atom_site_type_symbol
_atom_site_fract_x
_atom_site_fract_y
_atom_site_fract_z
_atom_site_U_iso_or_equiv
_atom_site_adp_type
_atom_site_occupancy
Zn1    Zn    0.19244   0.14090   0.28278   0.00000  Uiso   1.00
Zn2    Zn    0.13459   0.12378   0.22258   0.00000  Uiso   1.00
Zn3    Zn    0.21166   0.19664   0.21188   0.00000  Uiso   1.00
Zn4    Zn    0.12798   0.20535   0.28277   0.00000  Uiso   1.00
O5     O     0.16667   0.16667   0.25000   0.00000  Uiso   1.00
O6     O     0.06990   0.18960   0.27820   0.00000  Uiso   1.00
O7     O     0.25440   0.15277   0.26768   0.00000  Uiso   1.00
O8     O     0.13800   0.06903   0.23607   0.00000  Uiso   1.00
O9     O     0.20437   0.25527   0.21806   0.00000  Uiso   1.00
O10    O     0.15693   0.12393   0.16625   0.00000  Uiso   1.00
O11    O     0.12687   0.20646   0.33749   0.00000  Uiso   1.00
O12    O     0.21088   0.17493   0.15877   0.00000  Uiso   1.00
O13    O     0.17198   0.16135   0.33749   0.00000  Uiso   1.00
O14    O     0.17849   0.08101   0.27821   0.00000  Uiso   1.00
O15    O     0.14581   0.26136   0.26767   0.00000  Uiso   1.00
O16    O     0.07452   0.13251   0.23607   0.00000  Uiso   1.00
O17    O     0.26785   0.19179   0.21806   0.00000  Uiso   1.00
C18    C     0.05240   0.15962   0.25912   0.00000  Uiso   1.00
C19    C     0.28108   0.17398   0.24142   0.00000  Uiso   1.00
C20    C     0.15641   0.05625   0.25844   0.00000  Uiso   1.00
C21    C     0.17675   0.27769   0.24170   0.00000  Uiso   1.00
C22    C     0.18805   0.14549   0.14396   0.00000  Uiso   1.00
C23    C     0.14519   0.18750   0.35629   0.00000  Uiso   1.00
C24    C     0.13106   0.19063   0.39975   0.00000  Uiso   1.00
C25    C     0.19713   0.13695   0.10122   0.00000  Uiso   1.00
C26    C     0.07607   0.20252   0.46158   0.00000  Uiso   1.00
C27    C     0.09179   0.20543   0.42110   0.00000  Uiso   1.00
C28    C     0.15500   0.17425   0.41959   0.00000  Uiso   1.00
C29    C     0.13815   0.16741   0.45970   0.00000  Uiso   1.00
C30    C     0.09835   0.18292   0.48125   0.00000  Uiso   1.00
C31    C     0.16095   0.14738   0.47919   0.00000  Uiso   1.00
C32    C     0.14819   0.15052   0.02112   0.00000  Uiso   1.00
C33    C     0.10795   0.16511   0.04161   0.00000  Uiso   1.00
C34    C     0.08241   0.17964   0.02212   0.00000  Uiso   1.00
C35    C     0.19509   0.12300   0.45828   0.00000  Uiso   1.00
C36    C     0.22247   0.11127   0.47777   0.00000  Uiso   1.00
C37    C     0.21423   0.12076   0.01891   0.00000  Uiso   1.00
C38    C     0.17586   0.13857   0.04115   0.00000  Uiso   1.00
C39    C     0.24390   0.11295   0.03830   0.00000  Uiso   1.00
C40    C     0.23549   0.12130   0.07906   0.00000  Uiso   1.00
C41    C     0.16774   0.14573   0.08267   0.00000  Uiso   1.00
H42    H     0.13993   0.15989   0.10149   0.00000  Uiso   1.00
H43    H     0.25878   0.11523   0.09339   0.00000  Uiso   1.00
H44    H     0.04636   0.21574   0.47714   0.00000  Uiso   1.00
H45    H     0.07289   0.21875   0.40644   0.00000  Uiso   1.00
H46    H     0.18735   0.16793   0.40313   0.00000  Uiso   1.00
H47    H     0.09421   0.16363   0.07289   0.00000  Uiso   1.00
H48    H     0.27419   0.10106   0.02213   0.00000  Uiso   1.00
C49    C     0.32720   0.17812   0.23864   0.00000  Uiso   1.00
C50    C     0.00713   0.15749   0.26201   0.00000  Uiso   1.00
H51    H     0.31799   0.13849   0.28351   0.00000  Uiso   1.00
C52    C     0.18067   0.32233   0.24012   0.00000  Uiso   1.00
H53    H     0.20908   0.00308   0.21935   0.00000  Uiso   1.00
C54    C     0.15032   0.01277   0.26287   0.00000  Uiso   1.00
N55    N     0.04047   0.19120   0.04455   0.00000  Uiso   1.00
O56    O     0.03507   0.21063   0.07996   0.00000  Uiso   1.00
O57    O     0.00652   0.17604   0.03270   0.00000  Uiso   1.00
O58    O     0.02370   0.20051   0.21028   0.00000  Uiso   1.00
C59    C     0.02487   0.24327   0.22427   0.00000  Uiso   1.00
H60    H     0.02816   0.24914   0.25499   0.00000  Uiso   1.00
H61    H     0.32839   0.25563   0.22353   0.00000  Uiso   1.00
C62    C     0.06380   0.26695   0.19770   0.00000  Uiso   1.00
H63    H     0.06172   0.26200   0.16673   0.00000  Uiso   1.00
H64    H     0.06465   0.30077   0.20790   0.00000  Uiso   1.00
H65    H     0.09412   0.25593   0.19876   0.00000  Uiso   1.00
N66    N     0.11098   0.33018   0.29001   0.00000  Uiso   1.00
O67    O     0.07400   0.00262   0.28570   0.00000  Uiso   1.00
O68    O     0.11213   0.31997   0.32365   0.00000  Uiso   1.00
N69    N     0.25780   0.08828   0.45530   0.00000  Uiso   1.00
O70    O     0.26099   0.05215   0.46487   0.00000  Uiso   1.00
O71    O     0.28335   0.10073   0.42242   0.00000  Uiso   1.00
O72    O     0.20042   0.10751   0.41908   0.00000  Uiso   1.00
C73    C     0.17194   0.07066   0.41735   0.00000  Uiso   1.00
H74    H     0.13759   0.07693   0.43030   0.00000  Uiso   1.00
H75    H     0.17900   0.04673   0.43324   0.00000  Uiso   1.00
C76    C     0.17792   0.05317   0.37439   0.00000  Uiso   1.00
H77    H     0.21214   0.04748   0.36026   0.00000  Uiso   1.00
H78    H     0.15693   0.02330   0.37282   0.00000  Uiso   1.00
H79    H     0.16896   0.07548   0.35818   0.00000  Uiso   1.00
Zn80   Zn    0.52577   0.14090   0.28278   0.00000  Uiso   1.00
Zn81   Zn    0.46792   0.12378   0.22258   0.00000  Uiso   1.00
Zn82   Zn    0.54500   0.19664   0.21188   0.00000  Uiso   1.00
Zn83   Zn    0.46131   0.20535   0.28277   0.00000  Uiso   1.00
O84    O     0.50000   0.16667   0.25000   0.00000  Uiso   1.00
O85    O     0.40323   0.18960   0.27820   0.00000  Uiso   1.00
O86    O     0.58773   0.15277   0.26768   0.00000  Uiso   1.00
O87    O     0.47133   0.06903   0.23607   0.00000  Uiso   1.00
O88    O     0.53771   0.25527   0.21806   0.00000  Uiso   1.00
O89    O     0.49027   0.12393   0.16625   0.00000  Uiso   1.00
O90    O     0.46020   0.20646   0.33749   0.00000  Uiso   1.00
O91    O     0.54421   0.17493   0.15877   0.00000  Uiso   1.00
O92    O     0.50532   0.16135   0.33749   0.00000  Uiso   1.00
O93    O     0.51182   0.08101   0.27821   0.00000  Uiso   1.00
O94    O     0.47914   0.26136   0.26767   0.00000  Uiso   1.00
O95    O     0.40785   0.13251   0.23607   0.00000  Uiso   1.00
O96    O     0.60119   0.19179   0.21806   0.00000  Uiso   1.00
C97    C     0.38574   0.15962   0.25912   0.00000  Uiso   1.00
C98    C     0.61441   0.17398   0.24142   0.00000  Uiso   1.00
C99    C     0.48974   0.05625   0.25844   0.00000  Uiso   1.00
C100   C     0.51008   0.27769   0.24170   0.00000  Uiso   1.00
C101   C     0.52139   0.14549   0.14396   0.00000  Uiso   1.00
C102   C     0.47852   0.18750   0.35629   0.00000  Uiso   1.00
C103   C     0.46439   0.19063   0.39975   0.00000  Uiso   1.00
C104   C     0.53047   0.13695   0.10122   0.00000  Uiso   1.00
C105   C     0.40941   0.20252   0.46158   0.00000  Uiso   1.00
C106   C     0.42512   0.20543   0.42110   0.00000  Uiso   1.00
C107   C     0.48834   0.17425   0.41959   0.00000  Uiso   1.00
C108   C     0.47148   0.16741   0.45970   0.00000  Uiso   1.00
C109   C     0.43168   0.18292   0.48125   0.00000  Uiso   1.00
C110   C     0.49428   0.14738   0.47919   0.00000  Uiso   1.00
C111   C     0.48152   0.15052   0.02112   0.00000  Uiso   1.00
C112   C     0.44128   0.16511   0.04161   0.00000  Uiso   1.00
C113   C     0.41574   0.17964   0.02212   0.00000  Uiso   1.00
C114   C     0.52842   0.12300   0.45828   0.00000  Uiso   1.00
C115   C     0.55581   0.11127   0.47777   0.00000  Uiso   1.00
C116   C     0.54757   0.12076   0.01891   0.00000  Uiso   1.00
C117   C     0.50919   0.13857   0.04115   0.00000  Uiso   1.00
C118   C     0.57723   0.11295   0.03830   0.00000  Uiso   1.00
C119   C     0.56883   0.12130   0.07906   0.00000  Uiso   1.00
C120   C     0.50108   0.14573   0.08267   0.00000  Uiso   1.00
H121   H     0.47326   0.15989   0.10149   0.00000  Uiso   1.00
H122   H     0.59211   0.11523   0.09339   0.00000  Uiso   1.00
H123   H     0.37970   0.21574   0.47714   0.00000  Uiso   1.00
H124   H     0.40623   0.21875   0.40644   0.00000  Uiso   1.00
H125   H     0.52068   0.16793   0.40313   0.00000  Uiso   1.00
H126   H     0.42754   0.16363   0.07289   0.00000  Uiso   1.00
H127   H     0.60753   0.10106   0.02213   0.00000  Uiso   1.00
C128   C     0.66053   0.17812   0.23864   0.00000  Uiso   1.00
C129   C     0.34047   0.15749   0.26201   0.00000  Uiso   1.00
H130   H     0.65132   0.13849   0.28351   0.00000  Uiso   1.00
C131   C     0.51400   0.32233   0.24012   0.00000  Uiso   1.00
H132   H     0.54241   0.00308   0.21935   0.00000  Uiso   1.00
C133   C     0.48365   0.01277   0.26287   0.00000  Uiso   1.00
N134   N     0.37380   0.19120   0.04455   0.00000  Uiso   1.00
O135   O     0.36840   0.21063   0.07996   0.00000  Uiso   1.00
O136   O     0.33986   0.17604   0.03270   0.00000  Uiso   1.00
O137   O     0.35704   0.20051   0.21028   0.00000  Uiso   1.00
C138   C     0.35820   0.24327   0.22427   0.00000  Uiso   1.00
H139   H     0.36150   0.24914   0.25499   0.00000  Uiso   1.00
H140   H     0.66173   0.25563   0.22353   0.00000  Uiso   1.00
C141   C     0.39713   0.26695   0.19770   0.00000  Uiso   1.00
H142   H     0.39506   0.26200   0.16673   0.00000  Uiso   1.00
H143   H     0.39799   0.30077   0.20790   0.00000  Uiso   1.00
H144   H     0.42745   0.25593   0.19876   0.00000  Uiso   1.00
N145   N     0.44432   0.33018   0.29001   0.00000  Uiso   1.00
O146   O     0.40733   0.00262   0.28570   0.00000  Uiso   1.00
O147   O     0.44546   0.31997   0.32365   0.00000  Uiso   1.00
N148   N     0.59113   0.08828   0.45530   0.00000  Uiso   1.00
O149   O     0.59432   0.05215   0.46487   0.00000  Uiso   1.00
O150   O     0.61669   0.10073   0.42242   0.00000  Uiso   1.00
O151   O     0.53376   0.10751   0.41908   0.00000  Uiso   1.00
C152   C     0.50527   0.07066   0.41735   0.00000  Uiso   1.00
H153   H     0.47093   0.07693   0.43030   0.00000  Uiso   1.00
H154   H     0.51233   0.04673   0.43324   0.00000  Uiso   1.00
C155   C     0.51125   0.05317   0.37439   0.00000  Uiso   1.00
H156   H     0.54548   0.04748   0.36026   0.00000  Uiso   1.00
H157   H     0.49026   0.02330   0.37282   0.00000  Uiso   1.00
H158   H     0.50229   0.07548   0.35818   0.00000  Uiso   1.00
Zn159  Zn    0.85910   0.14090   0.28278   0.00000  Uiso   1.00
Zn160  Zn    0.80125   0.12378   0.22258   0.00000  Uiso   1.00
Zn161  Zn    0.87833   0.19664   0.21188   0.00000  Uiso   1.00
Zn162  Zn    0.79465   0.20535   0.28277   0.00000  Uiso   1.00
O163   O     0.83333   0.16667   0.25000   0.00000  Uiso   1.00
O164   O     0.73656   0.18960   0.27820   0.00000  Uiso   1.00
O165   O     0.92106   0.15277   0.26768   0.00000  Uiso   1.00
O166   O     0.80467   0.06903   0.23607   0.00000  Uiso   1.00
O167   O     0.87104   0.25527   0.21806   0.00000  Uiso   1.00
O168   O     0.82360   0.12393   0.16625   0.00000  Uiso   1.00
O169   O     0.79354   0.20646   0.33749   0.00000  Uiso   1.00
O170   O     0.87755   0.17493   0.15877   0.00000  Uiso   1.00
O171   O     0.83865   0.16135   0.33749   0.00000  Uiso   1.00
O172   O     0.84515   0.08101   0.27821   0.00000  Uiso   1.00
O173   O     0.81247   0.26136   0.26767   0.00000  Uiso   1.00
O174   O     0.74119   0.13251   0.23607   0.00000  Uiso   1.00
O175   O     0.93452   0.19179   0.21806   0.00000  Uiso   1.00
C176   C     0.71907   0.15962   0.25912   0.00000  Uiso   1.00
C177   C     0.94775   0.17398   0.24142   0.00000  Uiso   1.00
C178   C     0.82308   0.05625   0.25844   0.00000  Uiso   1.00
C179   C     0.84341   0.27769   0.24170   0.00000  Uiso   1.00
C180   C     0.85472   0.14549   0.14396   0.00000  Uiso   1.00
C181   C     0.81186   0.18750   0.35629   0.00000  Uiso   1.00
C182   C     0.79773   0.19063   0.39975   0.00000  Uiso   1.00
C183   C     0.86380   0.13695   0.10122   0.00000  Uiso   1.00
C184   C     0.74274   0.20252   0.46158   0.00000  Uiso   1.00
C185   C     0.75846   0.20543   0.42110   0.00000  Uiso   1.00
C186   C     0.82167   0.17425   0.41959   0.00000  Uiso   1.00
C187   C     0.80482   0.16741   0.45970   0.00000  Uiso   1.00
C188   C     0.76502   0.18292   0.48125   0.00000  Uiso   1.00
C189   C     0.82762   0.14738   0.47919   0.00000  Uiso   1.00
C190   C     0.81485   0.15052   0.02112   0.00000  Uiso   1.00
C191   C     0.77461   0.16511   0.04161   0.00000  Uiso   1.00
C192   C     0.74907   0.17964   0.02212   0.00000  Uiso   1.00
C193   C     0.86175   0.12300   0.45828   0.00000  Uiso   1.00
C194   C     0.88914   0.11127   0.47777   0.00000  Uiso   1.00
C195   C     0.88090   0.12076   0.01891   0.00000  Uiso   1.00
C196   C     0.84253   0.13857   0.04115   0.00000  Uiso   1.00
C197   C     0.91056   0.11295   0.03830   0.00000  Uiso   1.00
C198   C     0.90216   0.12130   0.07906   0.00000  Uiso   1.00
C199   C     0.83441   0.14573   0.08267   0.00000  Uiso   1.00
H200   H     0.80659   0.15989   0.10149   0.00000  Uiso   1.00
H201   H     0.92544   0.11523   0.09339   0.00000  Uiso   1.00
H202   H     0.71303   0.21574   0.47714   0.00000  Uiso   1.00
H203   H     0.73956   0.21875   0.40644   0.00000  Uiso   1.00
H204   H     0.85401   0.16793   0.40313   0.00000  Uiso   1.00
H205   H     0.76088   0.16363   0.07289   0.00000  Uiso   1.00
H206   H     0.94086   0.10106   0.02213   0.00000  Uiso   1.00
C207   C     0.99387   0.17812   0.23864   0.00000  Uiso   1.00
C208   C     0.67380   0.15749   0.26201   0.00000  Uiso   1.00
H209   H     0.98465   0.13849   0.28351   0.00000  Uiso   1.00
C210   C     0.84733   0.32233   0.24012   0.00000  Uiso   1.00
H211   H     0.87574   0.00308   0.21935   0.00000  Uiso   1.00
C212   C     0.81698   0.01277   0.26287   0.00000  Uiso   1.00
N213   N     0.70714   0.19120   0.04455   0.00000  Uiso   1.00
O214   O     0.70173   0.21063   0.07996   0.00000  Uiso   1.00
O215   O     0.67319   0.17604   0.03270   0.00000  Uiso   1.00
O216   O     0.69037   0.20051   0.21028   0.00000  Uiso   1.00
C217   C     0.69153   0.24327   0.22427   0.00000  Uiso   1.00
H218   H     0.69483   0.24914   0.25499   0.00000  Uiso   1.00
H219   H     0.99506   0.25563   0.22353   0.00000  Uiso   1.00
C220   C     0.73047   0.26695   0.19770   0.00000  Uiso   1.00
H221   H     0.72839   0.26200   0.16673   0.00000  Uiso   1.00
H222   H     0.73132   0.30077   0.20790   0.00000  Uiso   1.00
H223   H     0.76078   0.25593   0.19876   0.00000  Uiso   1.00
N224   N     0.77765   0.33018   0.29001   0.00000  Uiso   1.00
O225   O     0.74066   0.00262   0.28570   0.00000  Uiso   1.00
O226   O     0.77879   0.31997   0.32365   0.00000  Uiso   1.00
N227   N     0.92446   0.08828   0.45530   0.00000  Uiso   1.00
O228   O     0.92765   0.05215   0.46487   0.00000  Uiso   1.00
O229   O     0.95002   0.10073   0.42242   0.00000  Uiso   1.00
O230   O     0.86709   0.10751   0.41908   0.00000  Uiso   1.00
C231   C     0.83861   0.07066   0.41735   0.00000  Uiso   1.00
H232   H     0.80426   0.07693   0.43030   0.00000  Uiso   1.00
H233   H     0.84567   0.04673   0.43324   0.00000  Uiso   1.00
C234   C     0.84458   0.05317   0.37439   0.00000  Uiso   1.00
H235   H     0.87881   0.04748   0.36026   0.00000  Uiso   1.00
H236   H     0.82360   0.02330   0.37282   0.00000  Uiso   1.00
H237   H     0.83563   0.07548   0.35818   0.00000  Uiso   1.00
Zn238  Zn    0.19244   0.47423   0.28278   0.00000  Uiso   1.00
Zn239  Zn    0.13459   0.45711   0.22258   0.00000  Uiso   1.00
Zn240  Zn    0.21166   0.52997   0.21188   0.00000  Uiso   1.00
Zn241  Zn    0.12798   0.53868   0.28277   0.00000  Uiso   1.00
O242   O     0.16667   0.50000   0.25000   0.00000  Uiso   1.00
O243   O     0.06990   0.52293   0.27820   0.00000  Uiso   1.00
O244   O     0.25440   0.48610   0.26768   0.00000  Uiso   1.00
O245   O     0.13800   0.40236   0.23607   0.00000  Uiso   1.00
O246   O     0.20437   0.58860   0.21806   0.00000  Uiso   1.00
O247   O     0.15693   0.45726   0.16625   0.00000  Uiso   1.00
O248   O     0.12687   0.53979   0.33749   0.00000  Uiso   1.00
O249   O     0.21088   0.50826   0.15877   0.00000  Uiso   1.00
O250   O     0.17198   0.49468   0.33749   0.00000  Uiso   1.00
O251   O     0.17849   0.41434   0.27821   0.00000  Uiso   1.00
O252   O     0.14581   0.59469   0.26767   0.00000  Uiso   1.00
O253   O     0.07452   0.46584   0.23607   0.00000  Uiso   1.00
O254   O     0.26785   0.52512   0.21806   0.00000  Uiso   1.00
C255   C     0.05240   0.49295   0.25912   0.00000  Uiso   1.00
C256   C     0.28108   0.50732   0.24142   0.00000  Uiso   1.00
C257   C     0.15641   0.38958   0.25844   0.00000  Uiso   1.00
C258   C     0.17675   0.61102   0.24170   0.00000  Uiso   1.00
C259   C     0.18805   0.47883   0.14396   0.00000  Uiso   1.00
C260   C     0.14519   0.52083   0.35629   0.00000  Uiso   1.00
C261   C     0.13106   0.52396   0.39975   0.00000  Uiso   1.00
C262   C     0.19713   0.47028   0.10122   0.00000  Uiso   1.00
C263   C     0.07607   0.53585   0.46158   0.00000  Uiso   1.00
C264   C     0.09179   0.53877   0.42110   0.00000  Uiso   1.00
C265   C     0.15500   0.50758   0.41959   0.00000  Uiso   1.00
C266   C     0.13815   0.50074   0.45970   0.00000  Uiso   1.00
C267   C     0.09835   0.51626   0.48125   0.00000  Uiso   1.00
C268   C     0.16095   0.48072   0.47919   0.00000  Uiso   1.00
C269   C     0.14819   0.48386   0.02112   0.00000  Uiso   1.00
C270   C     0.10795   0.49845   0.04161   0.00000  Uiso   1.00
C271   C     0.08241   0.51298   0.02212   0.00000  Uiso   1.00
C272   C     0.19509   0.45634   0.45828   0.00000  Uiso   1.00
C273   C     0.22247   0.44460   0.47777   0.00000  Uiso   1.00
C274   C     0.21423   0.45409   0.01891   0.00000  Uiso   1.00
C275   C     0.17586   0.47191   0.04115   0.00000  Uiso   1.00
C276   C     0.24390   0.44628   0.03830   0.00000  Uiso   1.00
C277   C     0.23549   0.45464   0.07906   0.00000  Uiso   1.00
C278   C     0.16774   0.47907   0.08267   0.00000  Uiso   1.00
H279   H     0.13993   0.49322   0.10149   0.00000  Uiso   1.00
H280   H     0.25878   0.44856   0.09339   0.00000  Uiso   1.00
H281   H     0.04636   0.54907   0.47714   0.00000  Uiso   1.00
H282   H     0.07289   0.55209   0.40644   0.00000  Uiso   1.00
H283   H     0.18735   0.50126   0.40313   0.00000  Uiso   1.00
H284   H     0.09421   0.49696   0.07289   0.00000  Uiso   1.00
H285   H     0.27419   0.43440   0.02213   0.00000  Uiso   1.00
C286   C     0.32720   0.51145   0.23864   0.00000  Uiso   1.00
C287   C     0.00713   0.49083   0.26201   0.00000  Uiso   1.00
H288   H     0.31799   0.47183   0.28351   0.00000  Uiso   1.00
C289   C     0.18067   0.65566   0.24012   0.00000  Uiso   1.00
H290   H     0.20908   0.33641   0.21935   0.00000  Uiso   1.00
C291   C     0.15032   0.34611   0.26287   0.00000  Uiso   1.00
N292   N     0.04047   0.52454   0.04455   0.00000  Uiso   1.00
O293   O     0.03507   0.54397   0.07996   0.00000  Uiso   1.00
O294   O     0.00652   0.50938   0.03270   0.00000  Uiso   1.00
O295   O     0.02370   0.53385   0.21028   0.00000  Uiso   1.00
C296   C     0.02487   0.57660   0.22427   0.00000  Uiso   1.00
H297   H     0.02816   0.58247   0.25499   0.00000  Uiso   1.00
H298   H     0.32839   0.58896   0.22353   0.00000  Uiso   1.00
C299   C     0.06380   0.60029   0.19770   0.00000  Uiso   1.00
H300   H     0.06172   0.59533   0.16673   0.00000  Uiso   1.00
H301   H     0.06465   0.63410   0.20790   0.00000  Uiso   1.00
H302   H     0.09412   0.58926   0.19876   0.00000  Uiso   1.00
N303   N     0.11098   0.66351   0.29001   0.00000  Uiso   1.00
O304   O     0.07400   0.33596   0.28570   0.00000  Uiso   1.00
O305   O     0.11213   0.65330   0.32365   0.00000  Uiso   1.00
N306   N     0.25780   0.42161   0.45530   0.00000  Uiso   1.00
O307   O     0.26099   0.38549   0.46487   0.00000  Uiso   1.00
O308   O     0.28335   0.43406   0.42242   0.00000  Uiso   1.00
O309   O     0.20042   0.44084   0.41908   0.00000  Uiso   1.00
C310   C     0.17194   0.40399   0.41735   0.00000  Uiso   1.00
H311   H     0.13759   0.41026   0.43030   0.00000  Uiso   1.00
H312   H     0.17900   0.38006   0.43324   0.00000  Uiso   1.00
C313   C     0.17792   0.38650   0.37439   0.00000  Uiso   1.00
H314   H     0.21214   0.38081   0.36026   0.00000  Uiso   1.00
H315   H     0.15693   0.35663   0.37282   0.00000  Uiso   1.00
H316   H     0.16896   0.40881   0.35818   0.00000  Uiso   1.00
Zn317  Zn    0.52577   0.47423   0.28278   0.00000  Uiso   1.00
Zn318  Zn    0.46792   0.45711   0.22258   0.00000  Uiso   1.00
Zn319  Zn    0.54500   0.52997   0.21188   0.00000  Uiso   1.00
Zn320  Zn    0.46131   0.53868   0.28277   0.00000  Uiso   1.00
O321   O     0.50000   0.50000   0.25000   0.00000  Uiso   1.00
O322   O     0.40323   0.52293   0.27820   0.00000  Uiso   1.00
O323   O     0.58773   0.48610   0.26768   0.00000  Uiso   1.00
O324   O     0.47133   0.40236   0.23607   0.00000  Uiso   1.00
O325   O     0.53771   0.58860   0.21806   0.00000  Uiso   1.00
O326   O     0.49027   0.45726   0.16625   0.00000  Uiso   1.00
O327   O     0.46020   0.53979   0.33749   0.00000  Uiso   1.00
O328   O     0.54421   0.50826   0.15877   0.00000  Uiso   1.00
O329   O     0.50532   0.49468   0.33749   0.00000  Uiso   1.00
O330   O     0.51182   0.41434   0.27821   0.00000  Uiso   1.00
O331   O     0.47914   0.59469   0.26767   0.00000  Uiso   1.00
O332   O     0.40785   0.46584   0.23607   0.00000  Uiso   1.00
O333   O     0.60119   0.52512   0.21806   0.00000  Uiso   1.00
C334   C     0.38574   0.49295   0.25912   0.00000  Uiso   1.00
C335   C     0.61441   0.50732   0.24142   0.00000  Uiso   1.00
C336   C     0.48974   0.38958   0.25844   0.00000  Uiso   1.00
C337   C     0.51008   0.61102   0.24170   0.00000  Uiso   1.00
C338   C     0.52139   0.47883   0.14396   0.00000  Uiso   1.00
C339   C     0.47852   0.52083   0.35629   0.00000  Uiso   1.00
C340   C     0.46439   0.52396   0.39975   0.00000  Uiso   1.00
C341   C     0.53047   0.47028   0.10122   0.00000  Uiso   1.00
C342   C     0.40941   0.53585   0.46158   0.00000  Uiso   1.00
C343   C     0.42512   0.53877   0.42110   0.00000  Uiso   1.00
C344   C     0.48834   0.50758   0.41959   0.00000  Uiso   1.00
C345   C     0.47148   0.50074   0.45970   0.00000  Uiso   1.00
C346   C     0.43168   0.51626   0.48125   0.00000  Uiso   1.00
C347   C     0.49428   0.48072   0.47919   0.00000  Uiso   1.00
C348   C     0.48152   0.48386   0.02112   0.00000  Uiso   1.00
C349   C     0.44128   0.49845   0.04161   0.00000  Uiso   1.00
C350   C     0.41574   0.51298   0.02212   0.00000  Uiso   1.00
C351   C     0.52842   0.45634   0.45828   0.00000  Uiso   1.00
C352   C     0.55581   0.44460   0.47777   0.00000  Uiso   1.00
C353   C     0.54757   0.45409   0.01891   0.00000  Uiso   1.00
C354   C     0.50919   0.47191   0.04115   0.00000  Uiso   1.00
C355   C     0.57723   0.44628   0.03830   0.00000  Uiso   1.00
C356   C     0.56883   0.45464   0.07906   0.00000  Uiso   1.00
C357   C     0.50108   0.47907   0.08267   0.00000  Uiso   1.00
H358   H     0.47326   0.49322   0.10149   0.00000  Uiso   1.00
H359   H     0.59211   0.44856   0.09339   0.00000  Uiso   1.00
H360   H     0.37970   0.54907   0.47714   0.00000  Uiso   1.00
H361   H     0.40623   0.55209   0.40644   0.00000  Uiso   1.00
H362   H     0.52068   0.50126   0.40313   0.00000  Uiso   1.00
H363   H     0.42754   0.49696   0.07289   0.00000  Uiso   1.00
H364   H     0.60753   0.43440   0.02213   0.00000  Uiso   1.00
C365   C     0.66053   0.51145   0.23864   0.00000  Uiso   1.00
C366   C     0.34047   0.49083   0.26201   0.00000  Uiso   1.00
H367   H     0.65132   0.47183   0.28351   0.00000  Uiso   1.00
C368   C     0.51400   0.65566   0.24012   0.00000  Uiso   1.00
H369   H     0.54241   0.33641   0.21935   0.00000  Uiso   1.00
C370   C     0.48365   0.34611   0.26287   0.00000  Uiso   1.00
N371   N     0.37380   0.52454   0.04455   0.00000  Uiso   1.00
O372   O     0.36840   0.54397   0.07996   0.00000  Uiso   1.00
O373   O     0.33986   0.50938   0.03270   0.00000  Uiso   1.00
O374   O     0.35704   0.53385   0.21028   0.00000  Uiso   1.00
C375   C     0.35820   0.57660   0.22427   0.00000  Uiso   1.00
H376   H     0.36150   0.58247   0.25499   0.00000  Uiso   1.00
H377   H     0.66173   0.58896   0.22353   0.00000  Uiso   1.00
C378   C     0.39713   0.60029   0.19770   0.00000  Uiso   1.00
H379   H     0.39506   0.59533   0.16673   0.00000  Uiso   1.00
H380   H     0.39799   0.63410   0.20790   0.00000  Uiso   1.00
H381   H     0.42745   0.58926   0.19876   0.00000  Uiso   1.00
N382   N     0.44432   0.66351   0.29001   0.00000  Uiso   1.00
O383   O     0.40733   0.33596   0.28570   0.00000  Uiso   1.00
O384   O     0.44546   0.65330   0.32365   0.00000  Uiso   1.00
N385   N     0.59113   0.42161   0.45530   0.00000  Uiso   1.00
O386   O     0.59432   0.38549   0.46487   0.00000  Uiso   1.00
O387   O     0.61669   0.43406   0.42242   0.00000  Uiso   1.00
O388   O     0.53376   0.44084   0.41908   0.00000  Uiso   1.00
C389   C     0.50527   0.40399   0.41735   0.00000  Uiso   1.00
H390   H     0.47093   0.41026   0.43030   0.00000  Uiso   1.00
H391   H     0.51233   0.38006   0.43324   0.00000  Uiso   1.00
C392   C     0.51125   0.38650   0.37439   0.00000  Uiso   1.00
H393   H     0.54548   0.38081   0.36026   0.00000  Uiso   1.00
H394   H     0.49026   0.35663   0.37282   0.00000  Uiso   1.00
H395   H     0.50229   0.40881   0.35818   0.00000  Uiso   1.00
Zn396  Zn    0.85910   0.47423   0.28278   0.00000  Uiso   1.00
Zn397  Zn    0.80125   0.45711   0.22258   0.00000  Uiso   1.00
Zn398  Zn    0.87833   0.52997   0.21188   0.00000  Uiso   1.00
Zn399  Zn    0.79465   0.53868   0.28277   0.00000  Uiso   1.00
O400   O     0.83333   0.50000   0.25000   0.00000  Uiso   1.00
O401   O     0.73656   0.52293   0.27820   0.00000  Uiso   1.00
O402   O     0.92106   0.48610   0.26768   0.00000  Uiso   1.00
O403   O     0.80467   0.40236   0.23607   0.00000  Uiso   1.00
O404   O     0.87104   0.58860   0.21806   0.00000  Uiso   1.00
O405   O     0.82360   0.45726   0.16625   0.00000  Uiso   1.00
O406   O     0.79354   0.53979   0.33749   0.00000  Uiso   1.00
O407   O     0.87755   0.50826   0.15877   0.00000  Uiso   1.00
O408   O     0.83865   0.49468   0.33749   0.00000  Uiso   1.00
O409   O     0.84515   0.41434   0.27821   0.00000  Uiso   1.00
O410   O     0.81247   0.59469   0.26767   0.00000  Uiso   1.00
O411   O     0.74119   0.46584   0.23607   0.00000  Uiso   1.00
O412   O     0.93452   0.52512   0.21806   0.00000  Uiso   1.00
C413   C     0.71907   0.49295   0.25912   0.00000  Uiso   1.00
C414   C     0.94775   0.50732   0.24142   0.00000  Uiso   1.00
C415   C     0.82308   0.38958   0.25844   0.00000  Uiso   1.00
C416   C     0.84341   0.61102   0.24170   0.00000  Uiso   1.00
C417   C     0.85472   0.47883   0.14396   0.00000  Uiso   1.00
C418   C     0.81186   0.52083   0.35629   0.00000  Uiso   1.00
C419   C     0.79773   0.52396   0.39975   0.00000  Uiso   1.00
C420   C     0.86380   0.47028   0.10122   0.00000  Uiso   1.00
C421   C     0.74274   0.53585   0.46158   0.00000  Uiso   1.00
C422   C     0.75846   0.53877   0.42110   0.00000  Uiso   1.00
C423   C     0.82167   0.50758   0.41959   0.00000  Uiso   1.00
C424   C     0.80482   0.50074   0.45970   0.00000  Uiso   1.00
C425   C     0.76502   0.51626   0.48125   0.00000  Uiso   1.00
C426   C     0.82762   0.48072   0.47919   0.00000  Uiso   1.00
C427   C     0.81485   0.48386   0.02112   0.00000  Uiso   1.00
C428   C     0.77461   0.49845   0.04161   0.00000  Uiso   1.00
C429   C     0.74907   0.51298   0.02212   0.00000  Uiso   1.00
C430   C     0.86175   0.45634   0.45828   0.00000  Uiso   1.00
C431   C     0.88914   0.44460   0.47777   0.00000  Uiso   1.00
C432   C     0.88090   0.45409   0.01891   0.00000  Uiso   1.00
C433   C     0.84253   0.47191   0.04115   0.00000  Uiso   1.00
C434   C     0.91056   0.44628   0.03830   0.00000  Uiso   1.00
C435   C     0.90216   0.45464   0.07906   0.00000  Uiso   1.00
C436   C     0.83441   0.47907   0.08267   0.00000  Uiso   1.00
H437   H     0.80659   0.49322   0.10149   0.00000  Uiso   1.00
H438   H     0.92544   0.44856   0.09339   0.00000  Uiso   1.00
H439   H     0.71303   0.54907   0.47714   0.00000  Uiso   1.00
H440   H     0.73956   0.55209   0.40644   0.00000  Uiso   1.00
H441   H     0.85401   0.50126   0.40313   0.00000  Uiso   1.00
H442   H     0.76088   0.49696   0.07289   0.00000  Uiso   1.00
H443   H     0.94086   0.43440   0.02213   0.00000  Uiso   1.00
C444   C     0.99387   0.51145   0.23864   0.00000  Uiso   1.00
C445   C     0.67380   0.49083   0.26201   0.00000  Uiso   1.00
H446   H     0.98465   0.47183   0.28351   0.00000  Uiso   1.00
C447   C     0.84733   0.65566   0.24012   0.00000  Uiso   1.00
H448   H     0.87574   0.33641   0.21935   0.00000  Uiso   1.00
C449   C     0.81698   0.34611   0.26287   0.00000  Uiso   1.00
N450   N     0.70714   0.52454   0.04455   0.00000  Uiso   1.00
O451   O     0.70173   0.54397   0.07996   0.00000  Uiso   1.00
O452   O     0.67319   0.50938   0.03270   0.00000  Uiso   1.00
O453   O     0.69037   0.53385   0.21028   0.00000  Uiso   1.00
C454   C     0.69153   0.57660   0.22427   0.00000  Uiso   1.00
H455   H     0.69483   0.58247   0.25499   0.00000  Uiso   1.00
H456   H     0.99506   0.58896   0.22353   0.00000  Uiso   1.00
C457   C     0.73047   0.60029   0.19770   0.00000  Uiso   1.00
H458   H     0.72839   0.59533   0.16673   0.00000  Uiso   1.00
H459   H     0.73132   0.63410   0.20790   0.00000  Uiso   1.00
H460   H     0.76078   0.58926   0.19876   0.00000  Uiso   1.00
N461   N     0.77765   0.66351   0.29001   0.00000  Uiso   1.00
O462   O     0.74066   0.33596   0.28570   0.00000  Uiso   1.00
O463   O     0.77879   0.65330   0.32365   0.00000  Uiso   1.00
N464   N     0.92446   0.42161   0.45530   0.00000  Uiso   1.00
O465   O     0.92765   0.38549   0.46487   0.00000  Uiso   1.00
O466   O     0.95002   0.43406   0.42242   0.00000  Uiso   1.00
O467   O     0.86709   0.44084   0.41908   0.00000  Uiso   1.00
C468   C     0.83861   0.40399   0.41735   0.00000  Uiso   1.00
H469   H     0.80426   0.41026   0.43030   0.00000  Uiso   1.00
H470   H     0.84567   0.38006   0.43324   0.00000  Uiso   1.00
C471   C     0.84458   0.38650   0.37439   0.00000  Uiso   1.00
H472   H     0.87881   0.38081   0.36026   0.00000  Uiso   1.00
H473   H     0.82360   0.35663   0.37282   0.00000  Uiso   1.00
H474   H     0.83563   0.40881   0.35818   0.00000  Uiso   1.00
Zn475  Zn    0.19244   0.80756   0.28278   0.00000  Uiso   1.00
Zn476  Zn    0.13459   0.79044   0.22258   0.00000  Uiso   1.00
Zn477  Zn    0.21166   0.86331   0.21188   0.00000  Uiso   1.00
Zn478  Zn    0.12798   0.87202   0.28277   0.00000  Uiso   1.00
O479   O     0.16667   0.83333   0.25000   0.00000  Uiso   1.00
O480   O     0.06990   0.85627   0.27820   0.00000  Uiso   1.00
O481   O     0.25440   0.81944   0.26768   0.00000  Uiso   1.00
O482   O     0.13800   0.73570   0.23607   0.00000  Uiso   1.00
O483   O     0.20437   0.92193   0.21806   0.00000  Uiso   1.00
O484   O     0.15693   0.79060   0.16625   0.00000  Uiso   1.00
O485   O     0.12687   0.87313   0.33749   0.00000  Uiso   1.00
O486   O     0.21088   0.84159   0.15877   0.00000  Uiso   1.00
O487   O     0.17198   0.82802   0.33749   0.00000  Uiso   1.00
O488   O     0.17849   0.74768   0.27821   0.00000  Uiso   1.00
O489   O     0.14581   0.92803   0.26767   0.00000  Uiso   1.00
O490   O     0.07452   0.79917   0.23607   0.00000  Uiso   1.00
O491   O     0.26785   0.85845   0.21806   0.00000  Uiso   1.00
C492   C     0.05240   0.82629   0.25912   0.00000  Uiso   1.00
C493   C     0.28108   0.84065   0.24142   0.00000  Uiso   1.00
C494   C     0.15641   0.72292   0.25844   0.00000  Uiso   1.00
C495   C     0.17675   0.94436   0.24170   0.00000  Uiso   1.00
C496   C     0.18805   0.81216   0.14396   0.00000  Uiso   1.00
C497   C     0.14519   0.85416   0.35629   0.00000  Uiso   1.00
C498   C     0.13106   0.85730   0.39975   0.00000  Uiso   1.00
C499   C     0.19713   0.80362   0.10122   0.00000  Uiso   1.00
C500   C     0.07607   0.86919   0.46158   0.00000  Uiso   1.00
C501   C     0.09179   0.87210   0.42110   0.00000  Uiso   1.00
C502   C     0.15500   0.84091   0.41959   0.00000  Uiso   1.00
C503   C     0.13815   0.83407   0.45970   0.00000  Uiso   1.00
C504   C     0.09835   0.84959   0.48125   0.00000  Uiso   1.00
C505   C     0.16095   0.81405   0.47919   0.00000  Uiso   1.00
C506   C     0.14819   0.81719   0.02112   0.00000  Uiso   1.00
C507   C     0.10795   0.83178   0.04161   0.00000  Uiso   1.00
C508   C     0.08241   0.84631   0.02212   0.00000  Uiso   1.00
C509   C     0.19509   0.78967   0.45828   0.00000  Uiso   1.00
C510   C     0.22247   0.77794   0.47777   0.00000  Uiso   1.00
C511   C     0.21423   0.78742   0.01891   0.00000  Uiso   1.00
C512   C     0.17586   0.80524   0.04115   0.00000  Uiso   1.00
C513   C     0.24390   0.77961   0.03830   0.00000  Uiso   1.00
C514   C     0.23549   0.78797   0.07906   0.00000  Uiso   1.00
C515   C     0.16774   0.81240   0.08267   0.00000  Uiso   1.00
H516   H     0.13993   0.82655   0.10149   0.00000  Uiso   1.00
H517   H     0.25878   0.78189   0.09339   0.00000  Uiso   1.00
H518   H     0.04636   0.88240   0.47714   0.00000  Uiso   1.00
H519   H     0.07289   0.88542   0.40644   0.00000  Uiso   1.00
H520   H     0.18735   0.83460   0.40313   0.00000  Uiso   1.00
H521   H     0.09421   0.83030   0.07289   0.00000  Uiso   1.00
H522   H     0.27419   0.76773   0.02213   0.00000  Uiso   1.00
C523   C     0.32720   0.84478   0.23864   0.00000  Uiso   1.00
C524   C     0.00713   0.82416   0.26201   0.00000  Uiso   1.00
H525   H     0.31799   0.80516   0.28351   0.00000  Uiso   1.00
C526   C     0.18067   0.98900   0.24012   0.00000  Uiso   1.00
H527   H     0.20908   0.66974   0.21935   0.00000  Uiso   1.00
C528   C     0.15032   0.67944   0.26287   0.00000  Uiso   1.00
N529   N     0.04047   0.85787   0.04455   0.00000  Uiso   1.00
O530   O     0.03507   0.87730   0.07996   0.00000  Uiso   1.00
O531   O     0.00652   0.84271   0.03270   0.00000  Uiso   1.00
O532   O     0.02370   0.86718   0.21028   0.00000  Uiso   1.00
C533   C     0.02487   0.90994   0.22427   0.00000  Uiso   1.00
H534   H     0.02816   0.91580   0.25499   0.00000  Uiso   1.00
H535   H     0.32839   0.92229   0.22353   0.00000  Uiso   1.00
C536   C     0.06380   0.93362   0.19770   0.00000  Uiso   1.00
H537   H     0.06172   0.92866   0.16673   0.00000  Uiso   1.00
H538   H     0.06465   0.96743   0.20790   0.00000  Uiso   1.00
H539   H     0.09412   0.92259   0.19876   0.00000  Uiso   1.00
N540   N     0.11098   0.99685   0.29001   0.00000  Uiso   1.00
O541   O     0.07400   0.66929   0.28570   0.00000  Uiso   1.00
O542   O     0.11213   0.98664   0.32365   0.00000  Uiso   1.00
N543   N     0.25780   0.75495   0.45530   0.00000  Uiso   1.00
O544   O     0.26099   0.71882   0.46487   0.00000  Uiso   1.00
O545   O     0.28335   0.76739   0.42242   0.00000  Uiso   1.00
O546   O     0.20042   0.77418   0.41908   0.00000  Uiso   1.00
C547   C     0.17194   0.73733   0.41735   0.00000  Uiso   1.00
H548   H     0.13759   0.74360   0.43030   0.00000  Uiso   1.00
H549   H     0.17900   0.71339   0.43324   0.00000  Uiso   1.00
C550   C     0.17792   0.71984   0.37439   0.00000  Uiso   1.00
H551   H     0.21214   0.71414   0.36026   0.00000  Uiso   1.00
H552   H     0.15693   0.68997   0.37282   0.00000  Uiso   1.00
H553   H     0.16896   0.74215   0.35818   0.00000  Uiso   1.00
Zn554  Zn    0.52577   0.80756   0.28278   0.00000  Uiso   1.00
Zn555  Zn    0.46792   0.79044   0.22258   0.00000  Uiso   1.00
Zn556  Zn    0.54500   0.86331   0.21188   0.00000  Uiso   1.00
Zn557  Zn    0.46131   0.87202   0.28277   0.00000  Uiso   1.00
O558   O     0.50000   0.83333   0.25000   0.00000  Uiso   1.00
O559   O     0.40323   0.85627   0.27820   0.00000  Uiso   1.00
O560   O     0.58773   0.81944   0.26768   0.00000  Uiso   1.00
O561   O     0.47133   0.73570   0.23607   0.00000  Uiso   1.00
O562   O     0.53771   0.92193   0.21806   0.00000  Uiso   1.00
O563   O     0.49027   0.79060   0.16625   0.00000  Uiso   1.00
O564   O     0.46020   0.87313   0.33749   0.00000  Uiso   1.00
O565   O     0.54421   0.84159   0.15877   0.00000  Uiso   1.00
O566   O     0.50532   0.82802   0.33749   0.00000  Uiso   1.00
O567   O     0.51182   0.74768   0.27821   0.00000  Uiso   1.00
O568   O     0.47914   0.92803   0.26767   0.00000  Uiso   1.00
O569   O     0.40785   0.79917   0.23607   0.00000  Uiso   1.00
O570   O     0.60119   0.85845   0.21806   0.00000  Uiso   1.00
C571   C     0.38574   0.82629   0.25912   0.00000  Uiso   1.00
C572   C     0.61441   0.84065   0.24142   0.00000  Uiso   1.00
C573   C     0.48974   0.72292   0.25844   0.00000  Uiso   1.00
C574   C     0.51008   0.94436   0.24170   0.00000  Uiso   1.00
C575   C     0.52139   0.81216   0.14396   0.00000  Uiso   1.00
C576   C     0.47852   0.85416   0.35629   0.00000  Uiso   1.00
C577   C     0.46439   0.85730   0.39975   0.00000  Uiso   1.00
C578   C     0.53047   0.80362   0.10122   0.00000  Uiso   1.00
C579   C     0.40941   0.86919   0.46158   0.00000  Uiso   1.00
C580   C     0.42512   0.87210   0.42110   0.00000  Uiso   1.00
C581   C     0.48834   0.84091   0.41959   0.00000  Uiso   1.00
C582   C     0.47148   0.83407   0.45970   0.00000  Uiso   1.00
C583   C     0.43168   0.84959   0.48125   0.00000  Uiso   1.00
C584   C     0.49428   0.81405   0.47919   0.00000  Uiso   1.00
C585   C     0.48152   0.81719   0.02112   0.00000  Uiso   1.00
C586   C     0.44128   0.83178   0.04161   0.00000  Uiso   1.00
C587   C     0.41574   0.84631   0.02212   0.00000  Uiso   1.00
C588   C     0.52842   0.78967   0.45828   0.00000  Uiso   1.00
C589   C     0.55581   0.77794   0.47777   0.00000  Uiso   1.00
C590   C     0.54757   0.78742   0.01891   0.00000  Uiso   1.00
C591   C     0.50919   0.80524   0.04115   0.00000  Uiso   1.00
C592   C     0.57723   0.77961   0.03830   0.00000  Uiso   1.00
C593   C     0.56883   0.78797   0.07906   0.00000  Uiso   1.00
C594   C     0.50108   0.81240   0.08267   0.00000  Uiso   1.00
H595   H     0.47326   0.82655   0.10149   0.00000  Uiso   1.00
H596   H     0.59211   0.78189   0.09339   0.00000  Uiso   1.00
H597   H     0.37970   0.88240   0.47714   0.00000  Uiso   1.00
H598   H     0.40623   0.88542   0.40644   0.00000  Uiso   1.00
H599   H     0.52068   0.83460   0.40313   0.00000  Uiso   1.00
H600   H     0.42754   0.83030   0.07289   0.00000  Uiso   1.00
H601   H     0.60753   0.76773   0.02213   0.00000  Uiso   1.00
C602   C     0.66053   0.84478   0.23864   0.00000  Uiso   1.00
C603   C     0.34047   0.82416   0.26201   0.00000  Uiso   1.00
H604   H     0.65132   0.80516   0.28351   0.00000  Uiso   1.00
C605   C     0.51400   0.98900   0.24012   0.00000  Uiso   1.00
H606   H     0.54241   0.66974   0.21935   0.00000  Uiso   1.00
C607   C     0.48365   0.67944   0.26287   0.00000  Uiso   1.00
N608   N     0.37380   0.85787   0.04455   0.00000  Uiso   1.00
O609   O     0.36840   0.87730   0.07996   0.00000  Uiso   1.00
O610   O     0.33986   0.84271   0.03270   0.00000  Uiso   1.00
O611   O     0.35704   0.86718   0.21028   0.00000  Uiso   1.00
C612   C     0.35820   0.90994   0.22427   0.00000  Uiso   1.00
H613   H     0.36150   0.91580   0.25499   0.00000  Uiso   1.00
H614   H     0.66173   0.92229   0.22353   0.00000  Uiso   1.00
C615   C     0.39713   0.93362   0.19770   0.00000  Uiso   1.00
H616   H     0.39506   0.92866   0.16673   0.00000  Uiso   1.00
H617   H     0.39799   0.96743   0.20790   0.00000  Uiso   1.00
H618   H     0.42745   0.92259   0.19876   0.00000  Uiso   1.00
N619   N     0.44432   0.99685   0.29001   0.00000  Uiso   1.00
O620   O     0.40733   0.66929   0.28570   0.00000  Uiso   1.00
O621   O     0.44546   0.98664   0.32365   0.00000  Uiso   1.00
N622   N     0.59113   0.75495   0.45530   0.00000  Uiso   1.00
O623   O     0.59432   0.71882   0.46487   0.00000  Uiso   1.00
O624   O     0.61669   0.76739   0.42242   0.00000  Uiso   1.00
O625   O     0.53376   0.77418   0.41908   0.00000  Uiso   1.00
C626   C     0.50527   0.73733   0.41735   0.00000  Uiso   1.00
H627   H     0.47093   0.74360   0.43030   0.00000  Uiso   1.00
H628   H     0.51233   0.71339   0.43324   0.00000  Uiso   1.00
C629   C     0.51125   0.71984   0.37439   0.00000  Uiso   1.00
H630   H     0.54548   0.71414   0.36026   0.00000  Uiso   1.00
H631   H     0.49026   0.68997   0.37282   0.00000  Uiso   1.00
H632   H     0.50229   0.74215   0.35818   0.00000  Uiso   1.00
Zn633  Zn    0.85910   0.80756   0.28278   0.00000  Uiso   1.00
Zn634  Zn    0.80125   0.79044   0.22258   0.00000  Uiso   1.00
Zn635  Zn    0.87833   0.86331   0.21188   0.00000  Uiso   1.00
Zn636  Zn    0.79465   0.87202   0.28277   0.00000  Uiso   1.00
O637   O     0.83333   0.83333   0.25000   0.00000  Uiso   1.00
O638   O     0.73656   0.85627   0.27820   0.00000  Uiso   1.00
O639   O     0.92106   0.81944   0.26768   0.00000  Uiso   1.00
O640   O     0.80467   0.73570   0.23607   0.00000  Uiso   1.00
O641   O     0.87104   0.92193   0.21806   0.00000  Uiso   1.00
O642   O     0.82360   0.79060   0.16625   0.00000  Uiso   1.00
O643   O     0.79354   0.87313   0.33749   0.00000  Uiso   1.00
O644   O     0.87755   0.84159   0.15877   0.00000  Uiso   1.00
O645   O     0.83865   0.82802   0.33749   0.00000  Uiso   1.00
O646   O     0.84515   0.74768   0.27821   0.00000  Uiso   1.00
O647   O     0.81247   0.92803   0.26767   0.00000  Uiso   1.00
O648   O     0.74119   0.79917   0.23607   0.00000  Uiso   1.00
O649   O     0.93452   0.85845   0.21806   0.00000  Uiso   1.00
C650   C     0.71907   0.82629   0.25912   0.00000  Uiso   1.00
C651   C     0.94775   0.84065   0.24142   0.00000  Uiso   1.00
C652   C     0.82308   0.72292   0.25844   0.00000  Uiso   1.00
C653   C     0.84341   0.94436   0.24170   0.00000  Uiso   1.00
C654   C     0.85472   0.81216   0.14396   0.00000  Uiso   1.00
C655   C     0.81186   0.85416   0.35629   0.00000  Uiso   1.00
C656   C     0.79773   0.85730   0.39975   0.00000  Uiso   1.00
C657   C     0.86380   0.80362   0.10122   0.00000  Uiso   1.00
C658   C     0.74274   0.86919   0.46158   0.00000  Uiso   1.00
C659   C     0.75846   0.87210   0.42110   0.00000  Uiso   1.00
C660   C     0.82167   0.84091   0.41959   0.00000  Uiso   1.00
C661   C     0.80482   0.83407   0.45970   0.00000  Uiso   1.00
C662   C     0.76502   0.84959   0.48125   0.00000  Uiso   1.00
C663   C     0.82762   0.81405   0.47919   0.00000  Uiso   1.00
C664   C     0.81485   0.81719   0.02112   0.00000  Uiso   1.00
C665   C     0.77461   0.83178   0.04161   0.00000  Uiso   1.00
C666   C     0.74907   0.84631   0.02212   0.00000  Uiso   1.00
C667   C     0.86175   0.78967   0.45828   0.00000  Uiso   1.00
C668   C     0.88914   0.77794   0.47777   0.00000  Uiso   1.00
C669   C     0.88090   0.78742   0.01891   0.00000  Uiso   1.00
C670   C     0.84253   0.80524   0.04115   0.00000  Uiso   1.00
C671   C     0.91056   0.77961   0.03830   0.00000  Uiso   1.00
C672   C     0.90216   0.78797   0.07906   0.00000  Uiso   1.00
C673   C     0.83441   0.81240   0.08267   0.00000  Uiso   1.00
H674   H     0.80659   0.82655   0.10149   0.00000  Uiso   1.00
H675   H     0.92544   0.78189   0.09339   0.00000  Uiso   1.00
H676   H     0.71303   0.88240   0.47714   0.00000  Uiso   1.00
H677   H     0.73956   0.88542   0.40644   0.00000  Uiso   1.00
H678   H     0.85401   0.83460   0.40313   0.00000  Uiso   1.00
H679   H     0.76088   0.83030   0.07289   0.00000  Uiso   1.00
H680   H     0.94086   0.76773   0.02213   0.00000  Uiso   1.00
C681   C     0.99387   0.84478   0.23864   0.00000  Uiso   1.00
C682   C     0.67380   0.82416   0.26201   0.00000  Uiso   1.00
H683   H     0.98465   0.80516   0.28351   0.00000  Uiso   1.00
C684   C     0.84733   0.98900   0.24012   0.00000  Uiso   1.00
H685   H     0.87574   0.66974   0.21935   0.00000  Uiso   1.00
C686   C     0.81698   0.67944   0.26287   0.00000  Uiso   1.00
N687   N     0.70714   0.85787   0.04455   0.00000  Uiso   1.00
O688   O     0.70173   0.87730   0.07996   0.00000  Uiso   1.00
O689   O     0.67319   0.84271   0.03270   0.00000  Uiso   1.00
O690   O     0.69037   0.86718   0.21028   0.00000  Uiso   1.00
C691   C     0.69153   0.90994   0.22427   0.00000  Uiso   1.00
H692   H     0.69483   0.91580   0.25499   0.00000  Uiso   1.00
H693   H     0.99506   0.92229   0.22353   0.00000  Uiso   1.00
C694   C     0.73047   0.93362   0.19770   0.00000  Uiso   1.00
H695   H     0.72839   0.92866   0.16673   0.00000  Uiso   1.00
H696   H     0.73132   0.96743   0.20790   0.00000  Uiso   1.00
H697   H     0.76078   0.92259   0.19876   0.00000  Uiso   1.00
N698   N     0.77765   0.99685   0.29001   0.00000  Uiso   1.00
O699   O     0.74066   0.66929   0.28570   0.00000  Uiso   1.00
O700   O     0.77879   0.98664   0.32365   0.00000  Uiso   1.00
N701   N     0.92446   0.75495   0.45530   0.00000  Uiso   1.00
O702   O     0.92765   0.71882   0.46487   0.00000  Uiso   1.00
O703   O     0.95002   0.76739   0.42242   0.00000  Uiso   1.00
O704   O     0.86709   0.77418   0.41908   0.00000  Uiso   1.00
C705   C     0.83861   0.73733   0.41735   0.00000  Uiso   1.00
H706   H     0.80426   0.74360   0.43030   0.00000  Uiso   1.00
H707   H     0.84567   0.71339   0.43324   0.00000  Uiso   1.00
C708   C     0.84458   0.71984   0.37439   0.00000  Uiso   1.00
H709   H     0.87881   0.71414   0.36026   0.00000  Uiso   1.00
H710   H     0.82360   0.68997   0.37282   0.00000  Uiso   1.00
H711   H     0.83563   0.74215   0.35818   0.00000  Uiso   1.00
Zn712  Zn    0.19244   0.14090   0.78278   0.00000  Uiso   1.00
Zn713  Zn    0.13459   0.12378   0.72258   0.00000  Uiso   1.00
Zn714  Zn    0.21166   0.19664   0.71188   0.00000  Uiso   1.00
Zn715  Zn    0.12798   0.20535   0.78277   0.00000  Uiso   1.00
O716   O     0.16667   0.16667   0.75000   0.00000  Uiso   1.00
O717   O     0.06990   0.18960   0.77820   0.00000  Uiso   1.00
O718   O     0.25440   0.15277   0.76768   0.00000  Uiso   1.00
O719   O     0.13800   0.06903   0.73607   0.00000  Uiso   1.00
O720   O     0.20437   0.25527   0.71806   0.00000  Uiso   1.00
O721   O     0.15693   0.12393   0.66625   0.00000  Uiso   1.00
O722   O     0.12687   0.20646   0.83749   0.00000  Uiso   1.00
O723   O     0.21088   0.17493   0.65877   0.00000  Uiso   1.00
O724   O     0.17198   0.16135   0.83749   0.00000  Uiso   1.00
O725   O     0.17849   0.08101   0.77821   0.00000  Uiso   1.00
O726   O     0.14581   0.26136   0.76767   0.00000  Uiso   1.00
O727   O     0.07452   0.13251   0.73607   0.00000  Uiso   1.00
O728   O     0.26785   0.19179   0.71806   0.00000  Uiso   1.00
C729   C     0.05240   0.15962   0.75912   0.00000  Uiso   1.00
C730   C     0.28108   0.17398   0.74142   0.00000  Uiso   1.00
C731   C     0.15641   0.05625   0.75844   0.00000  Uiso   1.00
C732   C     0.17675   0.27769   0.74170   0.00000  Uiso   1.00
C733   C     0.18805   0.14549   0.64396   0.00000  Uiso   1.00
C734   C     0.14519   0.18750   0.85629   0.00000  Uiso   1.00
C735   C     0.13106   0.19063   0.89975   0.00000  Uiso   1.00
C736   C     0.19713   0.13695   0.60122   0.00000  Uiso   1.00
C737   C     0.07607   0.20252   0.96158   0.00000  Uiso   1.00
C738   C     0.09179   0.20543   0.92110   0.00000  Uiso   1.00
C739   C     0.15500   0.17425   0.91959   0.00000  Uiso   1.00
C740   C     0.13815   0.16741   0.95970   0.00000  Uiso   1.00
C741   C     0.09835   0.18292   0.98125   0.00000  Uiso   1.00
C742   C     0.16095   0.14738   0.97919   0.00000  Uiso   1.00
C743   C     0.14819   0.15052   0.52112   0.00000  Uiso   1.00
C744   C     0.10795   0.16511   0.54161   0.00000  Uiso   1.00
C745   C     0.08241   0.17964   0.52212   0.00000  Uiso   1.00
C746   C     0.19509   0.12300   0.95828   0.00000  Uiso   1.00
C747   C     0.22247   0.11127   0.97777   0.00000  Uiso   1.00
C748   C     0.21423   0.12076   0.51891   0.00000  Uiso   1.00
C749   C     0.17586   0.13857   0.54115   0.00000  Uiso   1.00
C750   C     0.24390   0.11295   0.53830   0.00000  Uiso   1.00
C751   C     0.23549   0.12130   0.57906   0.00000  Uiso   1.00
C752   C     0.16774   0.14573   0.58267   0.00000  Uiso   1.00
H753   H     0.13993   0.15989   0.60149   0.00000  Uiso   1.00
H754   H     0.25878   0.11523   0.59339   0.00000  Uiso   1.00
H755   H     0.04636   0.21574   0.97714   0.00000  Uiso   1.00
H756   H     0.07289   0.21875   0.90644   0.00000  Uiso   1.00
H757   H     0.18735   0.16793   0.90313   0.00000  Uiso   1.00
H758   H     0.09421   0.16363   0.57289   0.00000  Uiso   1.00
H759   H     0.27419   0.10106   0.52213   0.00000  Uiso   1.00
C760   C     0.32720   0.17812   0.73864   0.00000  Uiso   1.00
C761   C     0.00713   0.15749   0.76201   0.00000  Uiso   1.00
H762   H     0.31799   0.13849   0.78351   0.00000  Uiso   1.00
C763   C     0.18067   0.32233   0.74012   0.00000  Uiso   1.00
H764   H     0.20908   0.00308   0.71935   0.00000  Uiso   1.00
C765   C     0.15032   0.01277   0.76287   0.00000  Uiso   1.00
N766   N     0.04047   0.19120   0.54455   0.00000  Uiso   1.00
O767   O     0.03507   0.21063   0.57996   0.00000  Uiso   1.00
O768   O     0.00652   0.17604   0.53270   0.00000  Uiso   1.00
O769   O     0.02370   0.20051   0.71028   0.00000  Uiso   1.00
C770   C     0.02487   0.24327   0.72427   0.00000  Uiso   1.00
H771   H     0.02816   0.24914   0.75499   0.00000  Uiso   1.00
H772   H     0.32839   0.25563   0.72353   0.00000  Uiso   1.00
C773   C     0.06380   0.26695   0.69770   0.00000  Uiso   1.00
H774   H     0.06172   0.26200   0.66673   0.00000  Uiso   1.00
H775   H     0.06465   0.30077   0.70790   0.00000  Uiso   1.00
H776   H     0.09412   0.25593   0.69876   0.00000  Uiso   1.00
N777   N     0.11098   0.33018   0.79001   0.00000  Uiso   1.00
O778   O     0.07400   0.00262   0.78570   0.00000  Uiso   1.00
O779   O     0.11213   0.31997   0.82365   0.00000  Uiso   1.00
N780   N     0.25780   0.08828   0.95530   0.00000  Uiso   1.00
O781   O     0.26099   0.05215   0.96487   0.00000  Uiso   1.00
O782   O     0.28335   0.10073   0.92242   0.00000  Uiso   1.00
O783   O     0.20042   0.10751   0.91908   0.00000  Uiso   1.00
C784   C     0.17194   0.07066   0.91735   0.00000  Uiso   1.00
H785   H     0.13759   0.07693   0.93030   0.00000  Uiso   1.00
H786   H     0.17900   0.04673   0.93324   0.00000  Uiso   1.00
C787   C     0.17792   0.05317   0.87439   0.00000  Uiso   1.00
H788   H     0.21214   0.04748   0.86026   0.00000  Uiso   1.00
H789   H     0.15693   0.02330   0.87282   0.00000  Uiso   1.00
H790   H     0.16896   0.07548   0.85818   0.00000  Uiso   1.00
Zn791  Zn    0.52577   0.14090   0.78278   0.00000  Uiso   1.00
Zn792  Zn    0.46792   0.12378   0.72258   0.00000  Uiso   1.00
Zn793  Zn    0.54500   0.19664   0.71188   0.00000  Uiso   1.00
Zn794  Zn    0.46131   0.20535   0.78277   0.00000  Uiso   1.00
O795   O     0.50000   0.16667   0.75000   0.00000  Uiso   1.00
O796   O     0.40323   0.18960   0.77820   0.00000  Uiso   1.00
O797   O     0.58773   0.15277   0.76768   0.00000  Uiso   1.00
O798   O     0.47133   0.06903   0.73607   0.00000  Uiso   1.00
O799   O     0.53771   0.25527   0.71806   0.00000  Uiso   1.00
O800   O     0.49027   0.12393   0.66625   0.00000  Uiso   1.00
O801   O     0.46020   0.20646   0.83749   0.00000  Uiso   1.00
O802   O     0.54421   0.17493   0.65877   0.00000  Uiso   1.00
O803   O     0.50532   0.16135   0.83749   0.00000  Uiso   1.00
O804   O     0.51182   0.08101   0.77821   0.00000  Uiso   1.00
O805   O     0.47914   0.26136   0.76767   0.00000  Uiso   1.00
O806   O     0.40785   0.13251   0.73607   0.00000  Uiso   1.00
O807   O     0.60119   0.19179   0.71806   0.00000  Uiso   1.00
C808   C     0.38574   0.15962   0.75912   0.00000  Uiso   1.00
C809   C     0.61441   0.17398   0.74142   0.00000  Uiso   1.00
C810   C     0.48974   0.05625   0.75844   0.00000  Uiso   1.00
C811   C     0.51008   0.27769   0.74170   0.00000  Uiso   1.00
C812   C     0.52139   0.14549   0.64396   0.00000  Uiso   1.00
C813   C     0.47852   0.18750   0.85629   0.00000  Uiso   1.00
C814   C     0.46439   0.19063   0.89975   0.00000  Uiso   1.00
C815   C     0.53047   0.13695   0.60122   0.00000  Uiso   1.00
C816   C     0.40941   0.20252   0.96158   0.00000  Uiso   1.00
C817   C     0.42512   0.20543   0.92110   0.00000  Uiso   1.00
C818   C     0.48834   0.17425   0.91959   0.00000  Uiso   1.00
C819   C     0.47148   0.16741   0.95970   0.00000  Uiso   1.00
C820   C     0.43168   0.18292   0.98125   0.00000  Uiso   1.00
C821   C     0.49428   0.14738   0.97919   0.00000  Uiso   1.00
C822   C     0.48152   0.15052   0.52112   0.00000  Uiso   1.00
C823   C     0.44128   0.16511   0.54161   0.00000  Uiso   1.00
C824   C     0.41574   0.17964   0.52212   0.00000  Uiso   1.00
C825   C     0.52842   0.12300   0.95828   0.00000  Uiso   1.00
C826   C     0.55581   0.11127   0.97777   0.00000  Uiso   1.00
C827   C     0.54757   0.12076   0.51891   0.00000  Uiso   1.00
C828   C     0.50919   0.13857   0.54115   0.00000  Uiso   1.00
C829   C     0.57723   0.11295   0.53830   0.00000  Uiso   1.00
C830   C     0.56883   0.12130   0.57906   0.00000  Uiso   1.00
C831   C     0.50108   0.14573   0.58267   0.00000  Uiso   1.00
H832   H     0.47326   0.15989   0.60149   0.00000  Uiso   1.00
H833   H     0.59211   0.11523   0.59339   0.00000  Uiso   1.00
H834   H     0.37970   0.21574   0.97714   0.00000  Uiso   1.00
H835   H     0.40623   0.21875   0.90644   0.00000  Uiso   1.00
H836   H     0.52068   0.16793   0.90313   0.00000  Uiso   1.00
H837   H     0.42754   0.16363   0.57289   0.00000  Uiso   1.00
H838   H     0.60753   0.10106   0.52213   0.00000  Uiso   1.00
C839   C     0.66053   0.17812   0.73864   0.00000  Uiso   1.00
C840   C     0.34047   0.15749   0.76201   0.00000  Uiso   1.00
H841   H     0.65132   0.13849   0.78351   0.00000  Uiso   1.00
C842   C     0.51400   0.32233   0.74012   0.00000  Uiso   1.00
H843   H     0.54241   0.00308   0.71935   0.00000  Uiso   1.00
C844   C     0.48365   0.01277   0.76287   0.00000  Uiso   1.00
N845   N     0.37380   0.19120   0.54455   0.00000  Uiso   1.00
O846   O     0.36840   0.21063   0.57996   0.00000  Uiso   1.00
O847   O     0.33986   0.17604   0.53270   0.00000  Uiso   1.00
O848   O     0.35704   0.20051   0.71028   0.00000  Uiso   1.00
C849   C     0.35820   0.24327   0.72427   0.00000  Uiso   1.00
H850   H     0.36150   0.24914   0.75499   0.00000  Uiso   1.00
H851   H     0.66173   0.25563   0.72353   0.00000  Uiso   1.00
C852   C     0.39713   0.26695   0.69770   0.00000  Uiso   1.00
H853   H     0.39506   0.26200   0.66673   0.00000  Uiso   1.00
H854   H     0.39799   0.30077   0.70790   0.00000  Uiso   1.00
H855   H     0.42745   0.25593   0.69876   0.00000  Uiso   1.00
N856   N     0.44432   0.33018   0.79001   0.00000  Uiso   1.00
O857   O     0.40733   0.00262   0.78570   0.00000  Uiso   1.00
O858   O     0.44546   0.31997   0.82365   0.00000  Uiso   1.00
N859   N     0.59113   0.08828   0.95530   0.00000  Uiso   1.00
O860   O     0.59432   0.05215   0.96487   0.00000  Uiso   1.00
O861   O     0.61669   0.10073   0.92242   0.00000  Uiso   1.00
O862   O     0.53376   0.10751   0.91908   0.00000  Uiso   1.00
C863   C     0.50527   0.07066   0.91735   0.00000  Uiso   1.00
H864   H     0.47093   0.07693   0.93030   0.00000  Uiso   1.00
H865   H     0.51233   0.04673   0.93324   0.00000  Uiso   1.00
C866   C     0.51125   0.05317   0.87439   0.00000  Uiso   1.00
H867   H     0.54548   0.04748   0.86026   0.00000  Uiso   1.00
H868   H     0.49026   0.02330   0.87282   0.00000  Uiso   1.00
H869   H     0.50229   0.07548   0.85818   0.00000  Uiso   1.00
Zn870  Zn    0.85910   0.14090   0.78278   0.00000  Uiso   1.00
Zn871  Zn    0.80125   0.12378   0.72258   0.00000  Uiso   1.00
Zn872  Zn    0.87833   0.19664   0.71188   0.00000  Uiso   1.00
Zn873  Zn    0.79465   0.20535   0.78277   0.00000  Uiso   1.00
O874   O     0.83333   0.16667   0.75000   0.00000  Uiso   1.00
O875   O     0.73656   0.18960   0.77820   0.00000  Uiso   1.00
O876   O     0.92106   0.15277   0.76768   0.00000  Uiso   1.00
O877   O     0.80467   0.06903   0.73607   0.00000  Uiso   1.00
O878   O     0.87104   0.25527   0.71806   0.00000  Uiso   1.00
O879   O     0.82360   0.12393   0.66625   0.00000  Uiso   1.00
O880   O     0.79354   0.20646   0.83749   0.00000  Uiso   1.00
O881   O     0.87755   0.17493   0.65877   0.00000  Uiso   1.00
O882   O     0.83865   0.16135   0.83749   0.00000  Uiso   1.00
O883   O     0.84515   0.08101   0.77821   0.00000  Uiso   1.00
O884   O     0.81247   0.26136   0.76767   0.00000  Uiso   1.00
O885   O     0.74119   0.13251   0.73607   0.00000  Uiso   1.00
O886   O     0.93452   0.19179   0.71806   0.00000  Uiso   1.00
C887   C     0.71907   0.15962   0.75912   0.00000  Uiso   1.00
C888   C     0.94775   0.17398   0.74142   0.00000  Uiso   1.00
C889   C     0.82308   0.05625   0.75844   0.00000  Uiso   1.00
C890   C     0.84341   0.27769   0.74170   0.00000  Uiso   1.00
C891   C     0.85472   0.14549   0.64396   0.00000  Uiso   1.00
C892   C     0.81186   0.18750   0.85629   0.00000  Uiso   1.00
C893   C     0.79773   0.19063   0.89975   0.00000  Uiso   1.00
C894   C     0.86380   0.13695   0.60122   0.00000  Uiso   1.00
C895   C     0.74274   0.20252   0.96158   0.00000  Uiso   1.00
C896   C     0.75846   0.20543   0.92110   0.00000  Uiso   1.00
C897   C     0.82167   0.17425   0.91959   0.00000  Uiso   1.00
C898   C     0.80482   0.16741   0.95970   0.00000  Uiso   1.00
C899   C     0.76502   0.18292   0.98125   0.00000  Uiso   1.00
C900   C     0.82762   0.14738   0.97919   0.00000  Uiso   1.00
C901   C     0.81485   0.15052   0.52112   0.00000  Uiso   1.00
C902   C     0.77461   0.16511   0.54161   0.00000  Uiso   1.00
C903   C     0.74907   0.17964   0.52212   0.00000  Uiso   1.00
C904   C     0.86175   0.12300   0.95828   0.00000  Uiso   1.00
C905   C     0.88914   0.11127   0.97777   0.00000  Uiso   1.00
C906   C     0.88090   0.12076   0.51891   0.00000  Uiso   1.00
C907   C     0.84253   0.13857   0.54115   0.00000  Uiso   1.00
C908   C     0.91056   0.11295   0.53830   0.00000  Uiso   1.00
C909   C     0.90216   0.12130   0.57906   0.00000  Uiso   1.00
C910   C     0.83441   0.14573   0.58267   0.00000  Uiso   1.00
H911   H     0.80659   0.15989   0.60149   0.00000  Uiso   1.00
H912   H     0.92544   0.11523   0.59339   0.00000  Uiso   1.00
H913   H     0.71303   0.21574   0.97714   0.00000  Uiso   1.00
H914   H     0.73956   0.21875   0.90644   0.00000  Uiso   1.00
H915   H     0.85401   0.16793   0.90313   0.00000  Uiso   1.00
H916   H     0.76088   0.16363   0.57289   0.00000  Uiso   1.00
H917   H     0.94086   0.10106   0.52213   0.00000  Uiso   1.00
C918   C     0.99387   0.17812   0.73864   0.00000  Uiso   1.00
C919   C     0.67380   0.15749   0.76201   0.00000  Uiso   1.00
H920   H     0.98465   0.13849   0.78351   0.00000  Uiso   1.00
C921   C     0.84733   0.32233   0.74012   0.00000  Uiso   1.00
H922   H     0.87574   0.00308   0.71935   0.00000  Uiso   1.00
C923   C     0.81698   0.01277   0.76287   0.00000  Uiso   1.00
N924   N     0.70714   0.19120   0.54455   0.00000  Uiso   1.00
O925   O     0.70173   0.21063   0.57996   0.00000  Uiso   1.00
O926   O     0.67319   0.17604   0.53270   0.00000  Uiso   1.00
O927   O     0.69037   0.20051   0.71028   0.00000  Uiso   1.00
C928   C     0.69153   0.24327   0.72427   0.00000  Uiso   1.00
H929   H     0.69483   0.24914   0.75499   0.00000  Uiso   1.00
H930   H     0.99506   0.25563   0.72353   0.00000  Uiso   1.00
C931   C     0.73047   0.26695   0.69770   0.00000  Uiso   1.00
H932   H     0.72839   0.26200   0.66673   0.00000  Uiso   1.00
H933   H     0.73132   0.30077   0.70790   0.00000  Uiso   1.00
H934   H     0.76078   0.25593   0.69876   0.00000  Uiso   1.00
N935   N     0.77765   0.33018   0.79001   0.00000  Uiso   1.00
O936   O     0.74066   0.00262   0.78570   0.00000  Uiso   1.00
O937   O     0.77879   0.31997   0.82365   0.00000  Uiso   1.00
N938   N     0.92446   0.08828   0.95530   0.00000  Uiso   1.00
O939   O     0.92765   0.05215   0.96487   0.00000  Uiso   1.00
O940   O     0.95002   0.10073   0.92242   0.00000  Uiso   1.00
O941   O     0.86709   0.10751   0.91908   0.00000  Uiso   1.00
C942   C     0.83861   0.07066   0.91735   0.00000  Uiso   1.00
H943   H     0.80426   0.07693   0.93030   0.00000  Uiso   1.00
H944   H     0.84567   0.04673   0.93324   0.00000  Uiso   1.00
C945   C     0.84458   0.05317   0.87439   0.00000  Uiso   1.00
H946   H     0.87881   0.04748   0.86026   0.00000  Uiso   1.00
H947   H     0.82360   0.02330   0.87282   0.00000  Uiso   1.00
H948   H     0.83563   0.07548   0.85818   0.00000  Uiso   1.00
Zn949  Zn    0.19244   0.47423   0.78278   0.00000  Uiso   1.00
Zn950  Zn    0.13459   0.45711   0.72258   0.00000  Uiso   1.00
Zn951  Zn    0.21166   0.52997   0.71188   0.00000  Uiso   1.00
Zn952  Zn    0.12798   0.53868   0.78277   0.00000  Uiso   1.00
O953   O     0.16667   0.50000   0.75000   0.00000  Uiso   1.00
O954   O     0.06990   0.52293   0.77820   0.00000  Uiso   1.00
O955   O     0.25440   0.48610   0.76768   0.00000  Uiso   1.00
O956   O     0.13800   0.40236   0.73607   0.00000  Uiso   1.00
O957   O     0.20437   0.58860   0.71806   0.00000  Uiso   1.00
O958   O     0.15693   0.45726   0.66625   0.00000  Uiso   1.00
O959   O     0.12687   0.53979   0.83749   0.00000  Uiso   1.00
O960   O     0.21088   0.50826   0.65877   0.00000  Uiso   1.00
O961   O     0.17198   0.49468   0.83749   0.00000  Uiso   1.00
O962   O     0.17849   0.41434   0.77821   0.00000  Uiso   1.00
O963   O     0.14581   0.59469   0.76767   0.00000  Uiso   1.00
O964   O     0.07452   0.46584   0.73607   0.00000  Uiso   1.00
O965   O     0.26785   0.52512   0.71806   0.00000  Uiso   1.00
C966   C     0.05240   0.49295   0.75912   0.00000  Uiso   1.00
C967   C     0.28108   0.50732   0.74142   0.00000  Uiso   1.00
C968   C     0.15641   0.38958   0.75844   0.00000  Uiso   1.00
C969   C     0.17675   0.61102   0.74170   0.00000  Uiso   1.00
C970   C     0.18805   0.47883   0.64396   0.00000  Uiso   1.00
C971   C     0.14519   0.52083   0.85629   0.00000  Uiso   1.00
C972   C     0.13106   0.52396   0.89975   0.00000  Uiso   1.00
C973   C     0.19713   0.47028   0.60122   0.00000  Uiso   1.00
C974   C     0.07607   0.53585   0.96158   0.00000  Uiso   1.00
C975   C     0.09179   0.53877   0.92110   0.00000  Uiso   1.00
C976   C     0.15500   0.50758   0.91959   0.00000  Uiso   1.00
C977   C     0.13815   0.50074   0.95970   0.00000  Uiso   1.00
C978   C     0.09835   0.51626   0.98125   0.00000  Uiso   1.00
C979   C     0.16095   0.48072   0.97919   0.00000  Uiso   1.00
C980   C     0.14819   0.48386   0.52112   0.00000  Uiso   1.00
C981   C     0.10795   0.49845   0.54161   0.00000  Uiso   1.00
C982   C     0.08241   0.51298   0.52212   0.00000  Uiso   1.00
C983   C     0.19509   0.45634   0.95828   0.00000  Uiso   1.00
C984   C     0.22247   0.44460   0.97777   0.00000  Uiso   1.00
C985   C     0.21423   0.45409   0.51891   0.00000  Uiso   1.00
C986   C     0.17586   0.47191   0.54115   0.00000  Uiso   1.00
C987   C     0.24390   0.44628   0.53830   0.00000  Uiso   1.00
C988   C     0.23549   0.45464   0.57906   0.00000  Uiso   1.00
C989   C     0.16774   0.47907   0.58267   0.00000  Uiso   1.00
H990   H     0.13993   0.49322   0.60149   0.00000  Uiso   1.00
H991   H     0.25878   0.44856   0.59339   0.00000  Uiso   1.00
H992   H     0.04636   0.54907   0.97714   0.00000  Uiso   1.00
H993   H     0.07289   0.55209   0.90644   0.00000  Uiso   1.00
H994   H     0.18735   0.50126   0.90313   0.00000  Uiso   1.00
H995   H     0.09421   0.49696   0.57289   0.00000  Uiso   1.00
H996   H     0.27419   0.43440   0.52213   0.00000  Uiso   1.00
C997   C     0.32720   0.51145   0.73864   0.00000  Uiso   1.00
C998   C     0.00713   0.49083   0.76201   0.00000  Uiso   1.00
H999   H     0.31799   0.47183   0.78351   0.00000  Uiso   1.00
C1000  C     0.18067   0.65566   0.74012   0.00000  Uiso   1.00
H1001  H     0.20908   0.33641   0.71935   0.00000  Uiso   1.00
C1002  C     0.15032   0.34611   0.76287   0.00000  Uiso   1.00
N1003  N     0.04047   0.52454   0.54455   0.00000  Uiso   1.00
O1004  O     0.03507   0.54397   0.57996   0.00000  Uiso   1.00
O1005  O     0.00652   0.50938   0.53270   0.00000  Uiso   1.00
O1006  O     0.02370   0.53385   0.71028   0.00000  Uiso   1.00
C1007  C     0.02487   0.57660   0.72427   0.00000  Uiso   1.00
H1008  H     0.02816   0.58247   0.75499   0.00000  Uiso   1.00
H1009  H     0.32839   0.58896   0.72353   0.00000  Uiso   1.00
C1010  C     0.06380   0.60029   0.69770   0.00000  Uiso   1.00
H1011  H     0.06172   0.59533   0.66673   0.00000  Uiso   1.00
H1012  H     0.06465   0.63410   0.70790   0.00000  Uiso   1.00
H1013  H     0.09412   0.58926   0.69876   0.00000  Uiso   1.00
N1014  N     0.11098   0.66351   0.79001   0.00000  Uiso   1.00
O1015  O     0.07400   0.33596   0.78570   0.00000  Uiso   1.00
O1016  O     0.11213   0.65330   0.82365   0.00000  Uiso   1.00
N1017  N     0.25780   0.42161   0.95530   0.00000  Uiso   1.00
O1018  O     0.26099   0.38549   0.96487   0.00000  Uiso   1.00
O1019  O     0.28335   0.43406   0.92242   0.00000  Uiso   1.00
O1020  O     0.20042   0.44084   0.91908   0.00000  Uiso   1.00
C1021  C     0.17194   0.40399   0.91735   0.00000  Uiso   1.00
H1022  H     0.13759   0.41026   0.93030   0.00000  Uiso   1.00
H1023  H     0.17900   0.38006   0.93324   0.00000  Uiso   1.00
C1024  C     0.17792   0.38650   0.87439   0.00000  Uiso   1.00
H1025  H     0.21214   0.38081   0.86026   0.00000  Uiso   1.00
H1026  H     0.15693   0.35663   0.87282   0.00000  Uiso   1.00
H1027  H     0.16896   0.40881   0.85818   0.00000  Uiso   1.00
Zn1028 Zn    0.52577   0.47423   0.78278   0.00000  Uiso   1.00
Zn1029 Zn    0.46792   0.45711   0.72258   0.00000  Uiso   1.00
Zn1030 Zn    0.54500   0.52997   0.71188   0.00000  Uiso   1.00
Zn1031 Zn    0.46131   0.53868   0.78277   0.00000  Uiso   1.00
O1032  O     0.50000   0.50000   0.75000   0.00000  Uiso   1.00
O1033  O     0.40323   0.52293   0.77820   0.00000  Uiso   1.00
O1034  O     0.58773   0.48610   0.76768   0.00000  Uiso   1.00
O1035  O     0.47133   0.40236   0.73607   0.00000  Uiso   1.00
O1036  O     0.53771   0.58860   0.71806   0.00000  Uiso   1.00
O1037  O     0.49027   0.45726   0.66625   0.00000  Uiso   1.00
O1038  O     0.46020   0.53979   0.83749   0.00000  Uiso   1.00
O1039  O     0.54421   0.50826   0.65877   0.00000  Uiso   1.00
O1040  O     0.50532   0.49468   0.83749   0.00000  Uiso   1.00
O1041  O     0.51182   0.41434   0.77821   0.00000  Uiso   1.00
O1042  O     0.47914   0.59469   0.76767   0.00000  Uiso   1.00
O1043  O     0.40785   0.46584   0.73607   0.00000  Uiso   1.00
O1044  O     0.60119   0.52512   0.71806   0.00000  Uiso   1.00
C1045  C     0.38574   0.49295   0.75912   0.00000  Uiso   1.00
C1046  C     0.61441   0.50732   0.74142   0.00000  Uiso   1.00
C1047  C     0.48974   0.38958   0.75844   0.00000  Uiso   1.00
C1048  C     0.51008   0.61102   0.74170   0.00000  Uiso   1.00
C1049  C     0.52139   0.47883   0.64396   0.00000  Uiso   1.00
C1050  C     0.47852   0.52083   0.85629   0.00000  Uiso   1.00
C1051  C     0.46439   0.52396   0.89975   0.00000  Uiso   1.00
C1052  C     0.53047   0.47028   0.60122   0.00000  Uiso   1.00
C1053  C     0.40941   0.53585   0.96158   0.00000  Uiso   1.00
C1054  C     0.42512   0.53877   0.92110   0.00000  Uiso   1.00
C1055  C     0.48834   0.50758   0.91959   0.00000  Uiso   1.00
C1056  C     0.47148   0.50074   0.95970   0.00000  Uiso   1.00
C1057  C     0.43168   0.51626   0.98125   0.00000  Uiso   1.00
C1058  C     0.49428   0.48072   0.97919   0.00000  Uiso   1.00
C1059  C     0.48152   0.48386   0.52112   0.00000  Uiso   1.00
C1060  C     0.44128   0.49845   0.54161   0.00000  Uiso   1.00
C1061  C     0.41574   0.51298   0.52212   0.00000  Uiso   1.00
C1062  C     0.52842   0.45634   0.95828   0.00000  Uiso   1.00
C1063  C     0.55581   0.44460   0.97777   0.00000  Uiso   1.00
C1064  C     0.54757   0.45409   0.51891   0.00000  Uiso   1.00
C1065  C     0.50919   0.47191   0.54115   0.00000  Uiso   1.00
C1066  C     0.57723   0.44628   0.53830   0.00000  Uiso   1.00
C1067  C     0.56883   0.45464   0.57906   0.00000  Uiso   1.00
C1068  C     0.50108   0.47907   0.58267   0.00000  Uiso   1.00
H1069  H     0.47326   0.49322   0.60149   0.00000  Uiso   1.00
H1070  H     0.59211   0.44856   0.59339   0.00000  Uiso   1.00
H1071  H     0.37970   0.54907   0.97714   0.00000  Uiso   1.00
H1072  H     0.40623   0.55209   0.90644   0.00000  Uiso   1.00
H1073  H     0.52068   0.50126   0.90313   0.00000  Uiso   1.00
H1074  H     0.42754   0.49696   0.57289   0.00000  Uiso   1.00
H1075  H     0.60753   0.43440   0.52213   0.00000  Uiso   1.00
C1076  C     0.66053   0.51145   0.73864   0.00000  Uiso   1.00
C1077  C     0.34047   0.49083   0.76201   0.00000  Uiso   1.00
H1078  H     0.65132   0.47183   0.78351   0.00000  Uiso   1.00
C1079  C     0.51400   0.65566   0.74012   0.00000  Uiso   1.00
H1080  H     0.54241   0.33641   0.71935   0.00000  Uiso   1.00
C1081  C     0.48365   0.34611   0.76287   0.00000  Uiso   1.00
N1082  N     0.37380   0.52454   0.54455   0.00000  Uiso   1.00
O1083  O     0.36840   0.54397   0.57996   0.00000  Uiso   1.00
O1084  O     0.33986   0.50938   0.53270   0.00000  Uiso   1.00
O1085  O     0.35704   0.53385   0.71028   0.00000  Uiso   1.00
C1086  C     0.35820   0.57660   0.72427   0.00000  Uiso   1.00
H1087  H     0.36150   0.58247   0.75499   0.00000  Uiso   1.00
H1088  H     0.66173   0.58896   0.72353   0.00000  Uiso   1.00
C1089  C     0.39713   0.60029   0.69770   0.00000  Uiso   1.00
H1090  H     0.39506   0.59533   0.66673   0.00000  Uiso   1.00
H1091  H     0.39799   0.63410   0.70790   0.00000  Uiso   1.00
H1092  H     0.42745   0.58926   0.69876   0.00000  Uiso   1.00
N1093  N     0.44432   0.66351   0.79001   0.00000  Uiso   1.00
O1094  O     0.40733   0.33596   0.78570   0.00000  Uiso   1.00
O1095  O     0.44546   0.65330   0.82365   0.00000  Uiso   1.00
N1096  N     0.59113   0.42161   0.95530   0.00000  Uiso   1.00
O1097  O     0.59432   0.38549   0.96487   0.00000  Uiso   1.00
O1098  O     0.61669   0.43406   0.92242   0.00000  Uiso   1.00
O1099  O     0.53376   0.44084   0.91908   0.00000  Uiso   1.00
C1100  C     0.50527   0.40399   0.91735   0.00000  Uiso   1.00
H1101  H     0.47093   0.41026   0.93030   0.00000  Uiso   1.00
H1102  H     0.51233   0.38006   0.93324   0.00000  Uiso   1.00
C1103  C     0.51125   0.38650   0.87439   0.00000  Uiso   1.00
H1104  H     0.54548   0.38081   0.86026   0.00000  Uiso   1.00
H1105  H     0.49026   0.35663   0.87282   0.00000  Uiso   1.00
H1106  H     0.50229   0.40881   0.85818   0.00000  Uiso   1.00
Zn1107 Zn    0.85910   0.47423   0.78278   0.00000  Uiso   1.00
Zn1108 Zn    0.80125   0.45711   0.72258   0.00000  Uiso   1.00
Zn1109 Zn    0.87833   0.52997   0.71188   0.00000  Uiso   1.00
Zn1110 Zn    0.79465   0.53868   0.78277   0.00000  Uiso   1.00
O1111  O     0.83333   0.50000   0.75000   0.00000  Uiso   1.00
O1112  O     0.73656   0.52293   0.77820   0.00000  Uiso   1.00
O1113  O     0.92106   0.48610   0.76768   0.00000  Uiso   1.00
O1114  O     0.80467   0.40236   0.73607   0.00000  Uiso   1.00
O1115  O     0.87104   0.58860   0.71806   0.00000  Uiso   1.00
O1116  O     0.82360   0.45726   0.66625   0.00000  Uiso   1.00
O1117  O     0.79354   0.53979   0.83749   0.00000  Uiso   1.00
O1118  O     0.87755   0.50826   0.65877   0.00000  Uiso   1.00
O1119  O     0.83865   0.49468   0.83749   0.00000  Uiso   1.00
O1120  O     0.84515   0.41434   0.77821   0.00000  Uiso   1.00
O1121  O     0.81247   0.59469   0.76767   0.00000  Uiso   1.00
O1122  O     0.74119   0.46584   0.73607   0.00000  Uiso   1.00
O1123  O     0.93452   0.52512   0.71806   0.00000  Uiso   1.00
C1124  C     0.71907   0.49295   0.75912   0.00000  Uiso   1.00
C1125  C     0.94775   0.50732   0.74142   0.00000  Uiso   1.00
C1126  C     0.82308   0.38958   0.75844   0.00000  Uiso   1.00
C1127  C     0.84341   0.61102   0.74170   0.00000  Uiso   1.00
C1128  C     0.85472   0.47883   0.64396   0.00000  Uiso   1.00
C1129  C     0.81186   0.52083   0.85629   0.00000  Uiso   1.00
C1130  C     0.79773   0.52396   0.89975   0.00000  Uiso   1.00
C1131  C     0.86380   0.47028   0.60122   0.00000  Uiso   1.00
C1132  C     0.74274   0.53585   0.96158   0.00000  Uiso   1.00
C1133  C     0.75846   0.53877   0.92110   0.00000  Uiso   1.00
C1134  C     0.82167   0.50758   0.91959   0.00000  Uiso   1.00
C1135  C     0.80482   0.50074   0.95970   0.00000  Uiso   1.00
C1136  C     0.76502   0.51626   0.98125   0.00000  Uiso   1.00
C1137  C     0.82762   0.48072   0.97919   0.00000  Uiso   1.00
C1138  C     0.81485   0.48386   0.52112   0.00000  Uiso   1.00
C1139  C     0.77461   0.49845   0.54161   0.00000  Uiso   1.00
C1140  C     0.74907   0.51298   0.52212   0.00000  Uiso   1.00
C1141  C     0.86175   0.45634   0.95828   0.00000  Uiso   1.00
C1142  C     0.88914   0.44460   0.97777   0.00000  Uiso   1.00
C1143  C     0.88090   0.45409   0.51891   0.00000  Uiso   1.00
C1144  C     0.84253   0.47191   0.54115   0.00000  Uiso   1.00
C1145  C     0.91056   0.44628   0.53830   0.00000  Uiso   1.00
C1146  C     0.90216   0.45464   0.57906   0.00000  Uiso   1.00
C1147  C     0.83441   0.47907   0.58267   0.00000  Uiso   1.00
H1148  H     0.80659   0.49322   0.60149   0.00000  Uiso   1.00
H1149  H     0.92544   0.44856   0.59339   0.00000  Uiso   1.00
H1150  H     0.71303   0.54907   0.97714   0.00000  Uiso   1.00
H1151  H     0.73956   0.55209   0.90644   0.00000  Uiso   1.00
H1152  H     0.85401   0.50126   0.90313   0.00000  Uiso   1.00
H1153  H     0.76088   0.49696   0.57289   0.00000  Uiso   1.00
H1154  H     0.94086   0.43440   0.52213   0.00000  Uiso   1.00
C1155  C     0.99387   0.51145   0.73864   0.00000  Uiso   1.00
C1156  C     0.67380   0.49083   0.76201   0.00000  Uiso   1.00
H1157  H     0.98465   0.47183   0.78351   0.00000  Uiso   1.00
C1158  C     0.84733   0.65566   0.74012   0.00000  Uiso   1.00
H1159  H     0.87574   0.33641   0.71935   0.00000  Uiso   1.00
C1160  C     0.81698   0.34611   0.76287   0.00000  Uiso   1.00
N1161  N     0.70714   0.52454   0.54455   0.00000  Uiso   1.00
O1162  O     0.70173   0.54397   0.57996   0.00000  Uiso   1.00
O1163  O     0.67319   0.50938   0.53270   0.00000  Uiso   1.00
O1164  O     0.69037   0.53385   0.71028   0.00000  Uiso   1.00
C1165  C     0.69153   0.57660   0.72427   0.00000  Uiso   1.00
H1166  H     0.69483   0.58247   0.75499   0.00000  Uiso   1.00
H1167  H     0.99506   0.58896   0.72353   0.00000  Uiso   1.00
C1168  C     0.73047   0.60029   0.69770   0.00000  Uiso   1.00
H1169  H     0.72839   0.59533   0.66673   0.00000  Uiso   1.00
H1170  H     0.73132   0.63410   0.70790   0.00000  Uiso   1.00
H1171  H     0.76078   0.58926   0.69876   0.00000  Uiso   1.00
N1172  N     0.77765   0.66351   0.79001   0.00000  Uiso   1.00
O1173  O     0.74066   0.33596   0.78570   0.00000  Uiso   1.00
O1174  O     0.77879   0.65330   0.82365   0.00000  Uiso   1.00
N1175  N     0.92446   0.42161   0.95530   0.00000  Uiso   1.00
O1176  O     0.92765   0.38549   0.96487   0.00000  Uiso   1.00
O1177  O     0.95002   0.43406   0.92242   0.00000  Uiso   1.00
O1178  O     0.86709   0.44084   0.91908   0.00000  Uiso   1.00
C1179  C     0.83861   0.40399   0.91735   0.00000  Uiso   1.00
H1180  H     0.80426   0.41026   0.93030   0.00000  Uiso   1.00
H1181  H     0.84567   0.38006   0.93324   0.00000  Uiso   1.00
C1182  C     0.84458   0.38650   0.87439   0.00000  Uiso   1.00
H1183  H     0.87881   0.38081   0.86026   0.00000  Uiso   1.00
H1184  H     0.82360   0.35663   0.87282   0.00000  Uiso   1.00
H1185  H     0.83563   0.40881   0.85818   0.00000  Uiso   1.00
Zn1186 Zn    0.19244   0.80756   0.78278   0.00000  Uiso   1.00
Zn1187 Zn    0.13459   0.79044   0.72258   0.00000  Uiso   1.00
Zn1188 Zn    0.21166   0.86331   0.71188   0.00000  Uiso   1.00
Zn1189 Zn    0.12798   0.87202   0.78277   0.00000  Uiso   1.00
O1190  O     0.16667   0.83333   0.75000   0.00000  Uiso   1.00
O1191  O     0.06990   0.85627   0.77820   0.00000  Uiso   1.00
O1192  O     0.25440   0.81944   0.76768   0.00000  Uiso   1.00
O1193  O     0.13800   0.73570   0.73607   0.00000  Uiso   1.00
O1194  O     0.20437   0.92193   0.71806   0.00000  Uiso   1.00
O1195  O     0.15693   0.79060   0.66625   0.00000  Uiso   1.00
O1196  O     0.12687   0.87313   0.83749   0.00000  Uiso   1.00
O1197  O     0.21088   0.84159   0.65877   0.00000  Uiso   1.00
O1198  O     0.17198   0.82802   0.83749   0.00000  Uiso   1.00
O1199  O     0.17849   0.74768   0.77821   0.00000  Uiso   1.00
O1200  O     0.14581   0.92803   0.76767   0.00000  Uiso   1.00
O1201  O     0.07452   0.79917   0.73607   0.00000  Uiso   1.00
O1202  O     0.26785   0.85845   0.71806   0.00000  Uiso   1.00
C1203  C     0.05240   0.82629   0.75912   0.00000  Uiso   1.00
C1204  C     0.28108   0.84065   0.74142   0.00000  Uiso   1.00
C1205  C     0.15641   0.72292   0.75844   0.00000  Uiso   1.00
C1206  C     0.17675   0.94436   0.74170   0.00000  Uiso   1.00
C1207  C     0.18805   0.81216   0.64396   0.00000  Uiso   1.00
C1208  C     0.14519   0.85416   0.85629   0.00000  Uiso   1.00
C1209  C     0.13106   0.85730   0.89975   0.00000  Uiso   1.00
C1210  C     0.19713   0.80362   0.60122   0.00000  Uiso   1.00
C1211  C     0.07607   0.86919   0.96158   0.00000  Uiso   1.00
C1212  C     0.09179   0.87210   0.92110   0.00000  Uiso   1.00
C1213  C     0.15500   0.84091   0.91959   0.00000  Uiso   1.00
C1214  C     0.13815   0.83407   0.95970   0.00000  Uiso   1.00
C1215  C     0.09835   0.84959   0.98125   0.00000  Uiso   1.00
C1216  C     0.16095   0.81405   0.97919   0.00000  Uiso   1.00
C1217  C     0.14819   0.81719   0.52112   0.00000  Uiso   1.00
C1218  C     0.10795   0.83178   0.54161   0.00000  Uiso   1.00
C1219  C     0.08241   0.84631   0.52212   0.00000  Uiso   1.00
C1220  C     0.19509   0.78967   0.95828   0.00000  Uiso   1.00
C1221  C     0.22247   0.77794   0.97777   0.00000  Uiso   1.00
C1222  C     0.21423   0.78742   0.51891   0.00000  Uiso   1.00
C1223  C     0.17586   0.80524   0.54115   0.00000  Uiso   1.00
C1224  C     0.24390   0.77961   0.53830   0.00000  Uiso   1.00
C1225  C     0.23549   0.78797   0.57906   0.00000  Uiso   1.00
C1226  C     0.16774   0.81240   0.58267   0.00000  Uiso   1.00
H1227  H     0.13993   0.82655   0.60149   0.00000  Uiso   1.00
H1228  H     0.25878   0.78189   0.59339   0.00000  Uiso   1.00
H1229  H     0.04636   0.88240   0.97714   0.00000  Uiso   1.00
H1230  H     0.07289   0.88542   0.90644   0.00000  Uiso   1.00
H1231  H     0.18735   0.83460   0.90313   0.00000  Uiso   1.00
H1232  H     0.09421   0.83030   0.57289   0.00000  Uiso   1.00
H1233  H     0.27419   0.76773   0.52213   0.00000  Uiso   1.00
C1234  C     0.32720   0.84478   0.73864   0.00000  Uiso   1.00
C1235  C     0.00713   0.82416   0.76201   0.00000  Uiso   1.00
H1236  H     0.31799   0.80516   0.78351   0.00000  Uiso   1.00
C1237  C     0.18067   0.98900   0.74012   0.00000  Uiso   1.00
H1238  H     0.20908   0.66974   0.71935   0.00000  Uiso   1.00
C1239  C     0.15032   0.67944   0.76287   0.00000  Uiso   1.00
N1240  N     0.04047   0.85787   0.54455   0.00000  Uiso   1.00
O1241  O     0.03507   0.87730   0.57996   0.00000  Uiso   1.00
O1242  O     0.00652   0.84271   0.53270   0.00000  Uiso   1.00
O1243  O     0.02370   0.86718   0.71028   0.00000  Uiso   1.00
C1244  C     0.02487   0.90994   0.72427   0.00000  Uiso   1.00
H1245  H     0.02816   0.91580   0.75499   0.00000  Uiso   1.00
H1246  H     0.32839   0.92229   0.72353   0.00000  Uiso   1.00
C1247  C     0.06380   0.93362   0.69770   0.00000  Uiso   1.00
H1248  H     0.06172   0.92866   0.66673   0.00000  Uiso   1.00
H1249  H     0.06465   0.96743   0.70790   0.00000  Uiso   1.00
H1250  H     0.09412   0.92259   0.69876   0.00000  Uiso   1.00
N1251  N     0.11098   0.99685   0.79001   0.00000  Uiso   1.00
O1252  O     0.07400   0.66929   0.78570   0.00000  Uiso   1.00
O1253  O     0.11213   0.98664   0.82365   0.00000  Uiso   1.00
N1254  N     0.25780   0.75495   0.95530   0.00000  Uiso   1.00
O1255  O     0.26099   0.71882   0.96487   0.00000  Uiso   1.00
O1256  O     0.28335   0.76739   0.92242   0.00000  Uiso   1.00
O1257  O     0.20042   0.77418   0.91908   0.00000  Uiso   1.00
C1258  C     0.17194   0.73733   0.91735   0.00000  Uiso   1.00
H1259  H     0.13759   0.74360   0.93030   0.00000  Uiso   1.00
H1260  H     0.17900   0.71339   0.93324   0.00000  Uiso   1.00
C1261  C     0.17792   0.71984   0.87439   0.00000  Uiso   1.00
H1262  H     0.21214   0.71414   0.86026   0.00000  Uiso   1.00
H1263  H     0.15693   0.68997   0.87282   0.00000  Uiso   1.00
H1264  H     0.16896   0.74215   0.85818   0.00000  Uiso   1.00
Zn1265 Zn    0.52577   0.80756   0.78278   0.00000  Uiso   1.00
Zn1266 Zn    0.46792   0.79044   0.72258   0.00000  Uiso   1.00
Zn1267 Zn    0.54500   0.86331   0.71188   0.00000  Uiso   1.00
Zn1268 Zn    0.46131   0.87202   0.78277   0.00000  Uiso   1.00
O1269  O     0.50000   0.83333   0.75000   0.00000  Uiso   1.00
O1270  O     0.40323   0.85627   0.77820   0.00000  Uiso   1.00
O1271  O     0.58773   0.81944   0.76768   0.00000  Uiso   1.00
O1272  O     0.47133   0.73570   0.73607   0.00000  Uiso   1.00
O1273  O     0.53771   0.92193   0.71806   0.00000  Uiso   1.00
O1274  O     0.49027   0.79060   0.66625   0.00000  Uiso   1.00
O1275  O     0.46020   0.87313   0.83749   0.00000  Uiso   1.00
O1276  O     0.54421   0.84159   0.65877   0.00000  Uiso   1.00
O1277  O     0.50532   0.82802   0.83749   0.00000  Uiso   1.00
O1278  O     0.51182   0.74768   0.77821   0.00000  Uiso   1.00
O1279  O     0.47914   0.92803   0.76767   0.00000  Uiso   1.00
O1280  O     0.40785   0.79917   0.73607   0.00000  Uiso   1.00
O1281  O     0.60119   0.85845   0.71806   0.00000  Uiso   1.00
C1282  C     0.38574   0.82629   0.75912   0.00000  Uiso   1.00
C1283  C     0.61441   0.84065   0.74142   0.00000  Uiso   1.00
C1284  C     0.48974   0.72292   0.75844   0.00000  Uiso   1.00
C1285  C     0.51008   0.94436   0.74170   0.00000  Uiso   1.00
C1286  C     0.52139   0.81216   0.64396   0.00000  Uiso   1.00
C1287  C     0.47852   0.85416   0.85629   0.00000  Uiso   1.00
C1288  C     0.46439   0.85730   0.89975   0.00000  Uiso   1.00
C1289  C     0.53047   0.80362   0.60122   0.00000  Uiso   1.00
C1290  C     0.40941   0.86919   0.96158   0.00000  Uiso   1.00
C1291  C     0.42512   0.87210   0.92110   0.00000  Uiso   1.00
C1292  C     0.48834   0.84091   0.91959   0.00000  Uiso   1.00
C1293  C     0.47148   0.83407   0.95970   0.00000  Uiso   1.00
C1294  C     0.43168   0.84959   0.98125   0.00000  Uiso   1.00
C1295  C     0.49428   0.81405   0.97919   0.00000  Uiso   1.00
C1296  C     0.48152   0.81719   0.52112   0.00000  Uiso   1.00
C1297  C     0.44128   0.83178   0.54161   0.00000  Uiso   1.00
C1298  C     0.41574   0.84631   0.52212   0.00000  Uiso   1.00
C1299  C     0.52842   0.78967   0.95828   0.00000  Uiso   1.00
C1300  C     0.55581   0.77794   0.97777   0.00000  Uiso   1.00
C1301  C     0.54757   0.78742   0.51891   0.00000  Uiso   1.00
C1302  C     0.50919   0.80524   0.54115   0.00000  Uiso   1.00
C1303  C     0.57723   0.77961   0.53830   0.00000  Uiso   1.00
C1304  C     0.56883   0.78797   0.57906   0.00000  Uiso   1.00
C1305  C     0.50108   0.81240   0.58267   0.00000  Uiso   1.00
H1306  H     0.47326   0.82655   0.60149   0.00000  Uiso   1.00
H1307  H     0.59211   0.78189   0.59339   0.00000  Uiso   1.00
H1308  H     0.37970   0.88240   0.97714   0.00000  Uiso   1.00
H1309  H     0.40623   0.88542   0.90644   0.00000  Uiso   1.00
H1310  H     0.52068   0.83460   0.90313   0.00000  Uiso   1.00
H1311  H     0.42754   0.83030   0.57289   0.00000  Uiso   1.00
H1312  H     0.60753   0.76773   0.52213   0.00000  Uiso   1.00
C1313  C     0.66053   0.84478   0.73864   0.00000  Uiso   1.00
C1314  C     0.34047   0.82416   0.76201   0.00000  Uiso   1.00
H1315  H     0.65132   0.80516   0.78351   0.00000  Uiso   1.00
C1316  C     0.51400   0.98900   0.74012   0.00000  Uiso   1.00
H1317  H     0.54241   0.66974   0.71935   0.00000  Uiso   1.00
C1318  C     0.48365   0.67944   0.76287   0.00000  Uiso   1.00
N1319  N     0.37380   0.85787   0.54455   0.00000  Uiso   1.00
O1320  O     0.36840   0.87730   0.57996   0.00000  Uiso   1.00
O1321  O     0.33986   0.84271   0.53270   0.00000  Uiso   1.00
O1322  O     0.35704   0.86718   0.71028   0.00000  Uiso   1.00
C1323  C     0.35820   0.90994   0.72427   0.00000  Uiso   1.00
H1324  H     0.36150   0.91580   0.75499   0.00000  Uiso   1.00
H1325  H     0.66173   0.92229   0.72353   0.00000  Uiso   1.00
C1326  C     0.39713   0.93362   0.69770   0.00000  Uiso   1.00
H1327  H     0.39506   0.92866   0.66673   0.00000  Uiso   1.00
H1328  H     0.39799   0.96743   0.70790   0.00000  Uiso   1.00
H1329  H     0.42745   0.92259   0.69876   0.00000  Uiso   1.00
N1330  N     0.44432   0.99685   0.79001   0.00000  Uiso   1.00
O1331  O     0.40733   0.66929   0.78570   0.00000  Uiso   1.00
O1332  O     0.44546   0.98664   0.82365   0.00000  Uiso   1.00
N1333  N     0.59113   0.75495   0.95530   0.00000  Uiso   1.00
O1334  O     0.59432   0.71882   0.96487   0.00000  Uiso   1.00
O1335  O     0.61669   0.76739   0.92242   0.00000  Uiso   1.00
O1336  O     0.53376   0.77418   0.91908   0.00000  Uiso   1.00
C1337  C     0.50527   0.73733   0.91735   0.00000  Uiso   1.00
H1338  H     0.47093   0.74360   0.93030   0.00000  Uiso   1.00
H1339  H     0.51233   0.71339   0.93324   0.00000  Uiso   1.00
C1340  C     0.51125   0.71984   0.87439   0.00000  Uiso   1.00
H1341  H     0.54548   0.71414   0.86026   0.00000  Uiso   1.00
H1342  H     0.49026   0.68997   0.87282   0.00000  Uiso   1.00
H1343  H     0.50229   0.74215   0.85818   0.00000  Uiso   1.00
Zn1344 Zn    0.85910   0.80756   0.78278   0.00000  Uiso   1.00
Zn1345 Zn    0.80125   0.79044   0.72258   0.00000  Uiso   1.00
Zn1346 Zn    0.87833   0.86331   0.71188   0.00000  Uiso   1.00
Zn1347 Zn    0.79465   0.87202   0.78277   0.00000  Uiso   1.00
O1348  O     0.83333   0.83333   0.75000   0.00000  Uiso   1.00
O1349  O     0.73656   0.85627   0.77820   0.00000  Uiso   1.00
O1350  O     0.92106   0.81944   0.76768   0.00000  Uiso   1.00
O1351  O     0.80467   0.73570   0.73607   0.00000  Uiso   1.00
O1352  O     0.87104   0.92193   0.71806   0.00000  Uiso   1.00
O1353  O     0.82360   0.79060   0.66625   0.00000  Uiso   1.00
O1354  O     0.79354   0.87313   0.83749   0.00000  Uiso   1.00
O1355  O     0.87755   0.84159   0.65877   0.00000  Uiso   1.00
O1356  O     0.83865   0.82802   0.83749   0.00000  Uiso   1.00
O1357  O     0.84515   0.74768   0.77821   0.00000  Uiso   1.00
O1358  O     0.81247   0.92803   0.76767   0.00000  Uiso   1.00
O1359  O     0.74119   0.79917   0.73607   0.00000  Uiso   1.00
O1360  O     0.93452   0.85845   0.71806   0.00000  Uiso   1.00
C1361  C     0.71907   0.82629   0.75912   0.00000  Uiso   1.00
C1362  C     0.94775   0.84065   0.74142   0.00000  Uiso   1.00
C1363  C     0.82308   0.72292   0.75844   0.00000  Uiso   1.00
C1364  C     0.84341   0.94436   0.74170   0.00000  Uiso   1.00
C1365  C     0.85472   0.81216   0.64396   0.00000  Uiso   1.00
C1366  C     0.81186   0.85416   0.85629   0.00000  Uiso   1.00
C1367  C     0.79773   0.85730   0.89975   0.00000  Uiso   1.00
C1368  C     0.86380   0.80362   0.60122   0.00000  Uiso   1.00
C1369  C     0.74274   0.86919   0.96158   0.00000  Uiso   1.00
C1370  C     0.75846   0.87210   0.92110   0.00000  Uiso   1.00
C1371  C     0.82167   0.84091   0.91959   0.00000  Uiso   1.00
C1372  C     0.80482   0.83407   0.95970   0.00000  Uiso   1.00
C1373  C     0.76502   0.84959   0.98125   0.00000  Uiso   1.00
C1374  C     0.82762   0.81405   0.97919   0.00000  Uiso   1.00
C1375  C     0.81485   0.81719   0.52112   0.00000  Uiso   1.00
C1376  C     0.77461   0.83178   0.54161   0.00000  Uiso   1.00
C1377  C     0.74907   0.84631   0.52212   0.00000  Uiso   1.00
C1378  C     0.86175   0.78967   0.95828   0.00000  Uiso   1.00
C1379  C     0.88914   0.77794   0.97777   0.00000  Uiso   1.00
C1380  C     0.88090   0.78742   0.51891   0.00000  Uiso   1.00
C1381  C     0.84253   0.80524   0.54115   0.00000  Uiso   1.00
C1382  C     0.91056   0.77961   0.53830   0.00000  Uiso   1.00
C1383  C     0.90216   0.78797   0.57906   0.00000  Uiso   1.00
C1384  C     0.83441   0.81240   0.58267   0.00000  Uiso   1.00
H1385  H     0.80659   0.82655   0.60149   0.00000  Uiso   1.00
H1386  H     0.92544   0.78189   0.59339   0.00000  Uiso   1.00
H1387  H     0.71303   0.88240   0.97714   0.00000  Uiso   1.00
H1388  H     0.73956   0.88542   0.90644   0.00000  Uiso   1.00
H1389  H     0.85401   0.83460   0.90313   0.00000  Uiso   1.00
H1390  H     0.76088   0.83030   0.57289   0.00000  Uiso   1.00
H1391  H     0.94086   0.76773   0.52213   0.00000  Uiso   1.00
C1392  C     0.99387   0.84478   0.73864   0.00000  Uiso   1.00
C1393  C     0.67380   0.82416   0.76201   0.00000  Uiso   1.00
H1394  H     0.98465   0.80516   0.78351   0.00000  Uiso   1.00
C1395  C     0.84733   0.98900   0.74012   0.00000  Uiso   1.00
H1396  H     0.87574   0.66974   0.71935   0.00000  Uiso   1.00
C1397  C     0.81698   0.67944   0.76287   0.00000  Uiso   1.00
N1398  N     0.70714   0.85787   0.54455   0.00000  Uiso   1.00
O1399  O     0.70173   0.87730   0.57996   0.00000  Uiso   1.00
O1400  O     0.67319   0.84271   0.53270   0.00000  Uiso   1.00
O1401  O     0.69037   0.86718   0.71028   0.00000  Uiso   1.00
C1402  C     0.69153   0.90994   0.72427   0.00000  Uiso   1.00
H1403  H     0.69483   0.91580   0.75499   0.00000  Uiso   1.00
H1404  H     0.99506   0.92229   0.72353   0.00000  Uiso   1.00
C1405  C     0.73047   0.93362   0.69770   0.00000  Uiso   1.00
H1406  H     0.72839   0.92866   0.66673   0.00000  Uiso   1.00
H1407  H     0.73132   0.96743   0.70790   0.00000  Uiso   1.00
H1408  H     0.76078   0.92259   0.69876   0.00000  Uiso   1.00
N1409  N     0.77765   0.99685   0.79001   0.00000  Uiso   1.00
O1410  O     0.74066   0.66929   0.78570   0.00000  Uiso   1.00
O1411  O     0.77879   0.98664   0.82365   0.00000  Uiso   1.00
N1412  N     0.92446   0.75495   0.95530   0.00000  Uiso   1.00
O1413  O     0.92765   0.71882   0.96487   0.00000  Uiso   1.00
O1414  O     0.95002   0.76739   0.92242   0.00000  Uiso   1.00
O1415  O     0.86709   0.77418   0.91908   0.00000  Uiso   1.00
C1416  C     0.83861   0.73733   0.91735   0.00000  Uiso   1.00
H1417  H     0.80426   0.74360   0.93030   0.00000  Uiso   1.00
H1418  H     0.84567   0.71339   0.93324   0.00000  Uiso   1.00
C1419  C     0.84458   0.71984   0.87439   0.00000  Uiso   1.00
H1420  H     0.87881   0.71414   0.86026   0.00000  Uiso   1.00
H1421  H     0.82360   0.68997   0.87282   0.00000  Uiso   1.00
H1422  H     0.83563   0.74215   0.85818   0.00000  Uiso   1.00
loop_
_geom_bond_atom_site_label_1
_geom_bond_atom_site_label_2
_geom_bond_distance
_geom_bond_site_symmetry_2
_ccdc_geom_bond_type
Zn1    O5      1.960   .     S
Zn1    O13     1.918   .     S
Zn1    O7      1.922   .     S
Zn1    O14     1.936   .     S
Zn2    O16     1.925   .     S
Zn2    O5      1.942   .     S
Zn2    O10     1.922   .     S
Zn2    O8      1.945   .     S
Zn3    O12     1.927   .     S
Zn3    O9      1.938   .     S
Zn3    O5      1.933   .     S
Zn3    O17     1.936   .     S
Zn4    O6      1.931   .     S
Zn4    O11     1.933   .     S
Zn4    O5      1.930   .     S
Zn4    O15     1.939   .     S
O6     C18     1.270   .     A
O7     C19     1.281   .     A
O8     C20     1.272   .     A
O9     C21     1.275   .     A
O10    C22     1.277   .     A
O11    C23     1.285   .     A
O12    C22     1.275   .     A
O13    C23     1.285   .     A
O14    C20     1.275   .     A
O15    C21     1.261   .     A
O16    C18     1.268   .     A
O17    C19     1.281   .     A
C18    C50     1.438   .     S
C19    C49     1.462   .     S
C20    C54     1.430   .     S
C21    C52     1.453   .     S
C22    C25     1.455   .     S
C23    C24     1.472   .     S
C24    C27     1.397   .     A
C24    C28     1.396   .     A
C25    C40     1.392   .     A
C25    C41     1.393   .     A
C26    H44     1.081   .     S
C26    C27     1.393   .     A
C26    C30     1.411   .     A
C27    H45     1.083   .     S
C28    H46     1.078   .     S
C28    C29     1.409   .     A
C29    C30     1.422   .     A
C29    C31     1.428   .     A
C30    C745    1.408   .     S
C31    C35     1.424   .     A
C31    C743    1.419   .     S
C32    C38     1.426   .     A
C32    C33     1.413   .     A
C32    C742    1.419   1_554 S
C33    C34     1.396   .     A
C33    H47     1.076   .     S
C34    N55     1.438   .     S
C34    C741    1.408   1_554 S
C35    C36     1.401   .     A
C35    O72     1.383   .     S
C36    N69     1.438   .     S
C36    C748    1.406   .     S
C37    C38     1.424   .     A
C37    C39     1.410   .     A
C37    C747    1.406   1_554 S
C38    C41     1.414   .     A
C39    C40     1.389   .     A
C39    H48     1.082   .     S
C40    H43     1.084   .     S
C41    H42     1.077   .     S
C49    C129    1.339   .     S
C49    O137    1.387   .     S
C50    C207    1.339   1_455 S
C50    H209    1.086   1_455 S
H51    C129    1.086   .     S
C52    H290    1.088   .     S
C52    C291    1.346   .     S
H53    C526    1.088   1_545 S
C54    C526    1.346   1_545 S
C54    N540    1.437   1_545 S
N55    O56     1.301   .     A
N55    O57     1.301   .     A
O58    C59     1.412   .     S
O58    C207    1.387   1_455 S
C59    H60     1.116   .     S
C59    C62     1.522   .     S
C59    H219    1.113   1_455 S
H61    C138    1.113   .     S
C62    H64     1.111   .     S
C62    H63     1.111   .     S
C62    H65     1.112   .     S
N66    O68     1.301   .     A
N66    C291    1.437   .     S
N66    O304    1.301   .     S
O67    N540    1.301   1_545 S
N69    O71     1.301   .     A
N69    O70     1.301   .     A
O72    C73     1.411   .     S
C73    H74     1.114   .     S
C73    H75     1.115   .     S
C73    C76     1.519   .     S
C76    H78     1.109   .     S
C76    H79     1.110   .     S
C76    H77     1.111   .     S
Zn80   O84     1.960   .     S
Zn80   O92     1.918   .     S
Zn80   O86     1.922   .     S
Zn80   O93     1.936   .     S
Zn81   O95     1.925   .     S
Zn81   O84     1.942   .     S
Zn81   O89     1.922   .     S
Zn81   O87     1.945   .     S
Zn82   O91     1.927   .     S
Zn82   O88     1.938   .     S
Zn82   O84     1.933   .     S
Zn82   O96     1.936   .     S
Zn83   O85     1.931   .     S
Zn83   O90     1.933   .     S
Zn83   O84     1.930   .     S
Zn83   O94     1.939   .     S
O85    C97     1.270   .     A
O86    C98     1.281   .     A
O87    C99     1.272   .     A
O88    C100    1.275   .     A
O89    C101    1.277   .     A
O90    C102    1.285   .     A
O91    C101    1.275   .     A
O92    C102    1.285   .     A
O93    C99     1.275   .     A
O94    C100    1.261   .     A
O95    C97     1.268   .     A
O96    C98     1.281   .     A
C97    C129    1.438   .     S
C98    C128    1.462   .     S
C99    C133    1.430   .     S
C100   C131    1.453   .     S
C101   C104    1.455   .     S
C102   C103    1.472   .     S
C103   C106    1.397   .     A
C103   C107    1.396   .     A
C104   C119    1.392   .     A
C104   C120    1.393   .     A
C105   H123    1.081   .     S
C105   C106    1.393   .     A
C105   C109    1.411   .     A
C106   H124    1.083   .     S
C107   H125    1.078   .     S
C107   C108    1.409   .     A
C108   C109    1.422   .     A
C108   C110    1.428   .     A
C109   C824    1.408   .     S
C110   C114    1.424   .     A
C110   C822    1.419   .     S
C111   C117    1.426   .     A
C111   C112    1.413   .     A
C111   C821    1.419   1_554 S
C112   C113    1.396   .     A
C112   H126    1.076   .     S
C113   N134    1.438   .     S
C113   C820    1.408   1_554 S
C114   C115    1.401   .     A
C114   O151    1.383   .     S
C115   N148    1.438   .     S
C115   C827    1.406   .     S
C116   C117    1.424   .     A
C116   C118    1.410   .     A
C116   C826    1.406   1_554 S
C117   C120    1.414   .     A
C118   C119    1.389   .     A
C118   H127    1.082   .     S
C119   H122    1.084   .     S
C120   H121    1.077   .     S
C128   C208    1.339   .     S
C128   O216    1.387   .     S
H130   C208    1.086   .     S
C131   H369    1.088   .     S
C131   C370    1.346   .     S
H132   C605    1.088   1_545 S
C133   C605    1.346   1_545 S
C133   N619    1.437   1_545 S
N134   O135    1.301   .     A
N134   O136    1.301   .     A
O137   C138    1.412   .     S
C138   H139    1.116   .     S
C138   C141    1.522   .     S
H140   C217    1.113   .     S
C141   H143    1.111   .     S
C141   H142    1.111   .     S
C141   H144    1.112   .     S
N145   O147    1.301   .     A
N145   C370    1.437   .     S
N145   O383    1.301   .     S
O146   N619    1.301   1_545 S
N148   O150    1.301   .     A
N148   O149    1.301   .     A
O151   C152    1.411   .     S
C152   H153    1.114   .     S
C152   H154    1.115   .     S
C152   C155    1.519   .     S
C155   H157    1.109   .     S
C155   H158    1.110   .     S
C155   H156    1.111   .     S
Zn159  O163    1.960   .     S
Zn159  O171    1.918   .     S
Zn159  O165    1.922   .     S
Zn159  O172    1.936   .     S
Zn160  O174    1.925   .     S
Zn160  O163    1.942   .     S
Zn160  O168    1.922   .     S
Zn160  O166    1.945   .     S
Zn161  O170    1.927   .     S
Zn161  O167    1.938   .     S
Zn161  O163    1.933   .     S
Zn161  O175    1.936   .     S
Zn162  O164    1.931   .     S
Zn162  O169    1.933   .     S
Zn162  O163    1.930   .     S
Zn162  O173    1.939   .     S
O164   C176    1.270   .     A
O165   C177    1.281   .     A
O166   C178    1.272   .     A
O167   C179    1.275   .     A
O168   C180    1.277   .     A
O169   C181    1.285   .     A
O170   C180    1.275   .     A
O171   C181    1.285   .     A
O172   C178    1.275   .     A
O173   C179    1.261   .     A
O174   C176    1.268   .     A
O175   C177    1.281   .     A
C176   C208    1.438   .     S
C177   C207    1.462   .     S
C178   C212    1.430   .     S
C179   C210    1.453   .     S
C180   C183    1.455   .     S
C181   C182    1.472   .     S
C182   C185    1.397   .     A
C182   C186    1.396   .     A
C183   C198    1.392   .     A
C183   C199    1.393   .     A
C184   H202    1.081   .     S
C184   C185    1.393   .     A
C184   C188    1.411   .     A
C185   H203    1.083   .     S
C186   H204    1.078   .     S
C186   C187    1.409   .     A
C187   C188    1.422   .     A
C187   C189    1.428   .     A
C188   C903    1.408   .     S
C189   C193    1.424   .     A
C189   C901    1.419   .     S
C190   C196    1.426   .     A
C190   C191    1.413   .     A
C190   C900    1.419   1_554 S
C191   C192    1.396   .     A
C191   H205    1.076   .     S
C192   N213    1.438   .     S
C192   C899    1.408   1_554 S
C193   C194    1.401   .     A
C193   O230    1.383   .     S
C194   N227    1.438   .     S
C194   C906    1.406   .     S
C195   C196    1.424   .     A
C195   C197    1.410   .     A
C195   C905    1.406   1_554 S
C196   C199    1.414   .     A
C197   C198    1.389   .     A
C197   H206    1.082   .     S
C198   H201    1.084   .     S
C199   H200    1.077   .     S
C207   C50     1.339   1_655 S
C207   O58     1.387   1_655 S
H209   C50     1.086   1_655 S
C210   H448    1.088   .     S
C210   C449    1.346   .     S
H211   C684    1.088   1_545 S
C212   C684    1.346   1_545 S
C212   N698    1.437   1_545 S
N213   O214    1.301   .     A
N213   O215    1.301   .     A
O216   C217    1.412   .     S
C217   H218    1.116   .     S
C217   C220    1.522   .     S
H219   C59     1.113   1_655 S
C220   H222    1.111   .     S
C220   H221    1.111   .     S
C220   H223    1.112   .     S
N224   O226    1.301   .     A
N224   C449    1.437   .     S
N224   O462    1.301   .     S
O225   N698    1.301   1_545 S
N227   O229    1.301   .     A
N227   O228    1.301   .     A
O230   C231    1.411   .     S
C231   H232    1.114   .     S
C231   H233    1.115   .     S
C231   C234    1.519   .     S
C234   H236    1.109   .     S
C234   H237    1.110   .     S
C234   H235    1.111   .     S
Zn238  O242    1.960   .     S
Zn238  O250    1.918   .     S
Zn238  O244    1.922   .     S
Zn238  O251    1.936   .     S
Zn239  O253    1.925   .     S
Zn239  O242    1.942   .     S
Zn239  O247    1.922   .     S
Zn239  O245    1.945   .     S
Zn240  O249    1.927   .     S
Zn240  O246    1.938   .     S
Zn240  O242    1.933   .     S
Zn240  O254    1.936   .     S
Zn241  O243    1.931   .     S
Zn241  O248    1.933   .     S
Zn241  O242    1.930   .     S
Zn241  O252    1.939   .     S
O243   C255    1.270   .     A
O244   C256    1.281   .     A
O245   C257    1.272   .     A
O246   C258    1.275   .     A
O247   C259    1.277   .     A
O248   C260    1.285   .     A
O249   C259    1.275   .     A
O250   C260    1.285   .     A
O251   C257    1.275   .     A
O252   C258    1.261   .     A
O253   C255    1.268   .     A
O254   C256    1.281   .     A
C255   C287    1.438   .     S
C256   C286    1.462   .     S
C257   C291    1.430   .     S
C258   C289    1.453   .     S
C259   C262    1.455   .     S
C260   C261    1.472   .     S
C261   C264    1.397   .     A
C261   C265    1.396   .     A
C262   C277    1.392   .     A
C262   C278    1.393   .     A
C263   H281    1.081   .     S
C263   C264    1.393   .     A
C263   C267    1.411   .     A
C264   H282    1.083   .     S
C265   H283    1.078   .     S
C265   C266    1.409   .     A
C266   C267    1.422   .     A
C266   C268    1.428   .     A
C267   C982    1.408   .     S
C268   C272    1.424   .     A
C268   C980    1.419   .     S
C269   C275    1.426   .     A
C269   C270    1.413   .     A
C269   C979    1.419   1_554 S
C270   C271    1.396   .     A
C270   H284    1.076   .     S
C271   N292    1.438   .     S
C271   C978    1.408   1_554 S
C272   C273    1.401   .     A
C272   O309    1.383   .     S
C273   N306    1.438   .     S
C273   C985    1.406   .     S
C274   C275    1.424   .     A
C274   C276    1.410   .     A
C274   C984    1.406   1_554 S
C275   C278    1.414   .     A
C276   C277    1.389   .     A
C276   H285    1.082   .     S
C277   H280    1.084   .     S
C278   H279    1.077   .     S
C286   C366    1.339   .     S
C286   O374    1.387   .     S
C287   C444    1.339   1_455 S
C287   H446    1.086   1_455 S
H288   C366    1.086   .     S
C289   H527    1.088   .     S
C289   C528    1.346   .     S
N292   O293    1.301   .     A
N292   O294    1.301   .     A
O295   C296    1.412   .     S
O295   C444    1.387   1_455 S
C296   H297    1.116   .     S
C296   C299    1.522   .     S
C296   H456    1.113   1_455 S
H298   C375    1.113   .     S
C299   H301    1.111   .     S
C299   H300    1.111   .     S
C299   H302    1.112   .     S
N303   O305    1.301   .     A
N303   C528    1.437   .     S
N303   O541    1.301   .     S
N306   O308    1.301   .     A
N306   O307    1.301   .     A
O309   C310    1.411   .     S
C310   H311    1.114   .     S
C310   H312    1.115   .     S
C310   C313    1.519   .     S
C313   H315    1.109   .     S
C313   H316    1.110   .     S
C313   H314    1.111   .     S
Zn317  O321    1.960   .     S
Zn317  O329    1.918   .     S
Zn317  O323    1.922   .     S
Zn317  O330    1.936   .     S
Zn318  O332    1.925   .     S
Zn318  O321    1.942   .     S
Zn318  O326    1.922   .     S
Zn318  O324    1.945   .     S
Zn319  O328    1.927   .     S
Zn319  O325    1.938   .     S
Zn319  O321    1.933   .     S
Zn319  O333    1.936   .     S
Zn320  O322    1.931   .     S
Zn320  O327    1.933   .     S
Zn320  O321    1.930   .     S
Zn320  O331    1.939   .     S
O322   C334    1.270   .     A
O323   C335    1.281   .     A
O324   C336    1.272   .     A
O325   C337    1.275   .     A
O326   C338    1.277   .     A
O327   C339    1.285   .     A
O328   C338    1.275   .     A
O329   C339    1.285   .     A
O330   C336    1.275   .     A
O331   C337    1.261   .     A
O332   C334    1.268   .     A
O333   C335    1.281   .     A
C334   C366    1.438   .     S
C335   C365    1.462   .     S
C336   C370    1.430   .     S
C337   C368    1.453   .     S
C338   C341    1.455   .     S
C339   C340    1.472   .     S
C340   C343    1.397   .     A
C340   C344    1.396   .     A
C341   C356    1.392   .     A
C341   C357    1.393   .     A
C342   H360    1.081   .     S
C342   C343    1.393   .     A
C342   C346    1.411   .     A
C343   H361    1.083   .     S
C344   H362    1.078   .     S
C344   C345    1.409   .     A
C345   C346    1.422   .     A
C345   C347    1.428   .     A
C346   C1061   1.408   .     S
C347   C351    1.424   .     A
C347   C1059   1.419   .     S
C348   C354    1.426   .     A
C348   C349    1.413   .     A
C348   C1058   1.419   1_554 S
C349   C350    1.396   .     A
C349   H363    1.076   .     S
C350   N371    1.438   .     S
C350   C1057   1.408   1_554 S
C351   C352    1.401   .     A
C351   O388    1.383   .     S
C352   N385    1.438   .     S
C352   C1064   1.406   .     S
C353   C354    1.424   .     A
C353   C355    1.410   .     A
C353   C1063   1.406   1_554 S
C354   C357    1.414   .     A
C355   C356    1.389   .     A
C355   H364    1.082   .     S
C356   H359    1.084   .     S
C357   H358    1.077   .     S
C365   C445    1.339   .     S
C365   O453    1.387   .     S
H367   C445    1.086   .     S
C368   H606    1.088   .     S
C368   C607    1.346   .     S
N371   O372    1.301   .     A
N371   O373    1.301   .     A
O374   C375    1.412   .     S
C375   H376    1.116   .     S
C375   C378    1.522   .     S
H377   C454    1.113   .     S
C378   H380    1.111   .     S
C378   H379    1.111   .     S
C378   H381    1.112   .     S
N382   O384    1.301   .     A
N382   C607    1.437   .     S
N382   O620    1.301   .     S
N385   O387    1.301   .     A
N385   O386    1.301   .     A
O388   C389    1.411   .     S
C389   H390    1.114   .     S
C389   H391    1.115   .     S
C389   C392    1.519   .     S
C392   H394    1.109   .     S
C392   H395    1.110   .     S
C392   H393    1.111   .     S
Zn396  O400    1.960   .     S
Zn396  O408    1.918   .     S
Zn396  O402    1.922   .     S
Zn396  O409    1.936   .     S
Zn397  O411    1.925   .     S
Zn397  O400    1.942   .     S
Zn397  O405    1.922   .     S
Zn397  O403    1.945   .     S
Zn398  O407    1.927   .     S
Zn398  O404    1.938   .     S
Zn398  O400    1.933   .     S
Zn398  O412    1.936   .     S
Zn399  O401    1.931   .     S
Zn399  O406    1.933   .     S
Zn399  O400    1.930   .     S
Zn399  O410    1.939   .     S
O401   C413    1.270   .     A
O402   C414    1.281   .     A
O403   C415    1.272   .     A
O404   C416    1.275   .     A
O405   C417    1.277   .     A
O406   C418    1.285   .     A
O407   C417    1.275   .     A
O408   C418    1.285   .     A
O409   C415    1.275   .     A
O410   C416    1.261   .     A
O411   C413    1.268   .     A
O412   C414    1.281   .     A
C413   C445    1.438   .     S
C414   C444    1.462   .     S
C415   C449    1.430   .     S
C416   C447    1.453   .     S
C417   C420    1.455   .     S
C418   C419    1.472   .     S
C419   C422    1.397   .     A
C419   C423    1.396   .     A
C420   C435    1.392   .     A
C420   C436    1.393   .     A
C421   H439    1.081   .     S
C421   C422    1.393   .     A
C421   C425    1.411   .     A
C422   H440    1.083   .     S
C423   H441    1.078   .     S
C423   C424    1.409   .     A
C424   C425    1.422   .     A
C424   C426    1.428   .     A
C425   C1140   1.408   .     S
C426   C430    1.424   .     A
C426   C1138   1.419   .     S
C427   C433    1.426   .     A
C427   C428    1.413   .     A
C427   C1137   1.419   1_554 S
C428   C429    1.396   .     A
C428   H442    1.076   .     S
C429   N450    1.438   .     S
C429   C1136   1.408   1_554 S
C430   C431    1.401   .     A
C430   O467    1.383   .     S
C431   N464    1.438   .     S
C431   C1143   1.406   .     S
C432   C433    1.424   .     A
C432   C434    1.410   .     A
C432   C1142   1.406   1_554 S
C433   C436    1.414   .     A
C434   C435    1.389   .     A
C434   H443    1.082   .     S
C435   H438    1.084   .     S
C436   H437    1.077   .     S
C444   C287    1.339   1_655 S
C444   O295    1.387   1_655 S
H446   C287    1.086   1_655 S
C447   H685    1.088   .     S
C447   C686    1.346   .     S
N450   O451    1.301   .     A
N450   O452    1.301   .     A
O453   C454    1.412   .     S
C454   H455    1.116   .     S
C454   C457    1.522   .     S
H456   C296    1.113   1_655 S
C457   H459    1.111   .     S
C457   H458    1.111   .     S
C457   H460    1.112   .     S
N461   O463    1.301   .     A
N461   C686    1.437   .     S
N461   O699    1.301   .     S
N464   O466    1.301   .     A
N464   O465    1.301   .     A
O467   C468    1.411   .     S
C468   H469    1.114   .     S
C468   H470    1.115   .     S
C468   C471    1.519   .     S
C471   H473    1.109   .     S
C471   H474    1.110   .     S
C471   H472    1.111   .     S
Zn475  O479    1.960   .     S
Zn475  O487    1.918   .     S
Zn475  O481    1.922   .     S
Zn475  O488    1.936   .     S
Zn476  O490    1.925   .     S
Zn476  O479    1.942   .     S
Zn476  O484    1.922   .     S
Zn476  O482    1.945   .     S
Zn477  O486    1.927   .     S
Zn477  O483    1.938   .     S
Zn477  O479    1.933   .     S
Zn477  O491    1.936   .     S
Zn478  O480    1.931   .     S
Zn478  O485    1.933   .     S
Zn478  O479    1.930   .     S
Zn478  O489    1.939   .     S
O480   C492    1.270   .     A
O481   C493    1.281   .     A
O482   C494    1.272   .     A
O483   C495    1.275   .     A
O484   C496    1.277   .     A
O485   C497    1.285   .     A
O486   C496    1.275   .     A
O487   C497    1.285   .     A
O488   C494    1.275   .     A
O489   C495    1.261   .     A
O490   C492    1.268   .     A
O491   C493    1.281   .     A
C492   C524    1.438   .     S
C493   C523    1.462   .     S
C494   C528    1.430   .     S
C495   C526    1.453   .     S
C496   C499    1.455   .     S
C497   C498    1.472   .     S
C498   C501    1.397   .     A
C498   C502    1.396   .     A
C499   C514    1.392   .     A
C499   C515    1.393   .     A
C500   H518    1.081   .     S
C500   C501    1.393   .     A
C500   C504    1.411   .     A
C501   H519    1.083   .     S
C502   H520    1.078   .     S
C502   C503    1.409   .     A
C503   C504    1.422   .     A
C503   C505    1.428   .     A
C504   C1219   1.408   .     S
C505   C509    1.424   .     A
C505   C1217   1.419   .     S
C506   C512    1.426   .     A
C506   C507    1.413   .     A
C506   C1216   1.419   1_554 S
C507   C508    1.396   .     A
C507   H521    1.076   .     S
C508   N529    1.438   .     S
C508   C1215   1.408   1_554 S
C509   C510    1.401   .     A
C509   O546    1.383   .     S
C510   N543    1.438   .     S
C510   C1222   1.406   .     S
C511   C512    1.424   .     A
C511   C513    1.410   .     A
C511   C1221   1.406   1_554 S
C512   C515    1.414   .     A
C513   C514    1.389   .     A
C513   H522    1.082   .     S
C514   H517    1.084   .     S
C515   H516    1.077   .     S
C523   C603    1.339   .     S
C523   O611    1.387   .     S
C524   C681    1.339   1_455 S
C524   H683    1.086   1_455 S
H525   C603    1.086   .     S
C526   H53     1.088   1_565 S
C526   C54     1.346   1_565 S
N529   O530    1.301   .     A
N529   O531    1.301   .     A
O532   C533    1.412   .     S
O532   C681    1.387   1_455 S
C533   H534    1.116   .     S
C533   C536    1.522   .     S
C533   H693    1.113   1_455 S
H535   C612    1.113   .     S
C536   H538    1.111   .     S
C536   H537    1.111   .     S
C536   H539    1.112   .     S
N540   O542    1.301   .     A
N540   C54     1.437   1_565 S
N540   O67     1.301   1_565 S
N543   O545    1.301   .     A
N543   O544    1.301   .     A
O546   C547    1.411   .     S
C547   H548    1.114   .     S
C547   H549    1.115   .     S
C547   C550    1.519   .     S
C550   H552    1.109   .     S
C550   H553    1.110   .     S
C550   H551    1.111   .     S
Zn554  O558    1.960   .     S
Zn554  O566    1.918   .     S
Zn554  O560    1.922   .     S
Zn554  O567    1.936   .     S
Zn555  O569    1.925   .     S
Zn555  O558    1.942   .     S
Zn555  O563    1.922   .     S
Zn555  O561    1.945   .     S
Zn556  O565    1.927   .     S
Zn556  O562    1.938   .     S
Zn556  O558    1.933   .     S
Zn556  O570    1.936   .     S
Zn557  O559    1.931   .     S
Zn557  O564    1.933   .     S
Zn557  O558    1.930   .     S
Zn557  O568    1.939   .     S
O559   C571    1.270   .     A
O560   C572    1.281   .     A
O561   C573    1.272   .     A
O562   C574    1.275   .     A
O563   C575    1.277   .     A
O564   C576    1.285   .     A
O565   C575    1.275   .     A
O566   C576    1.285   .     A
O567   C573    1.275   .     A
O568   C574    1.261   .     A
O569   C571    1.268   .     A
O570   C572    1.281   .     A
C571   C603    1.438   .     S
C572   C602    1.462   .     S
C573   C607    1.430   .     S
C574   C605    1.453   .     S
C575   C578    1.455   .     S
C576   C577    1.472   .     S
C577   C580    1.397   .     A
C577   C581    1.396   .     A
C578   C593    1.392   .     A
C578   C594    1.393   .     A
C579   H597    1.081   .     S
C579   C580    1.393   .     A
C579   C583    1.411   .     A
C580   H598    1.083   .     S
C581   H599    1.078   .     S
C581   C582    1.409   .     A
C582   C583    1.422   .     A
C582   C584    1.428   .     A
C583   C1298   1.408   .     S
C584   C588    1.424   .     A
C584   C1296   1.419   .     S
C585   C591    1.426   .     A
C585   C586    1.413   .     A
C585   C1295   1.419   1_554 S
C586   C587    1.396   .     A
C586   H600    1.076   .     S
C587   N608    1.438   .     S
C587   C1294   1.408   1_554 S
C588   C589    1.401   .     A
C588   O625    1.383   .     S
C589   N622    1.438   .     S
C589   C1301   1.406   .     S
C590   C591    1.424   .     A
C590   C592    1.410   .     A
C590   C1300   1.406   1_554 S
C591   C594    1.414   .     A
C592   C593    1.389   .     A
C592   H601    1.082   .     S
C593   H596    1.084   .     S
C594   H595    1.077   .     S
C602   C682    1.339   .     S
C602   O690    1.387   .     S
H604   C682    1.086   .     S
C605   H132    1.088   1_565 S
C605   C133    1.346   1_565 S
N608   O609    1.301   .     A
N608   O610    1.301   .     A
O611   C612    1.412   .     S
C612   H613    1.116   .     S
C612   C615    1.522   .     S
H614   C691    1.113   .     S
C615   H617    1.111   .     S
C615   H616    1.111   .     S
C615   H618    1.112   .     S
N619   O621    1.301   .     A
N619   C133    1.437   1_565 S
N619   O146    1.301   1_565 S
N622   O624    1.301   .     A
N622   O623    1.301   .     A
O625   C626    1.411   .     S
C626   H627    1.114   .     S
C626   H628    1.115   .     S
C626   C629    1.519   .     S
C629   H631    1.109   .     S
C629   H632    1.110   .     S
C629   H630    1.111   .     S
Zn633  O637    1.960   .     S
Zn633  O645    1.918   .     S
Zn633  O639    1.922   .     S
Zn633  O646    1.936   .     S
Zn634  O648    1.925   .     S
Zn634  O637    1.942   .     S
Zn634  O642    1.922   .     S
Zn634  O640    1.945   .     S
Zn635  O644    1.927   .     S
Zn635  O641    1.938   .     S
Zn635  O637    1.933   .     S
Zn635  O649    1.936   .     S
Zn636  O638    1.931   .     S
Zn636  O643    1.933   .     S
Zn636  O637    1.930   .     S
Zn636  O647    1.939   .     S
O638   C650    1.270   .     A
O639   C651    1.281   .     A
O640   C652    1.272   .     A
O641   C653    1.275   .     A
O642   C654    1.277   .     A
O643   C655    1.285   .     A
O644   C654    1.275   .     A
O645   C655    1.285   .     A
O646   C652    1.275   .     A
O647   C653    1.261   .     A
O648   C650    1.268   .     A
O649   C651    1.281   .     A
C650   C682    1.438   .     S
C651   C681    1.462   .     S
C652   C686    1.430   .     S
C653   C684    1.453   .     S
C654   C657    1.455   .     S
C655   C656    1.472   .     S
C656   C659    1.397   .     A
C656   C660    1.396   .     A
C657   C672    1.392   .     A
C657   C673    1.393   .     A
C658   H676    1.081   .     S
C658   C659    1.393   .     A
C658   C662    1.411   .     A
C659   H677    1.083   .     S
C660   H678    1.078   .     S
C660   C661    1.409   .     A
C661   C662    1.422   .     A
C661   C663    1.428   .     A
C662   C1377   1.408   .     S
C663   C667    1.424   .     A
C663   C1375   1.419   .     S
C664   C670    1.426   .     A
C664   C665    1.413   .     A
C664   C1374   1.419   1_554 S
C665   C666    1.396   .     A
C665   H679    1.076   .     S
C666   N687    1.438   .     S
C666   C1373   1.408   1_554 S
C667   C668    1.401   .     A
C667   O704    1.383   .     S
C668   N701    1.438   .     S
C668   C1380   1.406   .     S
C669   C670    1.424   .     A
C669   C671    1.410   .     A
C669   C1379   1.406   1_554 S
C670   C673    1.414   .     A
C671   C672    1.389   .     A
C671   H680    1.082   .     S
C672   H675    1.084   .     S
C673   H674    1.077   .     S
C681   C524    1.339   1_655 S
C681   O532    1.387   1_655 S
H683   C524    1.086   1_655 S
C684   H211    1.088   1_565 S
C684   C212    1.346   1_565 S
N687   O688    1.301   .     A
N687   O689    1.301   .     A
O690   C691    1.412   .     S
C691   H692    1.116   .     S
C691   C694    1.522   .     S
H693   C533    1.113   1_655 S
C694   H696    1.111   .     S
C694   H695    1.111   .     S
C694   H697    1.112   .     S
N698   O700    1.301   .     A
N698   C212    1.437   1_565 S
N698   O225    1.301   1_565 S
N701   O703    1.301   .     A
N701   O702    1.301   .     A
O704   C705    1.411   .     S
C705   H706    1.114   .     S
C705   H707    1.115   .     S
C705   C708    1.519   .     S
C708   H710    1.109   .     S
C708   H711    1.110   .     S
C708   H709    1.111   .     S
Zn712  O716    1.960   .     S
Zn712  O724    1.918   .     S
Zn712  O718    1.922   .     S
Zn712  O725    1.936   .     S
Zn713  O727    1.925   .     S
Zn713  O716    1.942   .     S
Zn713  O721    1.922   .     S
Zn713  O719    1.945   .     S
Zn714  O723    1.927   .     S
Zn714  O720    1.938   .     S
Zn714  O716    1.933   .     S
Zn714  O728    1.936   .     S
Zn715  O717    1.931   .     S
Zn715  O722    1.933   .     S
Zn715  O716    1.930   .     S
Zn715  O726    1.939   .     S
O717   C729    1.270   .     A
O718   C730    1.281   .     A
O719   C731    1.272   .     A
O720   C732    1.275   .     A
O721   C733    1.277   .     A
O722   C734    1.285   .     A
O723   C733    1.275   .     A
O724   C734    1.285   .     A
O725   C731    1.275   .     A
O726   C732    1.261   .     A
O727   C729    1.268   .     A
O728   C730    1.281   .     A
C729   C761    1.438   .     S
C730   C760    1.462   .     S
C731   C765    1.430   .     S
C732   C763    1.453   .     S
C733   C736    1.455   .     S
C734   C735    1.472   .     S
C735   C738    1.397   .     A
C735   C739    1.396   .     A
C736   C751    1.392   .     A
C736   C752    1.393   .     A
C737   H755    1.081   .     S
C737   C738    1.393   .     A
C737   C741    1.411   .     A
C738   H756    1.083   .     S
C739   H757    1.078   .     S
C739   C740    1.409   .     A
C740   C741    1.422   .     A
C740   C742    1.428   .     A
C741   C34     1.408   1_556 S
C742   C746    1.424   .     A
C742   C32     1.419   1_556 S
C743   C749    1.426   .     A
C743   C744    1.413   .     A
C744   C745    1.396   .     A
C744   H758    1.076   .     S
C745   N766    1.438   .     S
C746   C747    1.401   .     A
C746   O783    1.383   .     S
C747   N780    1.438   .     S
C747   C37     1.406   1_556 S
C748   C749    1.424   .     A
C748   C750    1.410   .     A
C749   C752    1.414   .     A
C750   C751    1.389   .     A
C750   H759    1.082   .     S
C751   H754    1.084   .     S
C752   H753    1.077   .     S
C760   C840    1.339   .     S
C760   O848    1.387   .     S
C761   C918    1.339   1_455 S
C761   H920    1.086   1_455 S
H762   C840    1.086   .     S
C763   H1001   1.088   .     S
C763   C1002   1.346   .     S
H764   C1237   1.088   1_545 S
C765   C1237   1.346   1_545 S
C765   N1251   1.437   1_545 S
N766   O767    1.301   .     A
N766   O768    1.301   .     A
O769   C770    1.412   .     S
O769   C918    1.387   1_455 S
C770   H771    1.116   .     S
C770   C773    1.522   .     S
C770   H930    1.113   1_455 S
H772   C849    1.113   .     S
C773   H775    1.111   .     S
C773   H774    1.111   .     S
C773   H776    1.112   .     S
N777   O779    1.301   .     A
N777   C1002   1.437   .     S
N777   O1015   1.301   .     S
O778   N1251   1.301   1_545 S
N780   O782    1.301   .     A
N780   O781    1.301   .     A
O783   C784    1.411   .     S
C784   H785    1.114   .     S
C784   H786    1.115   .     S
C784   C787    1.519   .     S
C787   H789    1.109   .     S
C787   H790    1.110   .     S
C787   H788    1.111   .     S
Zn791  O795    1.960   .     S
Zn791  O803    1.918   .     S
Zn791  O797    1.922   .     S
Zn791  O804    1.936   .     S
Zn792  O806    1.925   .     S
Zn792  O795    1.942   .     S
Zn792  O800    1.922   .     S
Zn792  O798    1.945   .     S
Zn793  O802    1.927   .     S
Zn793  O799    1.938   .     S
Zn793  O795    1.933   .     S
Zn793  O807    1.936   .     S
Zn794  O796    1.931   .     S
Zn794  O801    1.933   .     S
Zn794  O795    1.930   .     S
Zn794  O805    1.939   .     S
O796   C808    1.270   .     A
O797   C809    1.281   .     A
O798   C810    1.272   .     A
O799   C811    1.275   .     A
O800   C812    1.277   .     A
O801   C813    1.285   .     A
O802   C812    1.275   .     A
O803   C813    1.285   .     A
O804   C810    1.275   .     A
O805   C811    1.261   .     A
O806   C808    1.268   .     A
O807   C809    1.281   .     A
C808   C840    1.438   .     S
C809   C839    1.462   .     S
C810   C844    1.430   .     S
C811   C842    1.453   .     S
C812   C815    1.455   .     S
C813   C814    1.472   .     S
C814   C817    1.397   .     A
C814   C818    1.396   .     A
C815   C830    1.392   .     A
C815   C831    1.393   .     A
C816   H834    1.081   .     S
C816   C817    1.393   .     A
C816   C820    1.411   .     A
C817   H835    1.083   .     S
C818   H836    1.078   .     S
C818   C819    1.409   .     A
C819   C820    1.422   .     A
C819   C821    1.428   .     A
C820   C113    1.408   1_556 S
C821   C825    1.424   .     A
C821   C111    1.419   1_556 S
C822   C828    1.426   .     A
C822   C823    1.413   .     A
C823   C824    1.396   .     A
C823   H837    1.076   .     S
C824   N845    1.438   .     S
C825   C826    1.401   .     A
C825   O862    1.383   .     S
C826   N859    1.438   .     S
C826   C116    1.406   1_556 S
C827   C828    1.424   .     A
C827   C829    1.410   .     A
C828   C831    1.414   .     A
C829   C830    1.389   .     A
C829   H838    1.082   .     S
C830   H833    1.084   .     S
C831   H832    1.077   .     S
C839   C919    1.339   .     S
C839   O927    1.387   .     S
H841   C919    1.086   .     S
C842   H1080   1.088   .     S
C842   C1081   1.346   .     S
H843   C1316   1.088   1_545 S
C844   C1316   1.346   1_545 S
C844   N1330   1.437   1_545 S
N845   O846    1.301   .     A
N845   O847    1.301   .     A
O848   C849    1.412   .     S
C849   H850    1.116   .     S
C849   C852    1.522   .     S
H851   C928    1.113   .     S
C852   H854    1.111   .     S
C852   H853    1.111   .     S
C852   H855    1.112   .     S
N856   O858    1.301   .     A
N856   C1081   1.437   .     S
N856   O1094   1.301   .     S
O857   N1330   1.301   1_545 S
N859   O861    1.301   .     A
N859   O860    1.301   .     A
O862   C863    1.411   .     S
C863   H864    1.114   .     S
C863   H865    1.115   .     S
C863   C866    1.519   .     S
C866   H868    1.109   .     S
C866   H869    1.110   .     S
C866   H867    1.111   .     S
Zn870  O874    1.960   .     S
Zn870  O882    1.918   .     S
Zn870  O876    1.922   .     S
Zn870  O883    1.936   .     S
Zn871  O885    1.925   .     S
Zn871  O874    1.942   .     S
Zn871  O879    1.922   .     S
Zn871  O877    1.945   .     S
Zn872  O881    1.927   .     S
Zn872  O878    1.938   .     S
Zn872  O874    1.933   .     S
Zn872  O886    1.936   .     S
Zn873  O875    1.931   .     S
Zn873  O880    1.933   .     S
Zn873  O874    1.930   .     S
Zn873  O884    1.939   .     S
O875   C887    1.270   .     A
O876   C888    1.281   .     A
O877   C889    1.272   .     A
O878   C890    1.275   .     A
O879   C891    1.277   .     A
O880   C892    1.285   .     A
O881   C891    1.275   .     A
O882   C892    1.285   .     A
O883   C889    1.275   .     A
O884   C890    1.261   .     A
O885   C887    1.268   .     A
O886   C888    1.281   .     A
C887   C919    1.438   .     S
C888   C918    1.462   .     S
C889   C923    1.430   .     S
C890   C921    1.453   .     S
C891   C894    1.455   .     S
C892   C893    1.472   .     S
C893   C896    1.397   .     A
C893   C897    1.396   .     A
C894   C909    1.392   .     A
C894   C910    1.393   .     A
C895   H913    1.081   .     S
C895   C896    1.393   .     A
C895   C899    1.411   .     A
C896   H914    1.083   .     S
C897   H915    1.078   .     S
C897   C898    1.409   .     A
C898   C899    1.422   .     A
C898   C900    1.428   .     A
C899   C192    1.408   1_556 S
C900   C904    1.424   .     A
C900   C190    1.419   1_556 S
C901   C907    1.426   .     A
C901   C902    1.413   .     A
C902   C903    1.396   .     A
C902   H916    1.076   .     S
C903   N924    1.438   .     S
C904   C905    1.401   .     A
C904   O941    1.383   .     S
C905   N938    1.438   .     S
C905   C195    1.406   1_556 S
C906   C907    1.424   .     A
C906   C908    1.410   .     A
C907   C910    1.414   .     A
C908   C909    1.389   .     A
C908   H917    1.082   .     S
C909   H912    1.084   .     S
C910   H911    1.077   .     S
C918   C761    1.339   1_655 S
C918   O769    1.387   1_655 S
H920   C761    1.086   1_655 S
C921   H1159   1.088   .     S
C921   C1160   1.346   .     S
H922   C1395   1.088   1_545 S
C923   C1395   1.346   1_545 S
C923   N1409   1.437   1_545 S
N924   O925    1.301   .     A
N924   O926    1.301   .     A
O927   C928    1.412   .     S
C928   H929    1.116   .     S
C928   C931    1.522   .     S
H930   C770    1.113   1_655 S
C931   H933    1.111   .     S
C931   H932    1.111   .     S
C931   H934    1.112   .     S
N935   O937    1.301   .     A
N935   C1160   1.437   .     S
N935   O1173   1.301   .     S
O936   N1409   1.301   1_545 S
N938   O940    1.301   .     A
N938   O939    1.301   .     A
O941   C942    1.411   .     S
C942   H943    1.114   .     S
C942   H944    1.115   .     S
C942   C945    1.519   .     S
C945   H947    1.109   .     S
C945   H948    1.110   .     S
C945   H946    1.111   .     S
Zn949  O953    1.960   .     S
Zn949  O961    1.918   .     S
Zn949  O955    1.922   .     S
Zn949  O962    1.936   .     S
Zn950  O964    1.925   .     S
Zn950  O953    1.942   .     S
Zn950  O958    1.922   .     S
Zn950  O956    1.945   .     S
Zn951  O960    1.927   .     S
Zn951  O957    1.938   .     S
Zn951  O953    1.933   .     S
Zn951  O965    1.936   .     S
Zn952  O954    1.931   .     S
Zn952  O959    1.933   .     S
Zn952  O953    1.930   .     S
Zn952  O963    1.939   .     S
O954   C966    1.270   .     A
O955   C967    1.281   .     A
O956   C968    1.272   .     A
O957   C969    1.275   .     A
O958   C970    1.277   .     A
O959   C971    1.285   .     A
O960   C970    1.275   .     A
O961   C971    1.285   .     A
O962   C968    1.275   .     A
O963   C969    1.261   .     A
O964   C966    1.268   .     A
O965   C967    1.281   .     A
C966   C998    1.438   .     S
C967   C997    1.462   .     S
C968   C1002   1.430   .     S
C969   C1000   1.453   .     S
C970   C973    1.455   .     S
C971   C972    1.472   .     S
C972   C975    1.397   .     A
C972   C976    1.396   .     A
C973   C988    1.392   .     A
C973   C989    1.393   .     A
C974   H992    1.081   .     S
C974   C975    1.393   .     A
C974   C978    1.411   .     A
C975   H993    1.083   .     S
C976   H994    1.078   .     S
C976   C977    1.409   .     A
C977   C978    1.422   .     A
C977   C979    1.428   .     A
C978   C271    1.408   1_556 S
C979   C983    1.424   .     A
C979   C269    1.419   1_556 S
C980   C986    1.426   .     A
C980   C981    1.413   .     A
C981   C982    1.396   .     A
C981   H995    1.076   .     S
C982   N1003   1.438   .     S
C983   C984    1.401   .     A
C983   O1020   1.383   .     S
C984   N1017   1.438   .     S
C984   C274    1.406   1_556 S
C985   C986    1.424   .     A
C985   C987    1.410   .     A
C986   C989    1.414   .     A
C987   C988    1.389   .     A
C987   H996    1.082   .     S
C988   H991    1.084   .     S
C989   H990    1.077   .     S
C997   C1077   1.339   .     S
C997   O1085   1.387   .     S
C998   C1155   1.339   1_455 S
C998   H1157   1.086   1_455 S
H999   C1077   1.086   .     S
C1000  H1238   1.088   .     S
C1000  C1239   1.346   .     S
N1003  O1004   1.301   .     A
N1003  O1005   1.301   .     A
O1006  C1007   1.412   .     S
O1006  C1155   1.387   1_455 S
C1007  H1008   1.116   .     S
C1007  C1010   1.522   .     S
C1007  H1167   1.113   1_455 S
H1009  C1086   1.113   .     S
C1010  H1012   1.111   .     S
C1010  H1011   1.111   .     S
C1010  H1013   1.112   .     S
N1014  O1016   1.301   .     A
N1014  C1239   1.437   .     S
N1014  O1252   1.301   .     S
N1017  O1019   1.301   .     A
N1017  O1018   1.301   .     A
O1020  C1021   1.411   .     S
C1021  H1022   1.114   .     S
C1021  H1023   1.115   .     S
C1021  C1024   1.519   .     S
C1024  H1026   1.109   .     S
C1024  H1027   1.110   .     S
C1024  H1025   1.111   .     S
Zn1028 O1032   1.960   .     S
Zn1028 O1040   1.918   .     S
Zn1028 O1034   1.922   .     S
Zn1028 O1041   1.936   .     S
Zn1029 O1043   1.925   .     S
Zn1029 O1032   1.942   .     S
Zn1029 O1037   1.922   .     S
Zn1029 O1035   1.945   .     S
Zn1030 O1039   1.927   .     S
Zn1030 O1036   1.938   .     S
Zn1030 O1032   1.933   .     S
Zn1030 O1044   1.936   .     S
Zn1031 O1033   1.931   .     S
Zn1031 O1038   1.933   .     S
Zn1031 O1032   1.930   .     S
Zn1031 O1042   1.939   .     S
O1033  C1045   1.270   .     A
O1034  C1046   1.281   .     A
O1035  C1047   1.272   .     A
O1036  C1048   1.275   .     A
O1037  C1049   1.277   .     A
O1038  C1050   1.285   .     A
O1039  C1049   1.275   .     A
O1040  C1050   1.285   .     A
O1041  C1047   1.275   .     A
O1042  C1048   1.261   .     A
O1043  C1045   1.268   .     A
O1044  C1046   1.281   .     A
C1045  C1077   1.438   .     S
C1046  C1076   1.462   .     S
C1047  C1081   1.430   .     S
C1048  C1079   1.453   .     S
C1049  C1052   1.455   .     S
C1050  C1051   1.472   .     S
C1051  C1054   1.397   .     A
C1051  C1055   1.396   .     A
C1052  C1067   1.392   .     A
C1052  C1068   1.393   .     A
C1053  H1071   1.081   .     S
C1053  C1054   1.393   .     A
C1053  C1057   1.411   .     A
C1054  H1072   1.083   .     S
C1055  H1073   1.078   .     S
C1055  C1056   1.409   .     A
C1056  C1057   1.422   .     A
C1056  C1058   1.428   .     A
C1057  C350    1.408   1_556 S
C1058  C1062   1.424   .     A
C1058  C348    1.419   1_556 S
C1059  C1065   1.426   .     A
C1059  C1060   1.413   .     A
C1060  C1061   1.396   .     A
C1060  H1074   1.076   .     S
C1061  N1082   1.438   .     S
C1062  C1063   1.401   .     A
C1062  O1099   1.383   .     S
C1063  N1096   1.438   .     S
C1063  C353    1.406   1_556 S
C1064  C1065   1.424   .     A
C1064  C1066   1.410   .     A
C1065  C1068   1.414   .     A
C1066  C1067   1.389   .     A
C1066  H1075   1.082   .     S
C1067  H1070   1.084   .     S
C1068  H1069   1.077   .     S
C1076  C1156   1.339   .     S
C1076  O1164   1.387   .     S
H1078  C1156   1.086   .     S
C1079  H1317   1.088   .     S
C1079  C1318   1.346   .     S
N1082  O1083   1.301   .     A
N1082  O1084   1.301   .     A
O1085  C1086   1.412   .     S
C1086  H1087   1.116   .     S
C1086  C1089   1.522   .     S
H1088  C1165   1.113   .     S
C1089  H1091   1.111   .     S
C1089  H1090   1.111   .     S
C1089  H1092   1.112   .     S
N1093  O1095   1.301   .     A
N1093  C1318   1.437   .     S
N1093  O1331   1.301   .     S
N1096  O1098   1.301   .     A
N1096  O1097   1.301   .     A
O1099  C1100   1.411   .     S
C1100  H1101   1.114   .     S
C1100  H1102   1.115   .     S
C1100  C1103   1.519   .     S
C1103  H1105   1.109   .     S
C1103  H1106   1.110   .     S
C1103  H1104   1.111   .     S
Zn1107 O1111   1.960   .     S
Zn1107 O1119   1.918   .     S
Zn1107 O1113   1.922   .     S
Zn1107 O1120   1.936   .     S
Zn1108 O1122   1.925   .     S
Zn1108 O1111   1.942   .     S
Zn1108 O1116   1.922   .     S
Zn1108 O1114   1.945   .     S
Zn1109 O1118   1.927   .     S
Zn1109 O1115   1.938   .     S
Zn1109 O1111   1.933   .     S
Zn1109 O1123   1.936   .     S
Zn1110 O1112   1.931   .     S
Zn1110 O1117   1.933   .     S
Zn1110 O1111   1.930   .     S
Zn1110 O1121   1.939   .     S
O1112  C1124   1.270   .     A
O1113  C1125   1.281   .     A
O1114  C1126   1.272   .     A
O1115  C1127   1.275   .     A
O1116  C1128   1.277   .     A
O1117  C1129   1.285   .     A
O1118  C1128   1.275   .     A
O1119  C1129   1.285   .     A
O1120  C1126   1.275   .     A
O1121  C1127   1.261   .     A
O1122  C1124   1.268   .     A
O1123  C1125   1.281   .     A
C1124  C1156   1.438   .     S
C1125  C1155   1.462   .     S
C1126  C1160   1.430   .     S
C1127  C1158   1.453   .     S
C1128  C1131   1.455   .     S
C1129  C1130   1.472   .     S
C1130  C1133   1.397   .     A
C1130  C1134   1.396   .     A
C1131  C1146   1.392   .     A
C1131  C1147   1.393   .     A
C1132  H1150   1.081   .     S
C1132  C1133   1.393   .     A
C1132  C1136   1.411   .     A
C1133  H1151   1.083   .     S
C1134  H1152   1.078   .     S
C1134  C1135   1.409   .     A
C1135  C1136   1.422   .     A
C1135  C1137   1.428   .     A
C1136  C429    1.408   1_556 S
C1137  C1141   1.424   .     A
C1137  C427    1.419   1_556 S
C1138  C1144   1.426   .     A
C1138  C1139   1.413   .     A
C1139  C1140   1.396   .     A
C1139  H1153   1.076   .     S
C1140  N1161   1.438   .     S
C1141  C1142   1.401   .     A
C1141  O1178   1.383   .     S
C1142  N1175   1.438   .     S
C1142  C432    1.406   1_556 S
C1143  C1144   1.424   .     A
C1143  C1145   1.410   .     A
C1144  C1147   1.414   .     A
C1145  C1146   1.389   .     A
C1145  H1154   1.082   .     S
C1146  H1149   1.084   .     S
C1147  H1148   1.077   .     S
C1155  C998    1.339   1_655 S
C1155  O1006   1.387   1_655 S
H1157  C998    1.086   1_655 S
C1158  H1396   1.088   .     S
C1158  C1397   1.346   .     S
N1161  O1162   1.301   .     A
N1161  O1163   1.301   .     A
O1164  C1165   1.412   .     S
C1165  H1166   1.116   .     S
C1165  C1168   1.522   .     S
H1167  C1007   1.113   1_655 S
C1168  H1170   1.111   .     S
C1168  H1169   1.111   .     S
C1168  H1171   1.112   .     S
N1172  O1174   1.301   .     A
N1172  C1397   1.437   .     S
N1172  O1410   1.301   .     S
N1175  O1177   1.301   .     A
N1175  O1176   1.301   .     A
O1178  C1179   1.411   .     S
C1179  H1180   1.114   .     S
C1179  H1181   1.115   .     S
C1179  C1182   1.519   .     S
C1182  H1184   1.109   .     S
C1182  H1185   1.110   .     S
C1182  H1183   1.111   .     S
Zn1186 O1190   1.960   .     S
Zn1186 O1198   1.918   .     S
Zn1186 O1192   1.922   .     S
Zn1186 O1199   1.936   .     S
Zn1187 O1201   1.925   .     S
Zn1187 O1190   1.942   .     S
Zn1187 O1195   1.922   .     S
Zn1187 O1193   1.945   .     S
Zn1188 O1197   1.927   .     S
Zn1188 O1194   1.938   .     S
Zn1188 O1190   1.933   .     S
Zn1188 O1202   1.936   .     S
Zn1189 O1191   1.931   .     S
Zn1189 O1196   1.933   .     S
Zn1189 O1190   1.930   .     S
Zn1189 O1200   1.939   .     S
O1191  C1203   1.270   .     A
O1192  C1204   1.281   .     A
O1193  C1205   1.272   .     A
O1194  C1206   1.275   .     A
O1195  C1207   1.277   .     A
O1196  C1208   1.285   .     A
O1197  C1207   1.275   .     A
O1198  C1208   1.285   .     A
O1199  C1205   1.275   .     A
O1200  C1206   1.261   .     A
O1201  C1203   1.268   .     A
O1202  C1204   1.281   .     A
C1203  C1235   1.438   .     S
C1204  C1234   1.462   .     S
C1205  C1239   1.430   .     S
C1206  C1237   1.453   .     S
C1207  C1210   1.455   .     S
C1208  C1209   1.472   .     S
C1209  C1212   1.397   .     A
C1209  C1213   1.396   .     A
C1210  C1225   1.392   .     A
C1210  C1226   1.393   .     A
C1211  H1229   1.081   .     S
C1211  C1212   1.393   .     A
C1211  C1215   1.411   .     A
C1212  H1230   1.083   .     S
C1213  H1231   1.078   .     S
C1213  C1214   1.409   .     A
C1214  C1215   1.422   .     A
C1214  C1216   1.428   .     A
C1215  C508    1.408   1_556 S
C1216  C1220   1.424   .     A
C1216  C506    1.419   1_556 S
C1217  C1223   1.426   .     A
C1217  C1218   1.413   .     A
C1218  C1219   1.396   .     A
C1218  H1232   1.076   .     S
C1219  N1240   1.438   .     S
C1220  C1221   1.401   .     A
C1220  O1257   1.383   .     S
C1221  N1254   1.438   .     S
C1221  C511    1.406   1_556 S
C1222  C1223   1.424   .     A
C1222  C1224   1.410   .     A
C1223  C1226   1.414   .     A
C1224  C1225   1.389   .     A
C1224  H1233   1.082   .     S
C1225  H1228   1.084   .     S
C1226  H1227   1.077   .     S
C1234  C1314   1.339   .     S
C1234  O1322   1.387   .     S
C1235  C1392   1.339   1_455 S
C1235  H1394   1.086   1_455 S
H1236  C1314   1.086   .     S
C1237  H764    1.088   1_565 S
C1237  C765    1.346   1_565 S
N1240  O1241   1.301   .     A
N1240  O1242   1.301   .     A
O1243  C1244   1.412   .     S
O1243  C1392   1.387   1_455 S
C1244  H1245   1.116   .     S
C1244  C1247   1.522   .     S
C1244  H1404   1.113   1_455 S
H1246  C1323   1.113   .     S
C1247  H1249   1.111   .     S
C1247  H1248   1.111   .     S
C1247  H1250   1.112   .     S
N1251  O1253   1.301   .     A
N1251  C765    1.437   1_565 S
N1251  O778    1.301   1_565 S
N1254  O1256   1.301   .     A
N1254  O1255   1.301   .     A
O1257  C1258   1.411   .     S
C1258  H1259   1.114   .     S
C1258  H1260   1.115   .     S
C1258  C1261   1.519   .     S
C1261  H1263   1.109   .     S
C1261  H1264   1.110   .     S
C1261  H1262   1.111   .     S
Zn1265 O1269   1.960   .     S
Zn1265 O1277   1.918   .     S
Zn1265 O1271   1.922   .     S
Zn1265 O1278   1.936   .     S
Zn1266 O1280   1.925   .     S
Zn1266 O1269   1.942   .     S
Zn1266 O1274   1.922   .     S
Zn1266 O1272   1.945   .     S
Zn1267 O1276   1.927   .     S
Zn1267 O1273   1.938   .     S
Zn1267 O1269   1.933   .     S
Zn1267 O1281   1.936   .     S
Zn1268 O1270   1.931   .     S
Zn1268 O1275   1.933   .     S
Zn1268 O1269   1.930   .     S
Zn1268 O1279   1.939   .     S
O1270  C1282   1.270   .     A
O1271  C1283   1.281   .     A
O1272  C1284   1.272   .     A
O1273  C1285   1.275   .     A
O1274  C1286   1.277   .     A
O1275  C1287   1.285   .     A
O1276  C1286   1.275   .     A
O1277  C1287   1.285   .     A
O1278  C1284   1.275   .     A
O1279  C1285   1.261   .     A
O1280  C1282   1.268   .     A
O1281  C1283   1.281   .     A
C1282  C1314   1.438   .     S
C1283  C1313   1.462   .     S
C1284  C1318   1.430   .     S
C1285  C1316   1.453   .     S
C1286  C1289   1.455   .     S
C1287  C1288   1.472   .     S
C1288  C1291   1.397   .     A
C1288  C1292   1.396   .     A
C1289  C1304   1.392   .     A
C1289  C1305   1.393   .     A
C1290  H1308   1.081   .     S
C1290  C1291   1.393   .     A
C1290  C1294   1.411   .     A
C1291  H1309   1.083   .     S
C1292  H1310   1.078   .     S
C1292  C1293   1.409   .     A
C1293  C1294   1.422   .     A
C1293  C1295   1.428   .     A
C1294  C587    1.408   1_556 S
C1295  C1299   1.424   .     A
C1295  C585    1.419   1_556 S
C1296  C1302   1.426   .     A
C1296  C1297   1.413   .     A
C1297  C1298   1.396   .     A
C1297  H1311   1.076   .     S
C1298  N1319   1.438   .     S
C1299  C1300   1.401   .     A
C1299  O1336   1.383   .     S
C1300  N1333   1.438   .     S
C1300  C590    1.406   1_556 S
C1301  C1302   1.424   .     A
C1301  C1303   1.410   .     A
C1302  C1305   1.414   .     A
C1303  C1304   1.389   .     A
C1303  H1312   1.082   .     S
C1304  H1307   1.084   .     S
C1305  H1306   1.077   .     S
C1313  C1393   1.339   .     S
C1313  O1401   1.387   .     S
H1315  C1393   1.086   .     S
C1316  H843    1.088   1_565 S
C1316  C844    1.346   1_565 S
N1319  O1320   1.301   .     A
N1319  O1321   1.301   .     A
O1322  C1323   1.412   .     S
C1323  H1324   1.116   .     S
C1323  C1326   1.522   .     S
H1325  C1402   1.113   .     S
C1326  H1328   1.111   .     S
C1326  H1327   1.111   .     S
C1326  H1329   1.112   .     S
N1330  O1332   1.301   .     A
N1330  C844    1.437   1_565 S
N1330  O857    1.301   1_565 S
N1333  O1335   1.301   .     A
N1333  O1334   1.301   .     A
O1336  C1337   1.411   .     S
C1337  H1338   1.114   .     S
C1337  H1339   1.115   .     S
C1337  C1340   1.519   .     S
C1340  H1342   1.109   .     S
C1340  H1343   1.110   .     S
C1340  H1341   1.111   .     S
Zn1344 O1348   1.960   .     S
Zn1344 O1356   1.918   .     S
Zn1344 O1350   1.922   .     S
Zn1344 O1357   1.936   .     S
Zn1345 O1359   1.925   .     S
Zn1345 O1348   1.942   .     S
Zn1345 O1353   1.922   .     S
Zn1345 O1351   1.945   .     S
Zn1346 O1355   1.927   .     S
Zn1346 O1352   1.938   .     S
Zn1346 O1348   1.933   .     S
Zn1346 O1360   1.936   .     S
Zn1347 O1349   1.931   .     S
Zn1347 O1354   1.933   .     S
Zn1347 O1348   1.930   .     S
Zn1347 O1358   1.939   .     S
O1349  C1361   1.270   .     A
O1350  C1362   1.281   .     A
O1351  C1363   1.272   .     A
O1352  C1364   1.275   .     A
O1353  C1365   1.277   .     A
O1354  C1366   1.285   .     A
O1355  C1365   1.275   .     A
O1356  C1366   1.285   .     A
O1357  C1363   1.275   .     A
O1358  C1364   1.261   .     A
O1359  C1361   1.268   .     A
O1360  C1362   1.281   .     A
C1361  C1393   1.438   .     S
C1362  C1392   1.462   .     S
C1363  C1397   1.430   .     S
C1364  C1395   1.453   .     S
C1365  C1368   1.455   .     S
C1366  C1367   1.472   .     S
C1367  C1370   1.397   .     A
C1367  C1371   1.396   .     A
C1368  C1383   1.392   .     A
C1368  C1384   1.393   .     A
C1369  H1387   1.081   .     S
C1369  C1370   1.393   .     A
C1369  C1373   1.411   .     A
C1370  H1388   1.083   .     S
C1371  H1389   1.078   .     S
C1371  C1372   1.409   .     A
C1372  C1373   1.422   .     A
C1372  C1374   1.428   .     A
C1373  C666    1.408   1_556 S
C1374  C1378   1.424   .     A
C1374  C664    1.419   1_556 S
C1375  C1381   1.426   .     A
C1375  C1376   1.413   .     A
C1376  C1377   1.396   .     A
C1376  H1390   1.076   .     S
C1377  N1398   1.438   .     S
C1378  C1379   1.401   .     A
C1378  O1415   1.383   .     S
C1379  N1412   1.438   .     S
C1379  C669    1.406   1_556 S
C1380  C1381   1.424   .     A
C1380  C1382   1.410   .     A
C1381  C1384   1.414   .     A
C1382  C1383   1.389   .     A
C1382  H1391   1.082   .     S
C1383  H1386   1.084   .     S
C1384  H1385   1.077   .     S
C1392  C1235   1.339   1_655 S
C1392  O1243   1.387   1_655 S
H1394  C1235   1.086   1_655 S
C1395  H922    1.088   1_565 S
C1395  C923    1.346   1_565 S
N1398  O1399   1.301   .     A
N1398  O1400   1.301   .     A
O1401  C1402   1.412   .     S
C1402  H1403   1.116   .     S
C1402  C1405   1.522   .     S
H1404  C1244   1.113   1_655 S
C1405  H1407   1.111   .     S
C1405  H1406   1.111   .     S
C1405  H1408   1.112   .     S
N1409  O1411   1.301   .     A
N1409  C923    1.437   1_565 S
N1409  O936    1.301   1_565 S
N1412  O1414   1.301   .     A
N1412  O1413   1.301   .     A
O1415  C1416   1.411   .     S
C1416  H1417   1.114   .     S
C1416  H1418   1.115   .     S
C1416  C1419   1.519   .     S
C1419  H1421   1.109   .     S
C1419  H1422   1.110   .     S
C1419  H1420   1.111   .     S
