data_str_m2_o1_o10_pcu_sym.29
_audit_creation_date              2020-01-03
_audit_creation_method            'Materials Studio'
_symmetry_space_group_name_H-M    'P1'
_symmetry_Int_Tables_number       1
_symmetry_cell_setting            triclinic
loop_
_symmetry_equiv_pos_as_xyz
  x,y,z
_cell_length_a                    26.1823
_cell_length_b                    32.4048
_cell_length_c                    28.6580
_cell_angle_alpha                 90.5978
_cell_angle_beta                  98.2634
_cell_angle_gamma                 90.5112
loop_
_atom_site_label
_atom_site_type_symbol
_atom_site_fract_x
_atom_site_fract_y
_atom_site_fract_z
_atom_site_U_iso_or_equiv
_atom_site_adp_type
_atom_site_occupancy
O1     O     0.16666   0.10655   0.20625   0.00000  Uiso   1.00
O2     O     0.16667   0.22678   0.12709   0.00000  Uiso   1.00
O3     O     0.16666   0.10654   0.12706   0.00000  Uiso   1.00
O4     O     0.16667   0.22679   0.20628   0.00000  Uiso   1.00
C5     C     0.16762   0.08746   0.16653   0.00000  Uiso   1.00
C6     C     0.16572   0.24588   0.16680   0.00000  Uiso   1.00
O7     O     0.09161   0.16667   0.19712   0.00000  Uiso   1.00
O8     O     0.24172   0.16666   0.13621   0.00000  Uiso   1.00
O9     O     0.09161   0.16666   0.11793   0.00000  Uiso   1.00
O10    O     0.24172   0.16667   0.21540   0.00000  Uiso   1.00
C11    C     0.06791   0.16663   0.15452   0.00000  Uiso   1.00
C12    C     0.26542   0.16670   0.17881   0.00000  Uiso   1.00
Cu13   Cu    0.16667   0.16667   0.21355   0.00000  Uiso   1.00
Cu14   Cu    0.16667   0.16666   0.11978   0.00000  Uiso   1.00
N15    N     0.16668   0.16668   0.28403   0.00000  Uiso   1.00
N16    N     0.16665   0.16666   0.04931   0.00000  Uiso   1.00
C17    C     0.01253   0.16664   0.14791   0.00000  Uiso   1.00
C18    C     0.32080   0.16669   0.18542   0.00000  Uiso   1.00
H19    H     0.32566   0.16662   0.11201   0.00000  Uiso   1.00
H20    H     0.00768   0.16671   0.22133   0.00000  Uiso   1.00
C21    C     0.19540   0.02047   0.13585   0.00000  Uiso   1.00
C22    C     0.13793   0.31287   0.19748   0.00000  Uiso   1.00
C23    C     0.19381   0.31107   0.13643   0.00000  Uiso   1.00
C24    C     0.13953   0.02226   0.19690   0.00000  Uiso   1.00
H25    H     0.21559   0.29384   0.11348   0.00000  Uiso   1.00
H26    H     0.11775   0.03950   0.21986   0.00000  Uiso   1.00
C27    C     0.16550   0.29050   0.16713   0.00000  Uiso   1.00
C28    C     0.16783   0.04284   0.16620   0.00000  Uiso   1.00
C29    C     0.13249   0.14239   0.01961   0.00000  Uiso   1.00
C30    C     0.20084   0.19095   0.31373   0.00000  Uiso   1.00
C31    C     0.13266   0.14259   0.30350   0.00000  Uiso   1.00
C32    C     0.20067   0.19075   0.02984   0.00000  Uiso   1.00
H33    H     0.10554   0.12324   0.28080   0.00000  Uiso   1.00
H34    H     0.22779   0.21010   0.05254   0.00000  Uiso   1.00
Cl35   Cl    0.23468   0.04431   0.09860   0.00000  Uiso   1.00
Cl36   Cl    0.09865   0.28903   0.23473   0.00000  Uiso   1.00
N37    N     0.09609   0.11634   0.03792   0.00000  Uiso   1.00
O38    O     0.04788   0.12710   0.03262   0.00000  Uiso   1.00
O39    O     0.10738   0.07776   0.04550   0.00000  Uiso   1.00
N40    N     0.23721   0.21702   0.29541   0.00000  Uiso   1.00
O41    O     0.22593   0.25561   0.28792   0.00000  Uiso   1.00
O42    O     0.28542   0.20624   0.30062   0.00000  Uiso   1.00
O43    O     0.50000   0.10655   0.20625   0.00000  Uiso   1.00
O44    O     0.50000   0.22678   0.12709   0.00000  Uiso   1.00
O45    O     0.50000   0.10654   0.12706   0.00000  Uiso   1.00
O46    O     0.50000   0.22679   0.20628   0.00000  Uiso   1.00
C47    C     0.50095   0.08746   0.16653   0.00000  Uiso   1.00
C48    C     0.49905   0.24588   0.16680   0.00000  Uiso   1.00
O49    O     0.42495   0.16667   0.19712   0.00000  Uiso   1.00
O50    O     0.57505   0.16666   0.13621   0.00000  Uiso   1.00
O51    O     0.42494   0.16666   0.11793   0.00000  Uiso   1.00
O52    O     0.57506   0.16667   0.21540   0.00000  Uiso   1.00
C53    C     0.40125   0.16663   0.15452   0.00000  Uiso   1.00
C54    C     0.59875   0.16670   0.17881   0.00000  Uiso   1.00
Cu55   Cu    0.50000   0.16667   0.21355   0.00000  Uiso   1.00
Cu56   Cu    0.50000   0.16666   0.11978   0.00000  Uiso   1.00
N57    N     0.50001   0.16668   0.28403   0.00000  Uiso   1.00
N58    N     0.49999   0.16666   0.04931   0.00000  Uiso   1.00
C59    C     0.34587   0.16664   0.14791   0.00000  Uiso   1.00
C60    C     0.65413   0.16669   0.18542   0.00000  Uiso   1.00
H61    H     0.65899   0.16662   0.11201   0.00000  Uiso   1.00
H62    H     0.34101   0.16671   0.22133   0.00000  Uiso   1.00
C63    C     0.52874   0.02047   0.13585   0.00000  Uiso   1.00
C64    C     0.47126   0.31287   0.19748   0.00000  Uiso   1.00
C65    C     0.52714   0.31107   0.13643   0.00000  Uiso   1.00
C66    C     0.47286   0.02226   0.19690   0.00000  Uiso   1.00
H67    H     0.54892   0.29384   0.11348   0.00000  Uiso   1.00
H68    H     0.45108   0.03950   0.21986   0.00000  Uiso   1.00
C69    C     0.49884   0.29050   0.16713   0.00000  Uiso   1.00
C70    C     0.50116   0.04284   0.16620   0.00000  Uiso   1.00
C71    C     0.46582   0.14239   0.01961   0.00000  Uiso   1.00
C72    C     0.53417   0.19095   0.31373   0.00000  Uiso   1.00
C73    C     0.46600   0.14259   0.30350   0.00000  Uiso   1.00
C74    C     0.53400   0.19075   0.02984   0.00000  Uiso   1.00
H75    H     0.43888   0.12324   0.28080   0.00000  Uiso   1.00
H76    H     0.56112   0.21010   0.05254   0.00000  Uiso   1.00
Cl77   Cl    0.56802   0.04431   0.09860   0.00000  Uiso   1.00
Cl78   Cl    0.43198   0.28903   0.23473   0.00000  Uiso   1.00
N79    N     0.42943   0.11634   0.03792   0.00000  Uiso   1.00
O80    O     0.38121   0.12710   0.03262   0.00000  Uiso   1.00
O81    O     0.44072   0.07776   0.04550   0.00000  Uiso   1.00
N82    N     0.57055   0.21702   0.29541   0.00000  Uiso   1.00
O83    O     0.55927   0.25561   0.28792   0.00000  Uiso   1.00
O84    O     0.61875   0.20624   0.30062   0.00000  Uiso   1.00
O85    O     0.83333   0.10655   0.20625   0.00000  Uiso   1.00
O86    O     0.83334   0.22678   0.12709   0.00000  Uiso   1.00
O87    O     0.83333   0.10654   0.12706   0.00000  Uiso   1.00
O88    O     0.83334   0.22679   0.20628   0.00000  Uiso   1.00
C89    C     0.83428   0.08746   0.16653   0.00000  Uiso   1.00
C90    C     0.83238   0.24588   0.16680   0.00000  Uiso   1.00
O91    O     0.75828   0.16667   0.19712   0.00000  Uiso   1.00
O92    O     0.90839   0.16666   0.13621   0.00000  Uiso   1.00
O93    O     0.75828   0.16666   0.11793   0.00000  Uiso   1.00
O94    O     0.90839   0.16667   0.21540   0.00000  Uiso   1.00
C95    C     0.73458   0.16663   0.15452   0.00000  Uiso   1.00
C96    C     0.93209   0.16670   0.17881   0.00000  Uiso   1.00
Cu97   Cu    0.83333   0.16667   0.21355   0.00000  Uiso   1.00
Cu98   Cu    0.83333   0.16666   0.11978   0.00000  Uiso   1.00
N99    N     0.83335   0.16668   0.28403   0.00000  Uiso   1.00
N100   N     0.83332   0.16666   0.04931   0.00000  Uiso   1.00
C101   C     0.67920   0.16664   0.14791   0.00000  Uiso   1.00
C102   C     0.98747   0.16669   0.18542   0.00000  Uiso   1.00
H103   H     0.99232   0.16662   0.11201   0.00000  Uiso   1.00
H104   H     0.67434   0.16671   0.22133   0.00000  Uiso   1.00
C105   C     0.86207   0.02047   0.13585   0.00000  Uiso   1.00
C106   C     0.80460   0.31287   0.19748   0.00000  Uiso   1.00
C107   C     0.86047   0.31107   0.13643   0.00000  Uiso   1.00
C108   C     0.80619   0.02226   0.19690   0.00000  Uiso   1.00
H109   H     0.88225   0.29384   0.11348   0.00000  Uiso   1.00
H110   H     0.78441   0.03950   0.21986   0.00000  Uiso   1.00
C111   C     0.83217   0.29050   0.16713   0.00000  Uiso   1.00
C112   C     0.83450   0.04284   0.16620   0.00000  Uiso   1.00
C113   C     0.79915   0.14239   0.01961   0.00000  Uiso   1.00
C114   C     0.86751   0.19095   0.31373   0.00000  Uiso   1.00
C115   C     0.79933   0.14259   0.30350   0.00000  Uiso   1.00
C116   C     0.86734   0.19075   0.02984   0.00000  Uiso   1.00
H117   H     0.77221   0.12324   0.28080   0.00000  Uiso   1.00
H118   H     0.89445   0.21010   0.05254   0.00000  Uiso   1.00
Cl119  Cl    0.90135   0.04431   0.09860   0.00000  Uiso   1.00
Cl120  Cl    0.76532   0.28903   0.23473   0.00000  Uiso   1.00
N121   N     0.76276   0.11634   0.03792   0.00000  Uiso   1.00
O122   O     0.71455   0.12710   0.03262   0.00000  Uiso   1.00
O123   O     0.77405   0.07776   0.04550   0.00000  Uiso   1.00
N124   N     0.90388   0.21702   0.29541   0.00000  Uiso   1.00
O125   O     0.89260   0.25561   0.28792   0.00000  Uiso   1.00
O126   O     0.95208   0.20624   0.30062   0.00000  Uiso   1.00
O127   O     0.16666   0.43989   0.20625   0.00000  Uiso   1.00
O128   O     0.16667   0.56011   0.12709   0.00000  Uiso   1.00
O129   O     0.16666   0.43988   0.12706   0.00000  Uiso   1.00
O130   O     0.16667   0.56012   0.20628   0.00000  Uiso   1.00
C131   C     0.16762   0.42079   0.16653   0.00000  Uiso   1.00
C132   C     0.16572   0.57921   0.16680   0.00000  Uiso   1.00
O133   O     0.09161   0.50000   0.19712   0.00000  Uiso   1.00
O134   O     0.24172   0.50000   0.13621   0.00000  Uiso   1.00
O135   O     0.09161   0.49999   0.11793   0.00000  Uiso   1.00
O136   O     0.24172   0.50001   0.21540   0.00000  Uiso   1.00
C137   C     0.06791   0.49997   0.15452   0.00000  Uiso   1.00
C138   C     0.26542   0.50003   0.17881   0.00000  Uiso   1.00
Cu139  Cu    0.16667   0.50001   0.21355   0.00000  Uiso   1.00
Cu140  Cu    0.16667   0.49999   0.11978   0.00000  Uiso   1.00
N141   N     0.16668   0.50001   0.28403   0.00000  Uiso   1.00
N142   N     0.16665   0.49999   0.04931   0.00000  Uiso   1.00
C143   C     0.01253   0.49998   0.14791   0.00000  Uiso   1.00
C144   C     0.32080   0.50002   0.18542   0.00000  Uiso   1.00
H145   H     0.32566   0.49996   0.11201   0.00000  Uiso   1.00
H146   H     0.00768   0.50004   0.22133   0.00000  Uiso   1.00
C147   C     0.19540   0.35380   0.13585   0.00000  Uiso   1.00
C148   C     0.13793   0.64620   0.19748   0.00000  Uiso   1.00
C149   C     0.19381   0.64440   0.13643   0.00000  Uiso   1.00
C150   C     0.13953   0.35560   0.19690   0.00000  Uiso   1.00
H151   H     0.21559   0.62717   0.11348   0.00000  Uiso   1.00
H152   H     0.11775   0.37283   0.21986   0.00000  Uiso   1.00
C153   C     0.16550   0.62383   0.16713   0.00000  Uiso   1.00
C154   C     0.16783   0.37617   0.16620   0.00000  Uiso   1.00
C155   C     0.13249   0.47572   0.01961   0.00000  Uiso   1.00
C156   C     0.20084   0.52428   0.31373   0.00000  Uiso   1.00
C157   C     0.13266   0.47592   0.30350   0.00000  Uiso   1.00
C158   C     0.20067   0.52408   0.02984   0.00000  Uiso   1.00
H159   H     0.10554   0.45657   0.28080   0.00000  Uiso   1.00
H160   H     0.22779   0.54344   0.05254   0.00000  Uiso   1.00
Cl161  Cl    0.23468   0.37764   0.09860   0.00000  Uiso   1.00
Cl162  Cl    0.09865   0.62236   0.23473   0.00000  Uiso   1.00
N163   N     0.09609   0.44967   0.03792   0.00000  Uiso   1.00
O164   O     0.04788   0.46043   0.03262   0.00000  Uiso   1.00
O165   O     0.10738   0.41109   0.04550   0.00000  Uiso   1.00
N166   N     0.23721   0.55035   0.29541   0.00000  Uiso   1.00
O167   O     0.22593   0.58894   0.28792   0.00000  Uiso   1.00
O168   O     0.28542   0.53958   0.30062   0.00000  Uiso   1.00
O169   O     0.50000   0.43989   0.20625   0.00000  Uiso   1.00
O170   O     0.50000   0.56011   0.12709   0.00000  Uiso   1.00
O171   O     0.50000   0.43988   0.12706   0.00000  Uiso   1.00
O172   O     0.50000   0.56012   0.20628   0.00000  Uiso   1.00
C173   C     0.50095   0.42079   0.16653   0.00000  Uiso   1.00
C174   C     0.49905   0.57921   0.16680   0.00000  Uiso   1.00
O175   O     0.42495   0.50000   0.19712   0.00000  Uiso   1.00
O176   O     0.57505   0.50000   0.13621   0.00000  Uiso   1.00
O177   O     0.42494   0.49999   0.11793   0.00000  Uiso   1.00
O178   O     0.57506   0.50001   0.21540   0.00000  Uiso   1.00
C179   C     0.40125   0.49997   0.15452   0.00000  Uiso   1.00
C180   C     0.59875   0.50003   0.17881   0.00000  Uiso   1.00
Cu181  Cu    0.50000   0.50001   0.21355   0.00000  Uiso   1.00
Cu182  Cu    0.50000   0.49999   0.11978   0.00000  Uiso   1.00
N183   N     0.50001   0.50001   0.28403   0.00000  Uiso   1.00
N184   N     0.49999   0.49999   0.04931   0.00000  Uiso   1.00
C185   C     0.34587   0.49998   0.14791   0.00000  Uiso   1.00
C186   C     0.65413   0.50002   0.18542   0.00000  Uiso   1.00
H187   H     0.65899   0.49996   0.11201   0.00000  Uiso   1.00
H188   H     0.34101   0.50004   0.22133   0.00000  Uiso   1.00
C189   C     0.52874   0.35380   0.13585   0.00000  Uiso   1.00
C190   C     0.47126   0.64620   0.19748   0.00000  Uiso   1.00
C191   C     0.52714   0.64440   0.13643   0.00000  Uiso   1.00
C192   C     0.47286   0.35560   0.19690   0.00000  Uiso   1.00
H193   H     0.54892   0.62717   0.11348   0.00000  Uiso   1.00
H194   H     0.45108   0.37283   0.21986   0.00000  Uiso   1.00
C195   C     0.49884   0.62383   0.16713   0.00000  Uiso   1.00
C196   C     0.50116   0.37617   0.16620   0.00000  Uiso   1.00
C197   C     0.46582   0.47572   0.01961   0.00000  Uiso   1.00
C198   C     0.53417   0.52428   0.31373   0.00000  Uiso   1.00
C199   C     0.46600   0.47592   0.30350   0.00000  Uiso   1.00
C200   C     0.53400   0.52408   0.02984   0.00000  Uiso   1.00
H201   H     0.43888   0.45657   0.28080   0.00000  Uiso   1.00
H202   H     0.56112   0.54344   0.05254   0.00000  Uiso   1.00
Cl203  Cl    0.56802   0.37764   0.09860   0.00000  Uiso   1.00
Cl204  Cl    0.43198   0.62236   0.23473   0.00000  Uiso   1.00
N205   N     0.42943   0.44967   0.03792   0.00000  Uiso   1.00
O206   O     0.38121   0.46043   0.03262   0.00000  Uiso   1.00
O207   O     0.44072   0.41109   0.04550   0.00000  Uiso   1.00
N208   N     0.57055   0.55035   0.29541   0.00000  Uiso   1.00
O209   O     0.55927   0.58894   0.28792   0.00000  Uiso   1.00
O210   O     0.61875   0.53958   0.30062   0.00000  Uiso   1.00
O211   O     0.83333   0.43989   0.20625   0.00000  Uiso   1.00
O212   O     0.83334   0.56011   0.12709   0.00000  Uiso   1.00
O213   O     0.83333   0.43988   0.12706   0.00000  Uiso   1.00
O214   O     0.83334   0.56012   0.20628   0.00000  Uiso   1.00
C215   C     0.83428   0.42079   0.16653   0.00000  Uiso   1.00
C216   C     0.83238   0.57921   0.16680   0.00000  Uiso   1.00
O217   O     0.75828   0.50000   0.19712   0.00000  Uiso   1.00
O218   O     0.90839   0.50000   0.13621   0.00000  Uiso   1.00
O219   O     0.75828   0.49999   0.11793   0.00000  Uiso   1.00
O220   O     0.90839   0.50001   0.21540   0.00000  Uiso   1.00
C221   C     0.73458   0.49997   0.15452   0.00000  Uiso   1.00
C222   C     0.93209   0.50003   0.17881   0.00000  Uiso   1.00
Cu223  Cu    0.83333   0.50001   0.21355   0.00000  Uiso   1.00
Cu224  Cu    0.83333   0.49999   0.11978   0.00000  Uiso   1.00
N225   N     0.83335   0.50001   0.28403   0.00000  Uiso   1.00
N226   N     0.83332   0.49999   0.04931   0.00000  Uiso   1.00
C227   C     0.67920   0.49998   0.14791   0.00000  Uiso   1.00
C228   C     0.98747   0.50002   0.18542   0.00000  Uiso   1.00
H229   H     0.99232   0.49996   0.11201   0.00000  Uiso   1.00
H230   H     0.67434   0.50004   0.22133   0.00000  Uiso   1.00
C231   C     0.86207   0.35380   0.13585   0.00000  Uiso   1.00
C232   C     0.80460   0.64620   0.19748   0.00000  Uiso   1.00
C233   C     0.86047   0.64440   0.13643   0.00000  Uiso   1.00
C234   C     0.80619   0.35560   0.19690   0.00000  Uiso   1.00
H235   H     0.88225   0.62717   0.11348   0.00000  Uiso   1.00
H236   H     0.78441   0.37283   0.21986   0.00000  Uiso   1.00
C237   C     0.83217   0.62383   0.16713   0.00000  Uiso   1.00
C238   C     0.83450   0.37617   0.16620   0.00000  Uiso   1.00
C239   C     0.79915   0.47572   0.01961   0.00000  Uiso   1.00
C240   C     0.86751   0.52428   0.31373   0.00000  Uiso   1.00
C241   C     0.79933   0.47592   0.30350   0.00000  Uiso   1.00
C242   C     0.86734   0.52408   0.02984   0.00000  Uiso   1.00
H243   H     0.77221   0.45657   0.28080   0.00000  Uiso   1.00
H244   H     0.89445   0.54344   0.05254   0.00000  Uiso   1.00
Cl245  Cl    0.90135   0.37764   0.09860   0.00000  Uiso   1.00
Cl246  Cl    0.76532   0.62236   0.23473   0.00000  Uiso   1.00
N247   N     0.76276   0.44967   0.03792   0.00000  Uiso   1.00
O248   O     0.71455   0.46043   0.03262   0.00000  Uiso   1.00
O249   O     0.77405   0.41109   0.04550   0.00000  Uiso   1.00
N250   N     0.90388   0.55035   0.29541   0.00000  Uiso   1.00
O251   O     0.89260   0.58894   0.28792   0.00000  Uiso   1.00
O252   O     0.95208   0.53958   0.30062   0.00000  Uiso   1.00
O253   O     0.16666   0.77322   0.20625   0.00000  Uiso   1.00
O254   O     0.16667   0.89345   0.12709   0.00000  Uiso   1.00
O255   O     0.16666   0.77321   0.12706   0.00000  Uiso   1.00
O256   O     0.16667   0.89346   0.20628   0.00000  Uiso   1.00
C257   C     0.16762   0.75412   0.16653   0.00000  Uiso   1.00
C258   C     0.16572   0.91254   0.16680   0.00000  Uiso   1.00
O259   O     0.09161   0.83334   0.19712   0.00000  Uiso   1.00
O260   O     0.24172   0.83333   0.13621   0.00000  Uiso   1.00
O261   O     0.09161   0.83333   0.11793   0.00000  Uiso   1.00
O262   O     0.24172   0.83334   0.21540   0.00000  Uiso   1.00
C263   C     0.06791   0.83330   0.15452   0.00000  Uiso   1.00
C264   C     0.26542   0.83337   0.17881   0.00000  Uiso   1.00
Cu265  Cu    0.16667   0.83334   0.21355   0.00000  Uiso   1.00
Cu266  Cu    0.16667   0.83333   0.11978   0.00000  Uiso   1.00
N267   N     0.16668   0.83334   0.28403   0.00000  Uiso   1.00
N268   N     0.16665   0.83332   0.04931   0.00000  Uiso   1.00
C269   C     0.01253   0.83331   0.14791   0.00000  Uiso   1.00
C270   C     0.32080   0.83336   0.18542   0.00000  Uiso   1.00
H271   H     0.32566   0.83329   0.11201   0.00000  Uiso   1.00
H272   H     0.00768   0.83338   0.22133   0.00000  Uiso   1.00
C273   C     0.19540   0.68713   0.13585   0.00000  Uiso   1.00
C274   C     0.13793   0.97953   0.19748   0.00000  Uiso   1.00
C275   C     0.19381   0.97774   0.13643   0.00000  Uiso   1.00
C276   C     0.13953   0.68893   0.19690   0.00000  Uiso   1.00
H277   H     0.21559   0.96050   0.11348   0.00000  Uiso   1.00
H278   H     0.11775   0.70616   0.21986   0.00000  Uiso   1.00
C279   C     0.16550   0.95716   0.16713   0.00000  Uiso   1.00
C280   C     0.16783   0.70950   0.16620   0.00000  Uiso   1.00
C281   C     0.13249   0.80905   0.01961   0.00000  Uiso   1.00
C282   C     0.20084   0.85762   0.31373   0.00000  Uiso   1.00
C283   C     0.13266   0.80926   0.30350   0.00000  Uiso   1.00
C284   C     0.20067   0.85741   0.02984   0.00000  Uiso   1.00
H285   H     0.10554   0.78990   0.28080   0.00000  Uiso   1.00
H286   H     0.22779   0.87677   0.05254   0.00000  Uiso   1.00
Cl287  Cl    0.23468   0.71097   0.09860   0.00000  Uiso   1.00
Cl288  Cl    0.09865   0.95569   0.23473   0.00000  Uiso   1.00
N289   N     0.09609   0.78300   0.03792   0.00000  Uiso   1.00
O290   O     0.04788   0.79376   0.03262   0.00000  Uiso   1.00
O291   O     0.10738   0.74443   0.04550   0.00000  Uiso   1.00
N292   N     0.23721   0.88368   0.29541   0.00000  Uiso   1.00
O293   O     0.22593   0.92228   0.28792   0.00000  Uiso   1.00
O294   O     0.28542   0.87291   0.30062   0.00000  Uiso   1.00
O295   O     0.50000   0.77322   0.20625   0.00000  Uiso   1.00
O296   O     0.50000   0.89345   0.12709   0.00000  Uiso   1.00
O297   O     0.50000   0.77321   0.12706   0.00000  Uiso   1.00
O298   O     0.50000   0.89346   0.20628   0.00000  Uiso   1.00
C299   C     0.50095   0.75412   0.16653   0.00000  Uiso   1.00
C300   C     0.49905   0.91254   0.16680   0.00000  Uiso   1.00
O301   O     0.42495   0.83334   0.19712   0.00000  Uiso   1.00
O302   O     0.57505   0.83333   0.13621   0.00000  Uiso   1.00
O303   O     0.42494   0.83333   0.11793   0.00000  Uiso   1.00
O304   O     0.57506   0.83334   0.21540   0.00000  Uiso   1.00
C305   C     0.40125   0.83330   0.15452   0.00000  Uiso   1.00
C306   C     0.59875   0.83337   0.17881   0.00000  Uiso   1.00
Cu307  Cu    0.50000   0.83334   0.21355   0.00000  Uiso   1.00
Cu308  Cu    0.50000   0.83333   0.11978   0.00000  Uiso   1.00
N309   N     0.50001   0.83334   0.28403   0.00000  Uiso   1.00
N310   N     0.49999   0.83332   0.04931   0.00000  Uiso   1.00
C311   C     0.34587   0.83331   0.14791   0.00000  Uiso   1.00
C312   C     0.65413   0.83336   0.18542   0.00000  Uiso   1.00
H313   H     0.65899   0.83329   0.11201   0.00000  Uiso   1.00
H314   H     0.34101   0.83338   0.22133   0.00000  Uiso   1.00
C315   C     0.52874   0.68713   0.13585   0.00000  Uiso   1.00
C316   C     0.47126   0.97953   0.19748   0.00000  Uiso   1.00
C317   C     0.52714   0.97774   0.13643   0.00000  Uiso   1.00
C318   C     0.47286   0.68893   0.19690   0.00000  Uiso   1.00
H319   H     0.54892   0.96050   0.11348   0.00000  Uiso   1.00
H320   H     0.45108   0.70616   0.21986   0.00000  Uiso   1.00
C321   C     0.49884   0.95716   0.16713   0.00000  Uiso   1.00
C322   C     0.50116   0.70950   0.16620   0.00000  Uiso   1.00
C323   C     0.46582   0.80905   0.01961   0.00000  Uiso   1.00
C324   C     0.53417   0.85762   0.31373   0.00000  Uiso   1.00
C325   C     0.46600   0.80926   0.30350   0.00000  Uiso   1.00
C326   C     0.53400   0.85741   0.02984   0.00000  Uiso   1.00
H327   H     0.43888   0.78990   0.28080   0.00000  Uiso   1.00
H328   H     0.56112   0.87677   0.05254   0.00000  Uiso   1.00
Cl329  Cl    0.56802   0.71097   0.09860   0.00000  Uiso   1.00
Cl330  Cl    0.43198   0.95569   0.23473   0.00000  Uiso   1.00
N331   N     0.42943   0.78300   0.03792   0.00000  Uiso   1.00
O332   O     0.38121   0.79376   0.03262   0.00000  Uiso   1.00
O333   O     0.44072   0.74443   0.04550   0.00000  Uiso   1.00
N334   N     0.57055   0.88368   0.29541   0.00000  Uiso   1.00
O335   O     0.55927   0.92228   0.28792   0.00000  Uiso   1.00
O336   O     0.61875   0.87291   0.30062   0.00000  Uiso   1.00
O337   O     0.83333   0.77322   0.20625   0.00000  Uiso   1.00
O338   O     0.83334   0.89345   0.12709   0.00000  Uiso   1.00
O339   O     0.83333   0.77321   0.12706   0.00000  Uiso   1.00
O340   O     0.83334   0.89346   0.20628   0.00000  Uiso   1.00
C341   C     0.83428   0.75412   0.16653   0.00000  Uiso   1.00
C342   C     0.83238   0.91254   0.16680   0.00000  Uiso   1.00
O343   O     0.75828   0.83334   0.19712   0.00000  Uiso   1.00
O344   O     0.90839   0.83333   0.13621   0.00000  Uiso   1.00
O345   O     0.75828   0.83333   0.11793   0.00000  Uiso   1.00
O346   O     0.90839   0.83334   0.21540   0.00000  Uiso   1.00
C347   C     0.73458   0.83330   0.15452   0.00000  Uiso   1.00
C348   C     0.93209   0.83337   0.17881   0.00000  Uiso   1.00
Cu349  Cu    0.83333   0.83334   0.21355   0.00000  Uiso   1.00
Cu350  Cu    0.83333   0.83333   0.11978   0.00000  Uiso   1.00
N351   N     0.83335   0.83334   0.28403   0.00000  Uiso   1.00
N352   N     0.83332   0.83332   0.04931   0.00000  Uiso   1.00
C353   C     0.67920   0.83331   0.14791   0.00000  Uiso   1.00
C354   C     0.98747   0.83336   0.18542   0.00000  Uiso   1.00
H355   H     0.99232   0.83329   0.11201   0.00000  Uiso   1.00
H356   H     0.67434   0.83338   0.22133   0.00000  Uiso   1.00
C357   C     0.86207   0.68713   0.13585   0.00000  Uiso   1.00
C358   C     0.80460   0.97953   0.19748   0.00000  Uiso   1.00
C359   C     0.86047   0.97774   0.13643   0.00000  Uiso   1.00
C360   C     0.80619   0.68893   0.19690   0.00000  Uiso   1.00
H361   H     0.88225   0.96050   0.11348   0.00000  Uiso   1.00
H362   H     0.78441   0.70616   0.21986   0.00000  Uiso   1.00
C363   C     0.83217   0.95716   0.16713   0.00000  Uiso   1.00
C364   C     0.83450   0.70950   0.16620   0.00000  Uiso   1.00
C365   C     0.79915   0.80905   0.01961   0.00000  Uiso   1.00
C366   C     0.86751   0.85762   0.31373   0.00000  Uiso   1.00
C367   C     0.79933   0.80926   0.30350   0.00000  Uiso   1.00
C368   C     0.86734   0.85741   0.02984   0.00000  Uiso   1.00
H369   H     0.77221   0.78990   0.28080   0.00000  Uiso   1.00
H370   H     0.89445   0.87677   0.05254   0.00000  Uiso   1.00
Cl371  Cl    0.90135   0.71097   0.09860   0.00000  Uiso   1.00
Cl372  Cl    0.76532   0.95569   0.23473   0.00000  Uiso   1.00
N373   N     0.76276   0.78300   0.03792   0.00000  Uiso   1.00
O374   O     0.71455   0.79376   0.03262   0.00000  Uiso   1.00
O375   O     0.77405   0.74443   0.04550   0.00000  Uiso   1.00
N376   N     0.90388   0.88368   0.29541   0.00000  Uiso   1.00
O377   O     0.89260   0.92228   0.28792   0.00000  Uiso   1.00
O378   O     0.95208   0.87291   0.30062   0.00000  Uiso   1.00
O379   O     0.16666   0.10655   0.53958   0.00000  Uiso   1.00
O380   O     0.16667   0.22678   0.46042   0.00000  Uiso   1.00
O381   O     0.16666   0.10654   0.46039   0.00000  Uiso   1.00
O382   O     0.16667   0.22679   0.53961   0.00000  Uiso   1.00
C383   C     0.16762   0.08746   0.49987   0.00000  Uiso   1.00
C384   C     0.16572   0.24588   0.50013   0.00000  Uiso   1.00
O385   O     0.09161   0.16667   0.53046   0.00000  Uiso   1.00
O386   O     0.24172   0.16666   0.46954   0.00000  Uiso   1.00
O387   O     0.09161   0.16666   0.45127   0.00000  Uiso   1.00
O388   O     0.24172   0.16667   0.54873   0.00000  Uiso   1.00
C389   C     0.06791   0.16663   0.48786   0.00000  Uiso   1.00
C390   C     0.26542   0.16670   0.51214   0.00000  Uiso   1.00
Cu391  Cu    0.16667   0.16667   0.54689   0.00000  Uiso   1.00
Cu392  Cu    0.16667   0.16666   0.45311   0.00000  Uiso   1.00
N393   N     0.16668   0.16668   0.61736   0.00000  Uiso   1.00
N394   N     0.16665   0.16666   0.38264   0.00000  Uiso   1.00
C395   C     0.01253   0.16664   0.48124   0.00000  Uiso   1.00
C396   C     0.32080   0.16669   0.51876   0.00000  Uiso   1.00
H397   H     0.32566   0.16662   0.44534   0.00000  Uiso   1.00
H398   H     0.00768   0.16671   0.55466   0.00000  Uiso   1.00
C399   C     0.19540   0.02047   0.46919   0.00000  Uiso   1.00
C400   C     0.13793   0.31287   0.53081   0.00000  Uiso   1.00
C401   C     0.19381   0.31107   0.46977   0.00000  Uiso   1.00
C402   C     0.13953   0.02226   0.53023   0.00000  Uiso   1.00
H403   H     0.21559   0.29384   0.44681   0.00000  Uiso   1.00
H404   H     0.11775   0.03950   0.55319   0.00000  Uiso   1.00
C405   C     0.16550   0.29050   0.50047   0.00000  Uiso   1.00
C406   C     0.16783   0.04284   0.49953   0.00000  Uiso   1.00
C407   C     0.13249   0.14239   0.35294   0.00000  Uiso   1.00
C408   C     0.20084   0.19095   0.64706   0.00000  Uiso   1.00
C409   C     0.13266   0.14259   0.63683   0.00000  Uiso   1.00
C410   C     0.20067   0.19075   0.36317   0.00000  Uiso   1.00
H411   H     0.10554   0.12324   0.61413   0.00000  Uiso   1.00
H412   H     0.22779   0.21010   0.38587   0.00000  Uiso   1.00
Cl413  Cl    0.23468   0.04431   0.43193   0.00000  Uiso   1.00
Cl414  Cl    0.09865   0.28903   0.56807   0.00000  Uiso   1.00
N415   N     0.09609   0.11634   0.37125   0.00000  Uiso   1.00
O416   O     0.04788   0.12710   0.36595   0.00000  Uiso   1.00
O417   O     0.10738   0.07776   0.37883   0.00000  Uiso   1.00
N418   N     0.23721   0.21702   0.62875   0.00000  Uiso   1.00
O419   O     0.22593   0.25561   0.62125   0.00000  Uiso   1.00
O420   O     0.28542   0.20624   0.63396   0.00000  Uiso   1.00
O421   O     0.50000   0.10655   0.53958   0.00000  Uiso   1.00
O422   O     0.50000   0.22678   0.46042   0.00000  Uiso   1.00
O423   O     0.50000   0.10654   0.46039   0.00000  Uiso   1.00
O424   O     0.50000   0.22679   0.53961   0.00000  Uiso   1.00
C425   C     0.50095   0.08746   0.49987   0.00000  Uiso   1.00
C426   C     0.49905   0.24588   0.50013   0.00000  Uiso   1.00
O427   O     0.42495   0.16667   0.53046   0.00000  Uiso   1.00
O428   O     0.57505   0.16666   0.46954   0.00000  Uiso   1.00
O429   O     0.42494   0.16666   0.45127   0.00000  Uiso   1.00
O430   O     0.57506   0.16667   0.54873   0.00000  Uiso   1.00
C431   C     0.40125   0.16663   0.48786   0.00000  Uiso   1.00
C432   C     0.59875   0.16670   0.51214   0.00000  Uiso   1.00
Cu433  Cu    0.50000   0.16667   0.54689   0.00000  Uiso   1.00
Cu434  Cu    0.50000   0.16666   0.45311   0.00000  Uiso   1.00
N435   N     0.50001   0.16668   0.61736   0.00000  Uiso   1.00
N436   N     0.49999   0.16666   0.38264   0.00000  Uiso   1.00
C437   C     0.34587   0.16664   0.48124   0.00000  Uiso   1.00
C438   C     0.65413   0.16669   0.51876   0.00000  Uiso   1.00
H439   H     0.65899   0.16662   0.44534   0.00000  Uiso   1.00
H440   H     0.34101   0.16671   0.55466   0.00000  Uiso   1.00
C441   C     0.52874   0.02047   0.46919   0.00000  Uiso   1.00
C442   C     0.47126   0.31287   0.53081   0.00000  Uiso   1.00
C443   C     0.52714   0.31107   0.46977   0.00000  Uiso   1.00
C444   C     0.47286   0.02226   0.53023   0.00000  Uiso   1.00
H445   H     0.54892   0.29384   0.44681   0.00000  Uiso   1.00
H446   H     0.45108   0.03950   0.55319   0.00000  Uiso   1.00
C447   C     0.49884   0.29050   0.50047   0.00000  Uiso   1.00
C448   C     0.50116   0.04284   0.49953   0.00000  Uiso   1.00
C449   C     0.46582   0.14239   0.35294   0.00000  Uiso   1.00
C450   C     0.53417   0.19095   0.64706   0.00000  Uiso   1.00
C451   C     0.46600   0.14259   0.63683   0.00000  Uiso   1.00
C452   C     0.53400   0.19075   0.36317   0.00000  Uiso   1.00
H453   H     0.43888   0.12324   0.61413   0.00000  Uiso   1.00
H454   H     0.56112   0.21010   0.38587   0.00000  Uiso   1.00
Cl455  Cl    0.56802   0.04431   0.43193   0.00000  Uiso   1.00
Cl456  Cl    0.43198   0.28903   0.56807   0.00000  Uiso   1.00
N457   N     0.42943   0.11634   0.37125   0.00000  Uiso   1.00
O458   O     0.38121   0.12710   0.36595   0.00000  Uiso   1.00
O459   O     0.44072   0.07776   0.37883   0.00000  Uiso   1.00
N460   N     0.57055   0.21702   0.62875   0.00000  Uiso   1.00
O461   O     0.55927   0.25561   0.62125   0.00000  Uiso   1.00
O462   O     0.61875   0.20624   0.63396   0.00000  Uiso   1.00
O463   O     0.83333   0.10655   0.53958   0.00000  Uiso   1.00
O464   O     0.83334   0.22678   0.46042   0.00000  Uiso   1.00
O465   O     0.83333   0.10654   0.46039   0.00000  Uiso   1.00
O466   O     0.83334   0.22679   0.53961   0.00000  Uiso   1.00
C467   C     0.83428   0.08746   0.49987   0.00000  Uiso   1.00
C468   C     0.83238   0.24588   0.50013   0.00000  Uiso   1.00
O469   O     0.75828   0.16667   0.53046   0.00000  Uiso   1.00
O470   O     0.90839   0.16666   0.46954   0.00000  Uiso   1.00
O471   O     0.75828   0.16666   0.45127   0.00000  Uiso   1.00
O472   O     0.90839   0.16667   0.54873   0.00000  Uiso   1.00
C473   C     0.73458   0.16663   0.48786   0.00000  Uiso   1.00
C474   C     0.93209   0.16670   0.51214   0.00000  Uiso   1.00
Cu475  Cu    0.83333   0.16667   0.54689   0.00000  Uiso   1.00
Cu476  Cu    0.83333   0.16666   0.45311   0.00000  Uiso   1.00
N477   N     0.83335   0.16668   0.61736   0.00000  Uiso   1.00
N478   N     0.83332   0.16666   0.38264   0.00000  Uiso   1.00
C479   C     0.67920   0.16664   0.48124   0.00000  Uiso   1.00
C480   C     0.98747   0.16669   0.51876   0.00000  Uiso   1.00
H481   H     0.99232   0.16662   0.44534   0.00000  Uiso   1.00
H482   H     0.67434   0.16671   0.55466   0.00000  Uiso   1.00
C483   C     0.86207   0.02047   0.46919   0.00000  Uiso   1.00
C484   C     0.80460   0.31287   0.53081   0.00000  Uiso   1.00
C485   C     0.86047   0.31107   0.46977   0.00000  Uiso   1.00
C486   C     0.80619   0.02226   0.53023   0.00000  Uiso   1.00
H487   H     0.88225   0.29384   0.44681   0.00000  Uiso   1.00
H488   H     0.78441   0.03950   0.55319   0.00000  Uiso   1.00
C489   C     0.83217   0.29050   0.50047   0.00000  Uiso   1.00
C490   C     0.83450   0.04284   0.49953   0.00000  Uiso   1.00
C491   C     0.79915   0.14239   0.35294   0.00000  Uiso   1.00
C492   C     0.86751   0.19095   0.64706   0.00000  Uiso   1.00
C493   C     0.79933   0.14259   0.63683   0.00000  Uiso   1.00
C494   C     0.86734   0.19075   0.36317   0.00000  Uiso   1.00
H495   H     0.77221   0.12324   0.61413   0.00000  Uiso   1.00
H496   H     0.89445   0.21010   0.38587   0.00000  Uiso   1.00
Cl497  Cl    0.90135   0.04431   0.43193   0.00000  Uiso   1.00
Cl498  Cl    0.76532   0.28903   0.56807   0.00000  Uiso   1.00
N499   N     0.76276   0.11634   0.37125   0.00000  Uiso   1.00
O500   O     0.71455   0.12710   0.36595   0.00000  Uiso   1.00
O501   O     0.77405   0.07776   0.37883   0.00000  Uiso   1.00
N502   N     0.90388   0.21702   0.62875   0.00000  Uiso   1.00
O503   O     0.89260   0.25561   0.62125   0.00000  Uiso   1.00
O504   O     0.95208   0.20624   0.63396   0.00000  Uiso   1.00
O505   O     0.16666   0.43989   0.53958   0.00000  Uiso   1.00
O506   O     0.16667   0.56011   0.46042   0.00000  Uiso   1.00
O507   O     0.16666   0.43988   0.46039   0.00000  Uiso   1.00
O508   O     0.16667   0.56012   0.53961   0.00000  Uiso   1.00
C509   C     0.16762   0.42079   0.49987   0.00000  Uiso   1.00
C510   C     0.16572   0.57921   0.50013   0.00000  Uiso   1.00
O511   O     0.09161   0.50000   0.53046   0.00000  Uiso   1.00
O512   O     0.24172   0.50000   0.46954   0.00000  Uiso   1.00
O513   O     0.09161   0.49999   0.45127   0.00000  Uiso   1.00
O514   O     0.24172   0.50001   0.54873   0.00000  Uiso   1.00
C515   C     0.06791   0.49997   0.48786   0.00000  Uiso   1.00
C516   C     0.26542   0.50003   0.51214   0.00000  Uiso   1.00
Cu517  Cu    0.16667   0.50001   0.54689   0.00000  Uiso   1.00
Cu518  Cu    0.16667   0.49999   0.45311   0.00000  Uiso   1.00
N519   N     0.16668   0.50001   0.61736   0.00000  Uiso   1.00
N520   N     0.16665   0.49999   0.38264   0.00000  Uiso   1.00
C521   C     0.01253   0.49998   0.48124   0.00000  Uiso   1.00
C522   C     0.32080   0.50002   0.51876   0.00000  Uiso   1.00
H523   H     0.32566   0.49996   0.44534   0.00000  Uiso   1.00
H524   H     0.00768   0.50004   0.55466   0.00000  Uiso   1.00
C525   C     0.19540   0.35380   0.46919   0.00000  Uiso   1.00
C526   C     0.13793   0.64620   0.53081   0.00000  Uiso   1.00
C527   C     0.19381   0.64440   0.46977   0.00000  Uiso   1.00
C528   C     0.13953   0.35560   0.53023   0.00000  Uiso   1.00
H529   H     0.21559   0.62717   0.44681   0.00000  Uiso   1.00
H530   H     0.11775   0.37283   0.55319   0.00000  Uiso   1.00
C531   C     0.16550   0.62383   0.50047   0.00000  Uiso   1.00
C532   C     0.16783   0.37617   0.49953   0.00000  Uiso   1.00
C533   C     0.13249   0.47572   0.35294   0.00000  Uiso   1.00
C534   C     0.20084   0.52428   0.64706   0.00000  Uiso   1.00
C535   C     0.13266   0.47592   0.63683   0.00000  Uiso   1.00
C536   C     0.20067   0.52408   0.36317   0.00000  Uiso   1.00
H537   H     0.10554   0.45657   0.61413   0.00000  Uiso   1.00
H538   H     0.22779   0.54344   0.38587   0.00000  Uiso   1.00
Cl539  Cl    0.23468   0.37764   0.43193   0.00000  Uiso   1.00
Cl540  Cl    0.09865   0.62236   0.56807   0.00000  Uiso   1.00
N541   N     0.09609   0.44967   0.37125   0.00000  Uiso   1.00
O542   O     0.04788   0.46043   0.36595   0.00000  Uiso   1.00
O543   O     0.10738   0.41109   0.37883   0.00000  Uiso   1.00
N544   N     0.23721   0.55035   0.62875   0.00000  Uiso   1.00
O545   O     0.22593   0.58894   0.62125   0.00000  Uiso   1.00
O546   O     0.28542   0.53958   0.63396   0.00000  Uiso   1.00
O547   O     0.50000   0.43989   0.53958   0.00000  Uiso   1.00
O548   O     0.50000   0.56011   0.46042   0.00000  Uiso   1.00
O549   O     0.50000   0.43988   0.46039   0.00000  Uiso   1.00
O550   O     0.50000   0.56012   0.53961   0.00000  Uiso   1.00
C551   C     0.50095   0.42079   0.49987   0.00000  Uiso   1.00
C552   C     0.49905   0.57921   0.50013   0.00000  Uiso   1.00
O553   O     0.42495   0.50000   0.53046   0.00000  Uiso   1.00
O554   O     0.57505   0.50000   0.46954   0.00000  Uiso   1.00
O555   O     0.42494   0.49999   0.45127   0.00000  Uiso   1.00
O556   O     0.57506   0.50001   0.54873   0.00000  Uiso   1.00
C557   C     0.40125   0.49997   0.48786   0.00000  Uiso   1.00
C558   C     0.59875   0.50003   0.51214   0.00000  Uiso   1.00
Cu559  Cu    0.50000   0.50001   0.54689   0.00000  Uiso   1.00
Cu560  Cu    0.50000   0.49999   0.45311   0.00000  Uiso   1.00
N561   N     0.50001   0.50001   0.61736   0.00000  Uiso   1.00
N562   N     0.49999   0.49999   0.38264   0.00000  Uiso   1.00
C563   C     0.34587   0.49998   0.48124   0.00000  Uiso   1.00
C564   C     0.65413   0.50002   0.51876   0.00000  Uiso   1.00
H565   H     0.65899   0.49996   0.44534   0.00000  Uiso   1.00
H566   H     0.34101   0.50004   0.55466   0.00000  Uiso   1.00
C567   C     0.52874   0.35380   0.46919   0.00000  Uiso   1.00
C568   C     0.47126   0.64620   0.53081   0.00000  Uiso   1.00
C569   C     0.52714   0.64440   0.46977   0.00000  Uiso   1.00
C570   C     0.47286   0.35560   0.53023   0.00000  Uiso   1.00
H571   H     0.54892   0.62717   0.44681   0.00000  Uiso   1.00
H572   H     0.45108   0.37283   0.55319   0.00000  Uiso   1.00
C573   C     0.49884   0.62383   0.50047   0.00000  Uiso   1.00
C574   C     0.50116   0.37617   0.49953   0.00000  Uiso   1.00
C575   C     0.46582   0.47572   0.35294   0.00000  Uiso   1.00
C576   C     0.53417   0.52428   0.64706   0.00000  Uiso   1.00
C577   C     0.46600   0.47592   0.63683   0.00000  Uiso   1.00
C578   C     0.53400   0.52408   0.36317   0.00000  Uiso   1.00
H579   H     0.43888   0.45657   0.61413   0.00000  Uiso   1.00
H580   H     0.56112   0.54344   0.38587   0.00000  Uiso   1.00
Cl581  Cl    0.56802   0.37764   0.43193   0.00000  Uiso   1.00
Cl582  Cl    0.43198   0.62236   0.56807   0.00000  Uiso   1.00
N583   N     0.42943   0.44967   0.37125   0.00000  Uiso   1.00
O584   O     0.38121   0.46043   0.36595   0.00000  Uiso   1.00
O585   O     0.44072   0.41109   0.37883   0.00000  Uiso   1.00
N586   N     0.57055   0.55035   0.62875   0.00000  Uiso   1.00
O587   O     0.55927   0.58894   0.62125   0.00000  Uiso   1.00
O588   O     0.61875   0.53958   0.63396   0.00000  Uiso   1.00
O589   O     0.83333   0.43989   0.53958   0.00000  Uiso   1.00
O590   O     0.83334   0.56011   0.46042   0.00000  Uiso   1.00
O591   O     0.83333   0.43988   0.46039   0.00000  Uiso   1.00
O592   O     0.83334   0.56012   0.53961   0.00000  Uiso   1.00
C593   C     0.83428   0.42079   0.49987   0.00000  Uiso   1.00
C594   C     0.83238   0.57921   0.50013   0.00000  Uiso   1.00
O595   O     0.75828   0.50000   0.53046   0.00000  Uiso   1.00
O596   O     0.90839   0.50000   0.46954   0.00000  Uiso   1.00
O597   O     0.75828   0.49999   0.45127   0.00000  Uiso   1.00
O598   O     0.90839   0.50001   0.54873   0.00000  Uiso   1.00
C599   C     0.73458   0.49997   0.48786   0.00000  Uiso   1.00
C600   C     0.93209   0.50003   0.51214   0.00000  Uiso   1.00
Cu601  Cu    0.83333   0.50001   0.54689   0.00000  Uiso   1.00
Cu602  Cu    0.83333   0.49999   0.45311   0.00000  Uiso   1.00
N603   N     0.83335   0.50001   0.61736   0.00000  Uiso   1.00
N604   N     0.83332   0.49999   0.38264   0.00000  Uiso   1.00
C605   C     0.67920   0.49998   0.48124   0.00000  Uiso   1.00
C606   C     0.98747   0.50002   0.51876   0.00000  Uiso   1.00
H607   H     0.99232   0.49996   0.44534   0.00000  Uiso   1.00
H608   H     0.67434   0.50004   0.55466   0.00000  Uiso   1.00
C609   C     0.86207   0.35380   0.46919   0.00000  Uiso   1.00
C610   C     0.80460   0.64620   0.53081   0.00000  Uiso   1.00
C611   C     0.86047   0.64440   0.46977   0.00000  Uiso   1.00
C612   C     0.80619   0.35560   0.53023   0.00000  Uiso   1.00
H613   H     0.88225   0.62717   0.44681   0.00000  Uiso   1.00
H614   H     0.78441   0.37283   0.55319   0.00000  Uiso   1.00
C615   C     0.83217   0.62383   0.50047   0.00000  Uiso   1.00
C616   C     0.83450   0.37617   0.49953   0.00000  Uiso   1.00
C617   C     0.79915   0.47572   0.35294   0.00000  Uiso   1.00
C618   C     0.86751   0.52428   0.64706   0.00000  Uiso   1.00
C619   C     0.79933   0.47592   0.63683   0.00000  Uiso   1.00
C620   C     0.86734   0.52408   0.36317   0.00000  Uiso   1.00
H621   H     0.77221   0.45657   0.61413   0.00000  Uiso   1.00
H622   H     0.89445   0.54344   0.38587   0.00000  Uiso   1.00
Cl623  Cl    0.90135   0.37764   0.43193   0.00000  Uiso   1.00
Cl624  Cl    0.76532   0.62236   0.56807   0.00000  Uiso   1.00
N625   N     0.76276   0.44967   0.37125   0.00000  Uiso   1.00
O626   O     0.71455   0.46043   0.36595   0.00000  Uiso   1.00
O627   O     0.77405   0.41109   0.37883   0.00000  Uiso   1.00
N628   N     0.90388   0.55035   0.62875   0.00000  Uiso   1.00
O629   O     0.89260   0.58894   0.62125   0.00000  Uiso   1.00
O630   O     0.95208   0.53958   0.63396   0.00000  Uiso   1.00
O631   O     0.16666   0.77322   0.53958   0.00000  Uiso   1.00
O632   O     0.16667   0.89345   0.46042   0.00000  Uiso   1.00
O633   O     0.16666   0.77321   0.46039   0.00000  Uiso   1.00
O634   O     0.16667   0.89346   0.53961   0.00000  Uiso   1.00
C635   C     0.16762   0.75412   0.49987   0.00000  Uiso   1.00
C636   C     0.16572   0.91254   0.50013   0.00000  Uiso   1.00
O637   O     0.09161   0.83334   0.53046   0.00000  Uiso   1.00
O638   O     0.24172   0.83333   0.46954   0.00000  Uiso   1.00
O639   O     0.09161   0.83333   0.45127   0.00000  Uiso   1.00
O640   O     0.24172   0.83334   0.54873   0.00000  Uiso   1.00
C641   C     0.06791   0.83330   0.48786   0.00000  Uiso   1.00
C642   C     0.26542   0.83337   0.51214   0.00000  Uiso   1.00
Cu643  Cu    0.16667   0.83334   0.54689   0.00000  Uiso   1.00
Cu644  Cu    0.16667   0.83333   0.45311   0.00000  Uiso   1.00
N645   N     0.16668   0.83334   0.61736   0.00000  Uiso   1.00
N646   N     0.16665   0.83332   0.38264   0.00000  Uiso   1.00
C647   C     0.01253   0.83331   0.48124   0.00000  Uiso   1.00
C648   C     0.32080   0.83336   0.51876   0.00000  Uiso   1.00
H649   H     0.32566   0.83329   0.44534   0.00000  Uiso   1.00
H650   H     0.00768   0.83338   0.55466   0.00000  Uiso   1.00
C651   C     0.19540   0.68713   0.46919   0.00000  Uiso   1.00
C652   C     0.13793   0.97953   0.53081   0.00000  Uiso   1.00
C653   C     0.19381   0.97774   0.46977   0.00000  Uiso   1.00
C654   C     0.13953   0.68893   0.53023   0.00000  Uiso   1.00
H655   H     0.21559   0.96050   0.44681   0.00000  Uiso   1.00
H656   H     0.11775   0.70616   0.55319   0.00000  Uiso   1.00
C657   C     0.16550   0.95716   0.50047   0.00000  Uiso   1.00
C658   C     0.16783   0.70950   0.49953   0.00000  Uiso   1.00
C659   C     0.13249   0.80905   0.35294   0.00000  Uiso   1.00
C660   C     0.20084   0.85762   0.64706   0.00000  Uiso   1.00
C661   C     0.13266   0.80926   0.63683   0.00000  Uiso   1.00
C662   C     0.20067   0.85741   0.36317   0.00000  Uiso   1.00
H663   H     0.10554   0.78990   0.61413   0.00000  Uiso   1.00
H664   H     0.22779   0.87677   0.38587   0.00000  Uiso   1.00
Cl665  Cl    0.23468   0.71097   0.43193   0.00000  Uiso   1.00
Cl666  Cl    0.09865   0.95569   0.56807   0.00000  Uiso   1.00
N667   N     0.09609   0.78300   0.37125   0.00000  Uiso   1.00
O668   O     0.04788   0.79376   0.36595   0.00000  Uiso   1.00
O669   O     0.10738   0.74443   0.37883   0.00000  Uiso   1.00
N670   N     0.23721   0.88368   0.62875   0.00000  Uiso   1.00
O671   O     0.22593   0.92228   0.62125   0.00000  Uiso   1.00
O672   O     0.28542   0.87291   0.63396   0.00000  Uiso   1.00
O673   O     0.50000   0.77322   0.53958   0.00000  Uiso   1.00
O674   O     0.50000   0.89345   0.46042   0.00000  Uiso   1.00
O675   O     0.50000   0.77321   0.46039   0.00000  Uiso   1.00
O676   O     0.50000   0.89346   0.53961   0.00000  Uiso   1.00
C677   C     0.50095   0.75412   0.49987   0.00000  Uiso   1.00
C678   C     0.49905   0.91254   0.50013   0.00000  Uiso   1.00
O679   O     0.42495   0.83334   0.53046   0.00000  Uiso   1.00
O680   O     0.57505   0.83333   0.46954   0.00000  Uiso   1.00
O681   O     0.42494   0.83333   0.45127   0.00000  Uiso   1.00
O682   O     0.57506   0.83334   0.54873   0.00000  Uiso   1.00
C683   C     0.40125   0.83330   0.48786   0.00000  Uiso   1.00
C684   C     0.59875   0.83337   0.51214   0.00000  Uiso   1.00
Cu685  Cu    0.50000   0.83334   0.54689   0.00000  Uiso   1.00
Cu686  Cu    0.50000   0.83333   0.45311   0.00000  Uiso   1.00
N687   N     0.50001   0.83334   0.61736   0.00000  Uiso   1.00
N688   N     0.49999   0.83332   0.38264   0.00000  Uiso   1.00
C689   C     0.34587   0.83331   0.48124   0.00000  Uiso   1.00
C690   C     0.65413   0.83336   0.51876   0.00000  Uiso   1.00
H691   H     0.65899   0.83329   0.44534   0.00000  Uiso   1.00
H692   H     0.34101   0.83338   0.55466   0.00000  Uiso   1.00
C693   C     0.52874   0.68713   0.46919   0.00000  Uiso   1.00
C694   C     0.47126   0.97953   0.53081   0.00000  Uiso   1.00
C695   C     0.52714   0.97774   0.46977   0.00000  Uiso   1.00
C696   C     0.47286   0.68893   0.53023   0.00000  Uiso   1.00
H697   H     0.54892   0.96050   0.44681   0.00000  Uiso   1.00
H698   H     0.45108   0.70616   0.55319   0.00000  Uiso   1.00
C699   C     0.49884   0.95716   0.50047   0.00000  Uiso   1.00
C700   C     0.50116   0.70950   0.49953   0.00000  Uiso   1.00
C701   C     0.46582   0.80905   0.35294   0.00000  Uiso   1.00
C702   C     0.53417   0.85762   0.64706   0.00000  Uiso   1.00
C703   C     0.46600   0.80926   0.63683   0.00000  Uiso   1.00
C704   C     0.53400   0.85741   0.36317   0.00000  Uiso   1.00
H705   H     0.43888   0.78990   0.61413   0.00000  Uiso   1.00
H706   H     0.56112   0.87677   0.38587   0.00000  Uiso   1.00
Cl707  Cl    0.56802   0.71097   0.43193   0.00000  Uiso   1.00
Cl708  Cl    0.43198   0.95569   0.56807   0.00000  Uiso   1.00
N709   N     0.42943   0.78300   0.37125   0.00000  Uiso   1.00
O710   O     0.38121   0.79376   0.36595   0.00000  Uiso   1.00
O711   O     0.44072   0.74443   0.37883   0.00000  Uiso   1.00
N712   N     0.57055   0.88368   0.62875   0.00000  Uiso   1.00
O713   O     0.55927   0.92228   0.62125   0.00000  Uiso   1.00
O714   O     0.61875   0.87291   0.63396   0.00000  Uiso   1.00
O715   O     0.83333   0.77322   0.53958   0.00000  Uiso   1.00
O716   O     0.83334   0.89345   0.46042   0.00000  Uiso   1.00
O717   O     0.83333   0.77321   0.46039   0.00000  Uiso   1.00
O718   O     0.83334   0.89346   0.53961   0.00000  Uiso   1.00
C719   C     0.83428   0.75412   0.49987   0.00000  Uiso   1.00
C720   C     0.83238   0.91254   0.50013   0.00000  Uiso   1.00
O721   O     0.75828   0.83334   0.53046   0.00000  Uiso   1.00
O722   O     0.90839   0.83333   0.46954   0.00000  Uiso   1.00
O723   O     0.75828   0.83333   0.45127   0.00000  Uiso   1.00
O724   O     0.90839   0.83334   0.54873   0.00000  Uiso   1.00
C725   C     0.73458   0.83330   0.48786   0.00000  Uiso   1.00
C726   C     0.93209   0.83337   0.51214   0.00000  Uiso   1.00
Cu727  Cu    0.83333   0.83334   0.54689   0.00000  Uiso   1.00
Cu728  Cu    0.83333   0.83333   0.45311   0.00000  Uiso   1.00
N729   N     0.83335   0.83334   0.61736   0.00000  Uiso   1.00
N730   N     0.83332   0.83332   0.38264   0.00000  Uiso   1.00
C731   C     0.67920   0.83331   0.48124   0.00000  Uiso   1.00
C732   C     0.98747   0.83336   0.51876   0.00000  Uiso   1.00
H733   H     0.99232   0.83329   0.44534   0.00000  Uiso   1.00
H734   H     0.67434   0.83338   0.55466   0.00000  Uiso   1.00
C735   C     0.86207   0.68713   0.46919   0.00000  Uiso   1.00
C736   C     0.80460   0.97953   0.53081   0.00000  Uiso   1.00
C737   C     0.86047   0.97774   0.46977   0.00000  Uiso   1.00
C738   C     0.80619   0.68893   0.53023   0.00000  Uiso   1.00
H739   H     0.88225   0.96050   0.44681   0.00000  Uiso   1.00
H740   H     0.78441   0.70616   0.55319   0.00000  Uiso   1.00
C741   C     0.83217   0.95716   0.50047   0.00000  Uiso   1.00
C742   C     0.83450   0.70950   0.49953   0.00000  Uiso   1.00
C743   C     0.79915   0.80905   0.35294   0.00000  Uiso   1.00
C744   C     0.86751   0.85762   0.64706   0.00000  Uiso   1.00
C745   C     0.79933   0.80926   0.63683   0.00000  Uiso   1.00
C746   C     0.86734   0.85741   0.36317   0.00000  Uiso   1.00
H747   H     0.77221   0.78990   0.61413   0.00000  Uiso   1.00
H748   H     0.89445   0.87677   0.38587   0.00000  Uiso   1.00
Cl749  Cl    0.90135   0.71097   0.43193   0.00000  Uiso   1.00
Cl750  Cl    0.76532   0.95569   0.56807   0.00000  Uiso   1.00
N751   N     0.76276   0.78300   0.37125   0.00000  Uiso   1.00
O752   O     0.71455   0.79376   0.36595   0.00000  Uiso   1.00
O753   O     0.77405   0.74443   0.37883   0.00000  Uiso   1.00
N754   N     0.90388   0.88368   0.62875   0.00000  Uiso   1.00
O755   O     0.89260   0.92228   0.62125   0.00000  Uiso   1.00
O756   O     0.95208   0.87291   0.63396   0.00000  Uiso   1.00
O757   O     0.16666   0.10655   0.87291   0.00000  Uiso   1.00
O758   O     0.16667   0.22678   0.79375   0.00000  Uiso   1.00
O759   O     0.16666   0.10654   0.79372   0.00000  Uiso   1.00
O760   O     0.16667   0.22679   0.87294   0.00000  Uiso   1.00
C761   C     0.16762   0.08746   0.83320   0.00000  Uiso   1.00
C762   C     0.16572   0.24588   0.83347   0.00000  Uiso   1.00
O763   O     0.09161   0.16667   0.86379   0.00000  Uiso   1.00
O764   O     0.24172   0.16666   0.80288   0.00000  Uiso   1.00
O765   O     0.09161   0.16666   0.78460   0.00000  Uiso   1.00
O766   O     0.24172   0.16667   0.88207   0.00000  Uiso   1.00
C767   C     0.06791   0.16663   0.82119   0.00000  Uiso   1.00
C768   C     0.26542   0.16670   0.84548   0.00000  Uiso   1.00
Cu769  Cu    0.16667   0.16667   0.88022   0.00000  Uiso   1.00
Cu770  Cu    0.16667   0.16666   0.78645   0.00000  Uiso   1.00
N771   N     0.16668   0.16668   0.95069   0.00000  Uiso   1.00
N772   N     0.16665   0.16666   0.71597   0.00000  Uiso   1.00
C773   C     0.01253   0.16664   0.81458   0.00000  Uiso   1.00
C774   C     0.32080   0.16669   0.85209   0.00000  Uiso   1.00
H775   H     0.32566   0.16662   0.77867   0.00000  Uiso   1.00
H776   H     0.00768   0.16671   0.88799   0.00000  Uiso   1.00
C777   C     0.19540   0.02047   0.80252   0.00000  Uiso   1.00
C778   C     0.13793   0.31287   0.86415   0.00000  Uiso   1.00
C779   C     0.19381   0.31107   0.80310   0.00000  Uiso   1.00
C780   C     0.13953   0.02226   0.86357   0.00000  Uiso   1.00
H781   H     0.21559   0.29384   0.78014   0.00000  Uiso   1.00
H782   H     0.11775   0.03950   0.88652   0.00000  Uiso   1.00
C783   C     0.16550   0.29050   0.83380   0.00000  Uiso   1.00
C784   C     0.16783   0.04284   0.83287   0.00000  Uiso   1.00
C785   C     0.13249   0.14239   0.68627   0.00000  Uiso   1.00
C786   C     0.20084   0.19095   0.98039   0.00000  Uiso   1.00
C787   C     0.13266   0.14259   0.97016   0.00000  Uiso   1.00
C788   C     0.20067   0.19075   0.69650   0.00000  Uiso   1.00
H789   H     0.10554   0.12324   0.94746   0.00000  Uiso   1.00
H790   H     0.22779   0.21010   0.71920   0.00000  Uiso   1.00
Cl791  Cl    0.23468   0.04431   0.76527   0.00000  Uiso   1.00
Cl792  Cl    0.09865   0.28903   0.90140   0.00000  Uiso   1.00
N793   N     0.09609   0.11634   0.70458   0.00000  Uiso   1.00
O794   O     0.04788   0.12710   0.69929   0.00000  Uiso   1.00
O795   O     0.10738   0.07776   0.71217   0.00000  Uiso   1.00
N796   N     0.23721   0.21702   0.96208   0.00000  Uiso   1.00
O797   O     0.22593   0.25561   0.95458   0.00000  Uiso   1.00
O798   O     0.28542   0.20624   0.96729   0.00000  Uiso   1.00
O799   O     0.50000   0.10655   0.87291   0.00000  Uiso   1.00
O800   O     0.50000   0.22678   0.79375   0.00000  Uiso   1.00
O801   O     0.50000   0.10654   0.79372   0.00000  Uiso   1.00
O802   O     0.50000   0.22679   0.87294   0.00000  Uiso   1.00
C803   C     0.50095   0.08746   0.83320   0.00000  Uiso   1.00
C804   C     0.49905   0.24588   0.83347   0.00000  Uiso   1.00
O805   O     0.42495   0.16667   0.86379   0.00000  Uiso   1.00
O806   O     0.57505   0.16666   0.80288   0.00000  Uiso   1.00
O807   O     0.42494   0.16666   0.78460   0.00000  Uiso   1.00
O808   O     0.57506   0.16667   0.88207   0.00000  Uiso   1.00
C809   C     0.40125   0.16663   0.82119   0.00000  Uiso   1.00
C810   C     0.59875   0.16670   0.84548   0.00000  Uiso   1.00
Cu811  Cu    0.50000   0.16667   0.88022   0.00000  Uiso   1.00
Cu812  Cu    0.50000   0.16666   0.78645   0.00000  Uiso   1.00
N813   N     0.50001   0.16668   0.95069   0.00000  Uiso   1.00
N814   N     0.49999   0.16666   0.71597   0.00000  Uiso   1.00
C815   C     0.34587   0.16664   0.81458   0.00000  Uiso   1.00
C816   C     0.65413   0.16669   0.85209   0.00000  Uiso   1.00
H817   H     0.65899   0.16662   0.77867   0.00000  Uiso   1.00
H818   H     0.34101   0.16671   0.88799   0.00000  Uiso   1.00
C819   C     0.52874   0.02047   0.80252   0.00000  Uiso   1.00
C820   C     0.47126   0.31287   0.86415   0.00000  Uiso   1.00
C821   C     0.52714   0.31107   0.80310   0.00000  Uiso   1.00
C822   C     0.47286   0.02226   0.86357   0.00000  Uiso   1.00
H823   H     0.54892   0.29384   0.78014   0.00000  Uiso   1.00
H824   H     0.45108   0.03950   0.88652   0.00000  Uiso   1.00
C825   C     0.49884   0.29050   0.83380   0.00000  Uiso   1.00
C826   C     0.50116   0.04284   0.83287   0.00000  Uiso   1.00
C827   C     0.46582   0.14239   0.68627   0.00000  Uiso   1.00
C828   C     0.53417   0.19095   0.98039   0.00000  Uiso   1.00
C829   C     0.46600   0.14259   0.97016   0.00000  Uiso   1.00
C830   C     0.53400   0.19075   0.69650   0.00000  Uiso   1.00
H831   H     0.43888   0.12324   0.94746   0.00000  Uiso   1.00
H832   H     0.56112   0.21010   0.71920   0.00000  Uiso   1.00
Cl833  Cl    0.56802   0.04431   0.76527   0.00000  Uiso   1.00
Cl834  Cl    0.43198   0.28903   0.90140   0.00000  Uiso   1.00
N835   N     0.42943   0.11634   0.70458   0.00000  Uiso   1.00
O836   O     0.38121   0.12710   0.69929   0.00000  Uiso   1.00
O837   O     0.44072   0.07776   0.71217   0.00000  Uiso   1.00
N838   N     0.57055   0.21702   0.96208   0.00000  Uiso   1.00
O839   O     0.55927   0.25561   0.95458   0.00000  Uiso   1.00
O840   O     0.61875   0.20624   0.96729   0.00000  Uiso   1.00
O841   O     0.83333   0.10655   0.87291   0.00000  Uiso   1.00
O842   O     0.83334   0.22678   0.79375   0.00000  Uiso   1.00
O843   O     0.83333   0.10654   0.79372   0.00000  Uiso   1.00
O844   O     0.83334   0.22679   0.87294   0.00000  Uiso   1.00
C845   C     0.83428   0.08746   0.83320   0.00000  Uiso   1.00
C846   C     0.83238   0.24588   0.83347   0.00000  Uiso   1.00
O847   O     0.75828   0.16667   0.86379   0.00000  Uiso   1.00
O848   O     0.90839   0.16666   0.80288   0.00000  Uiso   1.00
O849   O     0.75828   0.16666   0.78460   0.00000  Uiso   1.00
O850   O     0.90839   0.16667   0.88207   0.00000  Uiso   1.00
C851   C     0.73458   0.16663   0.82119   0.00000  Uiso   1.00
C852   C     0.93209   0.16670   0.84548   0.00000  Uiso   1.00
Cu853  Cu    0.83333   0.16667   0.88022   0.00000  Uiso   1.00
Cu854  Cu    0.83333   0.16666   0.78645   0.00000  Uiso   1.00
N855   N     0.83335   0.16668   0.95069   0.00000  Uiso   1.00
N856   N     0.83332   0.16666   0.71597   0.00000  Uiso   1.00
C857   C     0.67920   0.16664   0.81458   0.00000  Uiso   1.00
C858   C     0.98747   0.16669   0.85209   0.00000  Uiso   1.00
H859   H     0.99232   0.16662   0.77867   0.00000  Uiso   1.00
H860   H     0.67434   0.16671   0.88799   0.00000  Uiso   1.00
C861   C     0.86207   0.02047   0.80252   0.00000  Uiso   1.00
C862   C     0.80460   0.31287   0.86415   0.00000  Uiso   1.00
C863   C     0.86047   0.31107   0.80310   0.00000  Uiso   1.00
C864   C     0.80619   0.02226   0.86357   0.00000  Uiso   1.00
H865   H     0.88225   0.29384   0.78014   0.00000  Uiso   1.00
H866   H     0.78441   0.03950   0.88652   0.00000  Uiso   1.00
C867   C     0.83217   0.29050   0.83380   0.00000  Uiso   1.00
C868   C     0.83450   0.04284   0.83287   0.00000  Uiso   1.00
C869   C     0.79915   0.14239   0.68627   0.00000  Uiso   1.00
C870   C     0.86751   0.19095   0.98039   0.00000  Uiso   1.00
C871   C     0.79933   0.14259   0.97016   0.00000  Uiso   1.00
C872   C     0.86734   0.19075   0.69650   0.00000  Uiso   1.00
H873   H     0.77221   0.12324   0.94746   0.00000  Uiso   1.00
H874   H     0.89445   0.21010   0.71920   0.00000  Uiso   1.00
Cl875  Cl    0.90135   0.04431   0.76527   0.00000  Uiso   1.00
Cl876  Cl    0.76532   0.28903   0.90140   0.00000  Uiso   1.00
N877   N     0.76276   0.11634   0.70458   0.00000  Uiso   1.00
O878   O     0.71455   0.12710   0.69929   0.00000  Uiso   1.00
O879   O     0.77405   0.07776   0.71217   0.00000  Uiso   1.00
N880   N     0.90388   0.21702   0.96208   0.00000  Uiso   1.00
O881   O     0.89260   0.25561   0.95458   0.00000  Uiso   1.00
O882   O     0.95208   0.20624   0.96729   0.00000  Uiso   1.00
O883   O     0.16666   0.43989   0.87291   0.00000  Uiso   1.00
O884   O     0.16667   0.56011   0.79375   0.00000  Uiso   1.00
O885   O     0.16666   0.43988   0.79372   0.00000  Uiso   1.00
O886   O     0.16667   0.56012   0.87294   0.00000  Uiso   1.00
C887   C     0.16762   0.42079   0.83320   0.00000  Uiso   1.00
C888   C     0.16572   0.57921   0.83347   0.00000  Uiso   1.00
O889   O     0.09161   0.50000   0.86379   0.00000  Uiso   1.00
O890   O     0.24172   0.50000   0.80288   0.00000  Uiso   1.00
O891   O     0.09161   0.49999   0.78460   0.00000  Uiso   1.00
O892   O     0.24172   0.50001   0.88207   0.00000  Uiso   1.00
C893   C     0.06791   0.49997   0.82119   0.00000  Uiso   1.00
C894   C     0.26542   0.50003   0.84548   0.00000  Uiso   1.00
Cu895  Cu    0.16667   0.50001   0.88022   0.00000  Uiso   1.00
Cu896  Cu    0.16667   0.49999   0.78645   0.00000  Uiso   1.00
N897   N     0.16668   0.50001   0.95069   0.00000  Uiso   1.00
N898   N     0.16665   0.49999   0.71597   0.00000  Uiso   1.00
C899   C     0.01253   0.49998   0.81458   0.00000  Uiso   1.00
C900   C     0.32080   0.50002   0.85209   0.00000  Uiso   1.00
H901   H     0.32566   0.49996   0.77867   0.00000  Uiso   1.00
H902   H     0.00768   0.50004   0.88799   0.00000  Uiso   1.00
C903   C     0.19540   0.35380   0.80252   0.00000  Uiso   1.00
C904   C     0.13793   0.64620   0.86415   0.00000  Uiso   1.00
C905   C     0.19381   0.64440   0.80310   0.00000  Uiso   1.00
C906   C     0.13953   0.35560   0.86357   0.00000  Uiso   1.00
H907   H     0.21559   0.62717   0.78014   0.00000  Uiso   1.00
H908   H     0.11775   0.37283   0.88652   0.00000  Uiso   1.00
C909   C     0.16550   0.62383   0.83380   0.00000  Uiso   1.00
C910   C     0.16783   0.37617   0.83287   0.00000  Uiso   1.00
C911   C     0.13249   0.47572   0.68627   0.00000  Uiso   1.00
C912   C     0.20084   0.52428   0.98039   0.00000  Uiso   1.00
C913   C     0.13266   0.47592   0.97016   0.00000  Uiso   1.00
C914   C     0.20067   0.52408   0.69650   0.00000  Uiso   1.00
H915   H     0.10554   0.45657   0.94746   0.00000  Uiso   1.00
H916   H     0.22779   0.54344   0.71920   0.00000  Uiso   1.00
Cl917  Cl    0.23468   0.37764   0.76527   0.00000  Uiso   1.00
Cl918  Cl    0.09865   0.62236   0.90140   0.00000  Uiso   1.00
N919   N     0.09609   0.44967   0.70458   0.00000  Uiso   1.00
O920   O     0.04788   0.46043   0.69929   0.00000  Uiso   1.00
O921   O     0.10738   0.41109   0.71217   0.00000  Uiso   1.00
N922   N     0.23721   0.55035   0.96208   0.00000  Uiso   1.00
O923   O     0.22593   0.58894   0.95458   0.00000  Uiso   1.00
O924   O     0.28542   0.53958   0.96729   0.00000  Uiso   1.00
O925   O     0.50000   0.43989   0.87291   0.00000  Uiso   1.00
O926   O     0.50000   0.56011   0.79375   0.00000  Uiso   1.00
O927   O     0.50000   0.43988   0.79372   0.00000  Uiso   1.00
O928   O     0.50000   0.56012   0.87294   0.00000  Uiso   1.00
C929   C     0.50095   0.42079   0.83320   0.00000  Uiso   1.00
C930   C     0.49905   0.57921   0.83347   0.00000  Uiso   1.00
O931   O     0.42495   0.50000   0.86379   0.00000  Uiso   1.00
O932   O     0.57505   0.50000   0.80288   0.00000  Uiso   1.00
O933   O     0.42494   0.49999   0.78460   0.00000  Uiso   1.00
O934   O     0.57506   0.50001   0.88207   0.00000  Uiso   1.00
C935   C     0.40125   0.49997   0.82119   0.00000  Uiso   1.00
C936   C     0.59875   0.50003   0.84548   0.00000  Uiso   1.00
Cu937  Cu    0.50000   0.50001   0.88022   0.00000  Uiso   1.00
Cu938  Cu    0.50000   0.49999   0.78645   0.00000  Uiso   1.00
N939   N     0.50001   0.50001   0.95069   0.00000  Uiso   1.00
N940   N     0.49999   0.49999   0.71597   0.00000  Uiso   1.00
C941   C     0.34587   0.49998   0.81458   0.00000  Uiso   1.00
C942   C     0.65413   0.50002   0.85209   0.00000  Uiso   1.00
H943   H     0.65899   0.49996   0.77867   0.00000  Uiso   1.00
H944   H     0.34101   0.50004   0.88799   0.00000  Uiso   1.00
C945   C     0.52874   0.35380   0.80252   0.00000  Uiso   1.00
C946   C     0.47126   0.64620   0.86415   0.00000  Uiso   1.00
C947   C     0.52714   0.64440   0.80310   0.00000  Uiso   1.00
C948   C     0.47286   0.35560   0.86357   0.00000  Uiso   1.00
H949   H     0.54892   0.62717   0.78014   0.00000  Uiso   1.00
H950   H     0.45108   0.37283   0.88652   0.00000  Uiso   1.00
C951   C     0.49884   0.62383   0.83380   0.00000  Uiso   1.00
C952   C     0.50116   0.37617   0.83287   0.00000  Uiso   1.00
C953   C     0.46582   0.47572   0.68627   0.00000  Uiso   1.00
C954   C     0.53417   0.52428   0.98039   0.00000  Uiso   1.00
C955   C     0.46600   0.47592   0.97016   0.00000  Uiso   1.00
C956   C     0.53400   0.52408   0.69650   0.00000  Uiso   1.00
H957   H     0.43888   0.45657   0.94746   0.00000  Uiso   1.00
H958   H     0.56112   0.54344   0.71920   0.00000  Uiso   1.00
Cl959  Cl    0.56802   0.37764   0.76527   0.00000  Uiso   1.00
Cl960  Cl    0.43198   0.62236   0.90140   0.00000  Uiso   1.00
N961   N     0.42943   0.44967   0.70458   0.00000  Uiso   1.00
O962   O     0.38121   0.46043   0.69929   0.00000  Uiso   1.00
O963   O     0.44072   0.41109   0.71217   0.00000  Uiso   1.00
N964   N     0.57055   0.55035   0.96208   0.00000  Uiso   1.00
O965   O     0.55927   0.58894   0.95458   0.00000  Uiso   1.00
O966   O     0.61875   0.53958   0.96729   0.00000  Uiso   1.00
O967   O     0.83333   0.43989   0.87291   0.00000  Uiso   1.00
O968   O     0.83334   0.56011   0.79375   0.00000  Uiso   1.00
O969   O     0.83333   0.43988   0.79372   0.00000  Uiso   1.00
O970   O     0.83334   0.56012   0.87294   0.00000  Uiso   1.00
C971   C     0.83428   0.42079   0.83320   0.00000  Uiso   1.00
C972   C     0.83238   0.57921   0.83347   0.00000  Uiso   1.00
O973   O     0.75828   0.50000   0.86379   0.00000  Uiso   1.00
O974   O     0.90839   0.50000   0.80288   0.00000  Uiso   1.00
O975   O     0.75828   0.49999   0.78460   0.00000  Uiso   1.00
O976   O     0.90839   0.50001   0.88207   0.00000  Uiso   1.00
C977   C     0.73458   0.49997   0.82119   0.00000  Uiso   1.00
C978   C     0.93209   0.50003   0.84548   0.00000  Uiso   1.00
Cu979  Cu    0.83333   0.50001   0.88022   0.00000  Uiso   1.00
Cu980  Cu    0.83333   0.49999   0.78645   0.00000  Uiso   1.00
N981   N     0.83335   0.50001   0.95069   0.00000  Uiso   1.00
N982   N     0.83332   0.49999   0.71597   0.00000  Uiso   1.00
C983   C     0.67920   0.49998   0.81458   0.00000  Uiso   1.00
C984   C     0.98747   0.50002   0.85209   0.00000  Uiso   1.00
H985   H     0.99232   0.49996   0.77867   0.00000  Uiso   1.00
H986   H     0.67434   0.50004   0.88799   0.00000  Uiso   1.00
C987   C     0.86207   0.35380   0.80252   0.00000  Uiso   1.00
C988   C     0.80460   0.64620   0.86415   0.00000  Uiso   1.00
C989   C     0.86047   0.64440   0.80310   0.00000  Uiso   1.00
C990   C     0.80619   0.35560   0.86357   0.00000  Uiso   1.00
H991   H     0.88225   0.62717   0.78014   0.00000  Uiso   1.00
H992   H     0.78441   0.37283   0.88652   0.00000  Uiso   1.00
C993   C     0.83217   0.62383   0.83380   0.00000  Uiso   1.00
C994   C     0.83450   0.37617   0.83287   0.00000  Uiso   1.00
C995   C     0.79915   0.47572   0.68627   0.00000  Uiso   1.00
C996   C     0.86751   0.52428   0.98039   0.00000  Uiso   1.00
C997   C     0.79933   0.47592   0.97016   0.00000  Uiso   1.00
C998   C     0.86734   0.52408   0.69650   0.00000  Uiso   1.00
H999   H     0.77221   0.45657   0.94746   0.00000  Uiso   1.00
H1000  H     0.89445   0.54344   0.71920   0.00000  Uiso   1.00
Cl1001 Cl    0.90135   0.37764   0.76527   0.00000  Uiso   1.00
Cl1002 Cl    0.76532   0.62236   0.90140   0.00000  Uiso   1.00
N1003  N     0.76276   0.44967   0.70458   0.00000  Uiso   1.00
O1004  O     0.71455   0.46043   0.69929   0.00000  Uiso   1.00
O1005  O     0.77405   0.41109   0.71217   0.00000  Uiso   1.00
N1006  N     0.90388   0.55035   0.96208   0.00000  Uiso   1.00
O1007  O     0.89260   0.58894   0.95458   0.00000  Uiso   1.00
O1008  O     0.95208   0.53958   0.96729   0.00000  Uiso   1.00
O1009  O     0.16666   0.77322   0.87291   0.00000  Uiso   1.00
O1010  O     0.16667   0.89345   0.79375   0.00000  Uiso   1.00
O1011  O     0.16666   0.77321   0.79372   0.00000  Uiso   1.00
O1012  O     0.16667   0.89346   0.87294   0.00000  Uiso   1.00
C1013  C     0.16762   0.75412   0.83320   0.00000  Uiso   1.00
C1014  C     0.16572   0.91254   0.83347   0.00000  Uiso   1.00
O1015  O     0.09161   0.83334   0.86379   0.00000  Uiso   1.00
O1016  O     0.24172   0.83333   0.80288   0.00000  Uiso   1.00
O1017  O     0.09161   0.83333   0.78460   0.00000  Uiso   1.00
O1018  O     0.24172   0.83334   0.88207   0.00000  Uiso   1.00
C1019  C     0.06791   0.83330   0.82119   0.00000  Uiso   1.00
C1020  C     0.26542   0.83337   0.84548   0.00000  Uiso   1.00
Cu1021 Cu    0.16667   0.83334   0.88022   0.00000  Uiso   1.00
Cu1022 Cu    0.16667   0.83333   0.78645   0.00000  Uiso   1.00
N1023  N     0.16668   0.83334   0.95069   0.00000  Uiso   1.00
N1024  N     0.16665   0.83332   0.71597   0.00000  Uiso   1.00
C1025  C     0.01253   0.83331   0.81458   0.00000  Uiso   1.00
C1026  C     0.32080   0.83336   0.85209   0.00000  Uiso   1.00
H1027  H     0.32566   0.83329   0.77867   0.00000  Uiso   1.00
H1028  H     0.00768   0.83338   0.88799   0.00000  Uiso   1.00
C1029  C     0.19540   0.68713   0.80252   0.00000  Uiso   1.00
C1030  C     0.13793   0.97953   0.86415   0.00000  Uiso   1.00
C1031  C     0.19381   0.97774   0.80310   0.00000  Uiso   1.00
C1032  C     0.13953   0.68893   0.86357   0.00000  Uiso   1.00
H1033  H     0.21559   0.96050   0.78014   0.00000  Uiso   1.00
H1034  H     0.11775   0.70616   0.88652   0.00000  Uiso   1.00
C1035  C     0.16550   0.95716   0.83380   0.00000  Uiso   1.00
C1036  C     0.16783   0.70950   0.83287   0.00000  Uiso   1.00
C1037  C     0.13249   0.80905   0.68627   0.00000  Uiso   1.00
C1038  C     0.20084   0.85762   0.98039   0.00000  Uiso   1.00
C1039  C     0.13266   0.80926   0.97016   0.00000  Uiso   1.00
C1040  C     0.20067   0.85741   0.69650   0.00000  Uiso   1.00
H1041  H     0.10554   0.78990   0.94746   0.00000  Uiso   1.00
H1042  H     0.22779   0.87677   0.71920   0.00000  Uiso   1.00
Cl1043 Cl    0.23468   0.71097   0.76527   0.00000  Uiso   1.00
Cl1044 Cl    0.09865   0.95569   0.90140   0.00000  Uiso   1.00
N1045  N     0.09609   0.78300   0.70458   0.00000  Uiso   1.00
O1046  O     0.04788   0.79376   0.69929   0.00000  Uiso   1.00
O1047  O     0.10738   0.74443   0.71217   0.00000  Uiso   1.00
N1048  N     0.23721   0.88368   0.96208   0.00000  Uiso   1.00
O1049  O     0.22593   0.92228   0.95458   0.00000  Uiso   1.00
O1050  O     0.28542   0.87291   0.96729   0.00000  Uiso   1.00
O1051  O     0.50000   0.77322   0.87291   0.00000  Uiso   1.00
O1052  O     0.50000   0.89345   0.79375   0.00000  Uiso   1.00
O1053  O     0.50000   0.77321   0.79372   0.00000  Uiso   1.00
O1054  O     0.50000   0.89346   0.87294   0.00000  Uiso   1.00
C1055  C     0.50095   0.75412   0.83320   0.00000  Uiso   1.00
C1056  C     0.49905   0.91254   0.83347   0.00000  Uiso   1.00
O1057  O     0.42495   0.83334   0.86379   0.00000  Uiso   1.00
O1058  O     0.57505   0.83333   0.80288   0.00000  Uiso   1.00
O1059  O     0.42494   0.83333   0.78460   0.00000  Uiso   1.00
O1060  O     0.57506   0.83334   0.88207   0.00000  Uiso   1.00
C1061  C     0.40125   0.83330   0.82119   0.00000  Uiso   1.00
C1062  C     0.59875   0.83337   0.84548   0.00000  Uiso   1.00
Cu1063 Cu    0.50000   0.83334   0.88022   0.00000  Uiso   1.00
Cu1064 Cu    0.50000   0.83333   0.78645   0.00000  Uiso   1.00
N1065  N     0.50001   0.83334   0.95069   0.00000  Uiso   1.00
N1066  N     0.49999   0.83332   0.71597   0.00000  Uiso   1.00
C1067  C     0.34587   0.83331   0.81458   0.00000  Uiso   1.00
C1068  C     0.65413   0.83336   0.85209   0.00000  Uiso   1.00
H1069  H     0.65899   0.83329   0.77867   0.00000  Uiso   1.00
H1070  H     0.34101   0.83338   0.88799   0.00000  Uiso   1.00
C1071  C     0.52874   0.68713   0.80252   0.00000  Uiso   1.00
C1072  C     0.47126   0.97953   0.86415   0.00000  Uiso   1.00
C1073  C     0.52714   0.97774   0.80310   0.00000  Uiso   1.00
C1074  C     0.47286   0.68893   0.86357   0.00000  Uiso   1.00
H1075  H     0.54892   0.96050   0.78014   0.00000  Uiso   1.00
H1076  H     0.45108   0.70616   0.88652   0.00000  Uiso   1.00
C1077  C     0.49884   0.95716   0.83380   0.00000  Uiso   1.00
C1078  C     0.50116   0.70950   0.83287   0.00000  Uiso   1.00
C1079  C     0.46582   0.80905   0.68627   0.00000  Uiso   1.00
C1080  C     0.53417   0.85762   0.98039   0.00000  Uiso   1.00
C1081  C     0.46600   0.80926   0.97016   0.00000  Uiso   1.00
C1082  C     0.53400   0.85741   0.69650   0.00000  Uiso   1.00
H1083  H     0.43888   0.78990   0.94746   0.00000  Uiso   1.00
H1084  H     0.56112   0.87677   0.71920   0.00000  Uiso   1.00
Cl1085 Cl    0.56802   0.71097   0.76527   0.00000  Uiso   1.00
Cl1086 Cl    0.43198   0.95569   0.90140   0.00000  Uiso   1.00
N1087  N     0.42943   0.78300   0.70458   0.00000  Uiso   1.00
O1088  O     0.38121   0.79376   0.69929   0.00000  Uiso   1.00
O1089  O     0.44072   0.74443   0.71217   0.00000  Uiso   1.00
N1090  N     0.57055   0.88368   0.96208   0.00000  Uiso   1.00
O1091  O     0.55927   0.92228   0.95458   0.00000  Uiso   1.00
O1092  O     0.61875   0.87291   0.96729   0.00000  Uiso   1.00
O1093  O     0.83333   0.77322   0.87291   0.00000  Uiso   1.00
O1094  O     0.83334   0.89345   0.79375   0.00000  Uiso   1.00
O1095  O     0.83333   0.77321   0.79372   0.00000  Uiso   1.00
O1096  O     0.83334   0.89346   0.87294   0.00000  Uiso   1.00
C1097  C     0.83428   0.75412   0.83320   0.00000  Uiso   1.00
C1098  C     0.83238   0.91254   0.83347   0.00000  Uiso   1.00
O1099  O     0.75828   0.83334   0.86379   0.00000  Uiso   1.00
O1100  O     0.90839   0.83333   0.80288   0.00000  Uiso   1.00
O1101  O     0.75828   0.83333   0.78460   0.00000  Uiso   1.00
O1102  O     0.90839   0.83334   0.88207   0.00000  Uiso   1.00
C1103  C     0.73458   0.83330   0.82119   0.00000  Uiso   1.00
C1104  C     0.93209   0.83337   0.84548   0.00000  Uiso   1.00
Cu1105 Cu    0.83333   0.83334   0.88022   0.00000  Uiso   1.00
Cu1106 Cu    0.83333   0.83333   0.78645   0.00000  Uiso   1.00
N1107  N     0.83335   0.83334   0.95069   0.00000  Uiso   1.00
N1108  N     0.83332   0.83332   0.71597   0.00000  Uiso   1.00
C1109  C     0.67920   0.83331   0.81458   0.00000  Uiso   1.00
C1110  C     0.98747   0.83336   0.85209   0.00000  Uiso   1.00
H1111  H     0.99232   0.83329   0.77867   0.00000  Uiso   1.00
H1112  H     0.67434   0.83338   0.88799   0.00000  Uiso   1.00
C1113  C     0.86207   0.68713   0.80252   0.00000  Uiso   1.00
C1114  C     0.80460   0.97953   0.86415   0.00000  Uiso   1.00
C1115  C     0.86047   0.97774   0.80310   0.00000  Uiso   1.00
C1116  C     0.80619   0.68893   0.86357   0.00000  Uiso   1.00
H1117  H     0.88225   0.96050   0.78014   0.00000  Uiso   1.00
H1118  H     0.78441   0.70616   0.88652   0.00000  Uiso   1.00
C1119  C     0.83217   0.95716   0.83380   0.00000  Uiso   1.00
C1120  C     0.83450   0.70950   0.83287   0.00000  Uiso   1.00
C1121  C     0.79915   0.80905   0.68627   0.00000  Uiso   1.00
C1122  C     0.86751   0.85762   0.98039   0.00000  Uiso   1.00
C1123  C     0.79933   0.80926   0.97016   0.00000  Uiso   1.00
C1124  C     0.86734   0.85741   0.69650   0.00000  Uiso   1.00
H1125  H     0.77221   0.78990   0.94746   0.00000  Uiso   1.00
H1126  H     0.89445   0.87677   0.71920   0.00000  Uiso   1.00
Cl1127 Cl    0.90135   0.71097   0.76527   0.00000  Uiso   1.00
Cl1128 Cl    0.76532   0.95569   0.90140   0.00000  Uiso   1.00
N1129  N     0.76276   0.78300   0.70458   0.00000  Uiso   1.00
O1130  O     0.71455   0.79376   0.69929   0.00000  Uiso   1.00
O1131  O     0.77405   0.74443   0.71217   0.00000  Uiso   1.00
N1132  N     0.90388   0.88368   0.96208   0.00000  Uiso   1.00
O1133  O     0.89260   0.92228   0.95458   0.00000  Uiso   1.00
O1134  O     0.95208   0.87291   0.96729   0.00000  Uiso   1.00
loop_
_geom_bond_atom_site_label_1
_geom_bond_atom_site_label_2
_geom_bond_distance
_geom_bond_site_symmetry_2
_ccdc_geom_bond_type
O1     C5      1.293   .     A
O1     Cu13    1.957   .     S
O2     C6      1.293   .     A
O2     Cu14    1.957   .     S
O3     Cu14    1.961   .     S
O3     C5      1.292   .     A
O4     C6      1.292   .     A
O4     Cu13    1.961   .     S
C5     C28     1.446   .     S
C6     C27     1.446   .     S
O7     C11     1.287   .     A
O7     Cu13    1.954   .     S
O8     C12     1.287   .     A
O8     Cu14    1.954   .     S
O9     Cu14    1.958   .     S
O9     C11     1.293   .     A
O10    C12     1.293   .     A
O10    Cu13    1.958   .     S
C11    C17     1.435   .     S
C12    C18     1.435   .     S
Cu13   Cu14    2.687   .     S
Cu13   N15     2.020   .     S
Cu14   N16     2.020   .     S
N15    C31     1.361   .     A
N15    C30     1.378   .     A
N16    C32     1.361   .     A
N16    C29     1.378   .     A
C17    C102    1.338   1_455 S
C17    H103    1.087   1_455 S
C18    C59     1.338   .     S
C18    H62     1.087   .     S
H19    C59     1.087   .     S
H20    C102    1.087   1_455 S
C21    Cl35    1.764   .     S
C21    C28     1.407   .     A
C21    C275    1.385   1_545 S
C22    Cl36    1.764   .     S
C22    C27     1.407   .     A
C22    C150    1.385   .     S
C23    C27     1.399   .     A
C23    H25     1.084   .     S
C23    C147    1.385   .     S
C24    H26     1.084   .     S
C24    C28     1.399   .     A
C24    C274    1.385   1_545 S
C29    N37     1.426   .     S
C29    C787    1.418   1_554 S
C30    N40     1.426   .     S
C30    C410    1.418   .     S
C31    H33     1.082   .     S
C31    C407    1.418   .     S
C32    H34     1.082   .     S
C32    C786    1.418   1_554 S
N37    O39     1.300   .     A
N37    O38     1.301   .     A
N40    O42     1.301   .     A
N40    O41     1.300   .     A
O43    C47     1.293   .     A
O43    Cu55    1.957   .     S
O44    C48     1.293   .     A
O44    Cu56    1.957   .     S
O45    Cu56    1.961   .     S
O45    C47     1.292   .     A
O46    C48     1.292   .     A
O46    Cu55    1.961   .     S
C47    C70     1.446   .     S
C48    C69     1.446   .     S
O49    C53     1.287   .     A
O49    Cu55    1.954   .     S
O50    C54     1.287   .     A
O50    Cu56    1.954   .     S
O51    Cu56    1.958   .     S
O51    C53     1.293   .     A
O52    C54     1.293   .     A
O52    Cu55    1.958   .     S
C53    C59     1.435   .     S
C54    C60     1.435   .     S
Cu55   Cu56    2.687   .     S
Cu55   N57     2.020   .     S
Cu56   N58     2.020   .     S
N57    C73     1.361   .     A
N57    C72     1.378   .     A
N58    C74     1.361   .     A
N58    C71     1.378   .     A
C60    C101    1.338   .     S
C60    H104    1.087   .     S
H61    C101    1.087   .     S
C63    Cl77    1.764   .     S
C63    C70     1.407   .     A
C63    C317    1.385   1_545 S
C64    Cl78    1.764   .     S
C64    C69     1.407   .     A
C64    C192    1.385   .     S
C65    C69     1.399   .     A
C65    H67     1.084   .     S
C65    C189    1.385   .     S
C66    H68     1.084   .     S
C66    C70     1.399   .     A
C66    C316    1.385   1_545 S
C71    N79     1.426   .     S
C71    C829    1.418   1_554 S
C72    N82     1.426   .     S
C72    C452    1.418   .     S
C73    H75     1.082   .     S
C73    C449    1.418   .     S
C74    H76     1.082   .     S
C74    C828    1.418   1_554 S
N79    O81     1.300   .     A
N79    O80     1.301   .     A
N82    O84     1.301   .     A
N82    O83     1.300   .     A
O85    C89     1.293   .     A
O85    Cu97    1.957   .     S
O86    C90     1.293   .     A
O86    Cu98    1.957   .     S
O87    Cu98    1.961   .     S
O87    C89     1.292   .     A
O88    C90     1.292   .     A
O88    Cu97    1.961   .     S
C89    C112    1.446   .     S
C90    C111    1.446   .     S
O91    C95     1.287   .     A
O91    Cu97    1.954   .     S
O92    C96     1.287   .     A
O92    Cu98    1.954   .     S
O93    Cu98    1.958   .     S
O93    C95     1.293   .     A
O94    C96     1.293   .     A
O94    Cu97    1.958   .     S
C95    C101    1.435   .     S
C96    C102    1.435   .     S
Cu97   Cu98    2.687   .     S
Cu97   N99     2.020   .     S
Cu98   N100    2.020   .     S
N99    C115    1.361   .     A
N99    C114    1.378   .     A
N100   C116    1.361   .     A
N100   C113    1.378   .     A
C102   C17     1.338   1_655 S
C102   H20     1.087   1_655 S
H103   C17     1.087   1_655 S
C105   Cl119   1.764   .     S
C105   C112    1.407   .     A
C105   C359    1.385   1_545 S
C106   Cl120   1.764   .     S
C106   C111    1.407   .     A
C106   C234    1.385   .     S
C107   C111    1.399   .     A
C107   H109    1.084   .     S
C107   C231    1.385   .     S
C108   H110    1.084   .     S
C108   C112    1.399   .     A
C108   C358    1.385   1_545 S
C113   N121    1.426   .     S
C113   C871    1.418   1_554 S
C114   N124    1.426   .     S
C114   C494    1.418   .     S
C115   H117    1.082   .     S
C115   C491    1.418   .     S
C116   H118    1.082   .     S
C116   C870    1.418   1_554 S
N121   O123    1.300   .     A
N121   O122    1.301   .     A
N124   O126    1.301   .     A
N124   O125    1.300   .     A
O127   C131    1.293   .     A
O127   Cu139   1.957   .     S
O128   C132    1.293   .     A
O128   Cu140   1.957   .     S
O129   Cu140   1.961   .     S
O129   C131    1.292   .     A
O130   C132    1.292   .     A
O130   Cu139   1.961   .     S
C131   C154    1.446   .     S
C132   C153    1.446   .     S
O133   C137    1.287   .     A
O133   Cu139   1.954   .     S
O134   C138    1.287   .     A
O134   Cu140   1.954   .     S
O135   Cu140   1.958   .     S
O135   C137    1.293   .     A
O136   C138    1.293   .     A
O136   Cu139   1.958   .     S
C137   C143    1.435   .     S
C138   C144    1.435   .     S
Cu139  Cu140   2.687   .     S
Cu139  N141    2.020   .     S
Cu140  N142    2.020   .     S
N141   C157    1.361   .     A
N141   C156    1.378   .     A
N142   C158    1.361   .     A
N142   C155    1.378   .     A
C143   C228    1.338   1_455 S
C143   H229    1.087   1_455 S
C144   C185    1.338   .     S
C144   H188    1.087   .     S
H145   C185    1.087   .     S
H146   C228    1.087   1_455 S
C147   Cl161   1.764   .     S
C147   C154    1.407   .     A
C148   Cl162   1.764   .     S
C148   C153    1.407   .     A
C148   C276    1.385   .     S
C149   C153    1.399   .     A
C149   H151    1.084   .     S
C149   C273    1.385   .     S
C150   H152    1.084   .     S
C150   C154    1.399   .     A
C155   N163    1.426   .     S
C155   C913    1.418   1_554 S
C156   N166    1.426   .     S
C156   C536    1.418   .     S
C157   H159    1.082   .     S
C157   C533    1.418   .     S
C158   H160    1.082   .     S
C158   C912    1.418   1_554 S
N163   O165    1.300   .     A
N163   O164    1.301   .     A
N166   O168    1.301   .     A
N166   O167    1.300   .     A
O169   C173    1.293   .     A
O169   Cu181   1.957   .     S
O170   C174    1.293   .     A
O170   Cu182   1.957   .     S
O171   Cu182   1.961   .     S
O171   C173    1.292   .     A
O172   C174    1.292   .     A
O172   Cu181   1.961   .     S
C173   C196    1.446   .     S
C174   C195    1.446   .     S
O175   C179    1.287   .     A
O175   Cu181   1.954   .     S
O176   C180    1.287   .     A
O176   Cu182   1.954   .     S
O177   Cu182   1.958   .     S
O177   C179    1.293   .     A
O178   C180    1.293   .     A
O178   Cu181   1.958   .     S
C179   C185    1.435   .     S
C180   C186    1.435   .     S
Cu181  Cu182   2.687   .     S
Cu181  N183    2.020   .     S
Cu182  N184    2.020   .     S
N183   C199    1.361   .     A
N183   C198    1.378   .     A
N184   C200    1.361   .     A
N184   C197    1.378   .     A
C186   C227    1.338   .     S
C186   H230    1.087   .     S
H187   C227    1.087   .     S
C189   Cl203   1.764   .     S
C189   C196    1.407   .     A
C190   Cl204   1.764   .     S
C190   C195    1.407   .     A
C190   C318    1.385   .     S
C191   C195    1.399   .     A
C191   H193    1.084   .     S
C191   C315    1.385   .     S
C192   H194    1.084   .     S
C192   C196    1.399   .     A
C197   N205    1.426   .     S
C197   C955    1.418   1_554 S
C198   N208    1.426   .     S
C198   C578    1.418   .     S
C199   H201    1.082   .     S
C199   C575    1.418   .     S
C200   H202    1.082   .     S
C200   C954    1.418   1_554 S
N205   O207    1.300   .     A
N205   O206    1.301   .     A
N208   O210    1.301   .     A
N208   O209    1.300   .     A
O211   C215    1.293   .     A
O211   Cu223   1.957   .     S
O212   C216    1.293   .     A
O212   Cu224   1.957   .     S
O213   Cu224   1.961   .     S
O213   C215    1.292   .     A
O214   C216    1.292   .     A
O214   Cu223   1.961   .     S
C215   C238    1.446   .     S
C216   C237    1.446   .     S
O217   C221    1.287   .     A
O217   Cu223   1.954   .     S
O218   C222    1.287   .     A
O218   Cu224   1.954   .     S
O219   Cu224   1.958   .     S
O219   C221    1.293   .     A
O220   C222    1.293   .     A
O220   Cu223   1.958   .     S
C221   C227    1.435   .     S
C222   C228    1.435   .     S
Cu223  Cu224   2.687   .     S
Cu223  N225    2.020   .     S
Cu224  N226    2.020   .     S
N225   C241    1.361   .     A
N225   C240    1.378   .     A
N226   C242    1.361   .     A
N226   C239    1.378   .     A
C228   C143    1.338   1_655 S
C228   H146    1.087   1_655 S
H229   C143    1.087   1_655 S
C231   Cl245   1.764   .     S
C231   C238    1.407   .     A
C232   Cl246   1.764   .     S
C232   C237    1.407   .     A
C232   C360    1.385   .     S
C233   C237    1.399   .     A
C233   H235    1.084   .     S
C233   C357    1.385   .     S
C234   H236    1.084   .     S
C234   C238    1.399   .     A
C239   N247    1.426   .     S
C239   C997    1.418   1_554 S
C240   N250    1.426   .     S
C240   C620    1.418   .     S
C241   H243    1.082   .     S
C241   C617    1.418   .     S
C242   H244    1.082   .     S
C242   C996    1.418   1_554 S
N247   O249    1.300   .     A
N247   O248    1.301   .     A
N250   O252    1.301   .     A
N250   O251    1.300   .     A
O253   C257    1.293   .     A
O253   Cu265   1.957   .     S
O254   C258    1.293   .     A
O254   Cu266   1.957   .     S
O255   Cu266   1.961   .     S
O255   C257    1.292   .     A
O256   C258    1.292   .     A
O256   Cu265   1.961   .     S
C257   C280    1.446   .     S
C258   C279    1.446   .     S
O259   C263    1.287   .     A
O259   Cu265   1.954   .     S
O260   C264    1.287   .     A
O260   Cu266   1.954   .     S
O261   Cu266   1.958   .     S
O261   C263    1.293   .     A
O262   C264    1.293   .     A
O262   Cu265   1.958   .     S
C263   C269    1.435   .     S
C264   C270    1.435   .     S
Cu265  Cu266   2.687   .     S
Cu265  N267    2.020   .     S
Cu266  N268    2.020   .     S
N267   C283    1.361   .     A
N267   C282    1.378   .     A
N268   C284    1.361   .     A
N268   C281    1.378   .     A
C269   C354    1.338   1_455 S
C269   H355    1.087   1_455 S
C270   C311    1.338   .     S
C270   H314    1.087   .     S
H271   C311    1.087   .     S
H272   C354    1.087   1_455 S
C273   Cl287   1.764   .     S
C273   C280    1.407   .     A
C274   Cl288   1.764   .     S
C274   C279    1.407   .     A
C274   C24     1.385   1_565 S
C275   C279    1.399   .     A
C275   H277    1.084   .     S
C275   C21     1.385   1_565 S
C276   H278    1.084   .     S
C276   C280    1.399   .     A
C281   N289    1.426   .     S
C281   C1039   1.418   1_554 S
C282   N292    1.426   .     S
C282   C662    1.418   .     S
C283   H285    1.082   .     S
C283   C659    1.418   .     S
C284   H286    1.082   .     S
C284   C1038   1.418   1_554 S
N289   O291    1.300   .     A
N289   O290    1.301   .     A
N292   O294    1.301   .     A
N292   O293    1.300   .     A
O295   C299    1.293   .     A
O295   Cu307   1.957   .     S
O296   C300    1.293   .     A
O296   Cu308   1.957   .     S
O297   Cu308   1.961   .     S
O297   C299    1.292   .     A
O298   C300    1.292   .     A
O298   Cu307   1.961   .     S
C299   C322    1.446   .     S
C300   C321    1.446   .     S
O301   C305    1.287   .     A
O301   Cu307   1.954   .     S
O302   C306    1.287   .     A
O302   Cu308   1.954   .     S
O303   Cu308   1.958   .     S
O303   C305    1.293   .     A
O304   C306    1.293   .     A
O304   Cu307   1.958   .     S
C305   C311    1.435   .     S
C306   C312    1.435   .     S
Cu307  Cu308   2.687   .     S
Cu307  N309    2.020   .     S
Cu308  N310    2.020   .     S
N309   C325    1.361   .     A
N309   C324    1.378   .     A
N310   C326    1.361   .     A
N310   C323    1.378   .     A
C312   C353    1.338   .     S
C312   H356    1.087   .     S
H313   C353    1.087   .     S
C315   Cl329   1.764   .     S
C315   C322    1.407   .     A
C316   Cl330   1.764   .     S
C316   C321    1.407   .     A
C316   C66     1.385   1_565 S
C317   C321    1.399   .     A
C317   H319    1.084   .     S
C317   C63     1.385   1_565 S
C318   H320    1.084   .     S
C318   C322    1.399   .     A
C323   N331    1.426   .     S
C323   C1081   1.418   1_554 S
C324   N334    1.426   .     S
C324   C704    1.418   .     S
C325   H327    1.082   .     S
C325   C701    1.418   .     S
C326   H328    1.082   .     S
C326   C1080   1.418   1_554 S
N331   O333    1.300   .     A
N331   O332    1.301   .     A
N334   O336    1.301   .     A
N334   O335    1.300   .     A
O337   C341    1.293   .     A
O337   Cu349   1.957   .     S
O338   C342    1.293   .     A
O338   Cu350   1.957   .     S
O339   Cu350   1.961   .     S
O339   C341    1.292   .     A
O340   C342    1.292   .     A
O340   Cu349   1.961   .     S
C341   C364    1.446   .     S
C342   C363    1.446   .     S
O343   C347    1.287   .     A
O343   Cu349   1.954   .     S
O344   C348    1.287   .     A
O344   Cu350   1.954   .     S
O345   Cu350   1.958   .     S
O345   C347    1.293   .     A
O346   C348    1.293   .     A
O346   Cu349   1.958   .     S
C347   C353    1.435   .     S
C348   C354    1.435   .     S
Cu349  Cu350   2.687   .     S
Cu349  N351    2.020   .     S
Cu350  N352    2.020   .     S
N351   C367    1.361   .     A
N351   C366    1.378   .     A
N352   C368    1.361   .     A
N352   C365    1.378   .     A
C354   C269    1.338   1_655 S
C354   H272    1.087   1_655 S
H355   C269    1.087   1_655 S
C357   Cl371   1.764   .     S
C357   C364    1.407   .     A
C358   Cl372   1.764   .     S
C358   C363    1.407   .     A
C358   C108    1.385   1_565 S
C359   C363    1.399   .     A
C359   H361    1.084   .     S
C359   C105    1.385   1_565 S
C360   H362    1.084   .     S
C360   C364    1.399   .     A
C365   N373    1.426   .     S
C365   C1123   1.418   1_554 S
C366   N376    1.426   .     S
C366   C746    1.418   .     S
C367   H369    1.082   .     S
C367   C743    1.418   .     S
C368   H370    1.082   .     S
C368   C1122   1.418   1_554 S
N373   O375    1.300   .     A
N373   O374    1.301   .     A
N376   O378    1.301   .     A
N376   O377    1.300   .     A
O379   C383    1.293   .     A
O379   Cu391   1.957   .     S
O380   C384    1.293   .     A
O380   Cu392   1.957   .     S
O381   Cu392   1.961   .     S
O381   C383    1.292   .     A
O382   C384    1.292   .     A
O382   Cu391   1.961   .     S
C383   C406    1.446   .     S
C384   C405    1.446   .     S
O385   C389    1.287   .     A
O385   Cu391   1.954   .     S
O386   C390    1.287   .     A
O386   Cu392   1.954   .     S
O387   Cu392   1.958   .     S
O387   C389    1.293   .     A
O388   C390    1.293   .     A
O388   Cu391   1.958   .     S
C389   C395    1.435   .     S
C390   C396    1.435   .     S
Cu391  Cu392   2.687   .     S
Cu391  N393    2.020   .     S
Cu392  N394    2.020   .     S
N393   C409    1.361   .     A
N393   C408    1.378   .     A
N394   C410    1.361   .     A
N394   C407    1.378   .     A
C395   C480    1.338   1_455 S
C395   H481    1.087   1_455 S
C396   C437    1.338   .     S
C396   H440    1.087   .     S
H397   C437    1.087   .     S
H398   C480    1.087   1_455 S
C399   Cl413   1.764   .     S
C399   C406    1.407   .     A
C399   C653    1.385   1_545 S
C400   Cl414   1.764   .     S
C400   C405    1.407   .     A
C400   C528    1.385   .     S
C401   C405    1.399   .     A
C401   H403    1.084   .     S
C401   C525    1.385   .     S
C402   H404    1.084   .     S
C402   C406    1.399   .     A
C402   C652    1.385   1_545 S
C407   N415    1.426   .     S
C408   N418    1.426   .     S
C408   C788    1.418   .     S
C409   H411    1.082   .     S
C409   C785    1.418   .     S
C410   H412    1.082   .     S
N415   O417    1.300   .     A
N415   O416    1.301   .     A
N418   O420    1.301   .     A
N418   O419    1.300   .     A
O421   C425    1.293   .     A
O421   Cu433   1.957   .     S
O422   C426    1.293   .     A
O422   Cu434   1.957   .     S
O423   Cu434   1.961   .     S
O423   C425    1.292   .     A
O424   C426    1.292   .     A
O424   Cu433   1.961   .     S
C425   C448    1.446   .     S
C426   C447    1.446   .     S
O427   C431    1.287   .     A
O427   Cu433   1.954   .     S
O428   C432    1.287   .     A
O428   Cu434   1.954   .     S
O429   Cu434   1.958   .     S
O429   C431    1.293   .     A
O430   C432    1.293   .     A
O430   Cu433   1.958   .     S
C431   C437    1.435   .     S
C432   C438    1.435   .     S
Cu433  Cu434   2.687   .     S
Cu433  N435    2.020   .     S
Cu434  N436    2.020   .     S
N435   C451    1.361   .     A
N435   C450    1.378   .     A
N436   C452    1.361   .     A
N436   C449    1.378   .     A
C438   C479    1.338   .     S
C438   H482    1.087   .     S
H439   C479    1.087   .     S
C441   Cl455   1.764   .     S
C441   C448    1.407   .     A
C441   C695    1.385   1_545 S
C442   Cl456   1.764   .     S
C442   C447    1.407   .     A
C442   C570    1.385   .     S
C443   C447    1.399   .     A
C443   H445    1.084   .     S
C443   C567    1.385   .     S
C444   H446    1.084   .     S
C444   C448    1.399   .     A
C444   C694    1.385   1_545 S
C449   N457    1.426   .     S
C450   N460    1.426   .     S
C450   C830    1.418   .     S
C451   H453    1.082   .     S
C451   C827    1.418   .     S
C452   H454    1.082   .     S
N457   O459    1.300   .     A
N457   O458    1.301   .     A
N460   O462    1.301   .     A
N460   O461    1.300   .     A
O463   C467    1.293   .     A
O463   Cu475   1.957   .     S
O464   C468    1.293   .     A
O464   Cu476   1.957   .     S
O465   Cu476   1.961   .     S
O465   C467    1.292   .     A
O466   C468    1.292   .     A
O466   Cu475   1.961   .     S
C467   C490    1.446   .     S
C468   C489    1.446   .     S
O469   C473    1.287   .     A
O469   Cu475   1.954   .     S
O470   C474    1.287   .     A
O470   Cu476   1.954   .     S
O471   Cu476   1.958   .     S
O471   C473    1.293   .     A
O472   C474    1.293   .     A
O472   Cu475   1.958   .     S
C473   C479    1.435   .     S
C474   C480    1.435   .     S
Cu475  Cu476   2.687   .     S
Cu475  N477    2.020   .     S
Cu476  N478    2.020   .     S
N477   C493    1.361   .     A
N477   C492    1.378   .     A
N478   C494    1.361   .     A
N478   C491    1.378   .     A
C480   C395    1.338   1_655 S
C480   H398    1.087   1_655 S
H481   C395    1.087   1_655 S
C483   Cl497   1.764   .     S
C483   C490    1.407   .     A
C483   C737    1.385   1_545 S
C484   Cl498   1.764   .     S
C484   C489    1.407   .     A
C484   C612    1.385   .     S
C485   C489    1.399   .     A
C485   H487    1.084   .     S
C485   C609    1.385   .     S
C486   H488    1.084   .     S
C486   C490    1.399   .     A
C486   C736    1.385   1_545 S
C491   N499    1.426   .     S
C492   N502    1.426   .     S
C492   C872    1.418   .     S
C493   H495    1.082   .     S
C493   C869    1.418   .     S
C494   H496    1.082   .     S
N499   O501    1.300   .     A
N499   O500    1.301   .     A
N502   O504    1.301   .     A
N502   O503    1.300   .     A
O505   C509    1.293   .     A
O505   Cu517   1.957   .     S
O506   C510    1.293   .     A
O506   Cu518   1.957   .     S
O507   Cu518   1.961   .     S
O507   C509    1.292   .     A
O508   C510    1.292   .     A
O508   Cu517   1.961   .     S
C509   C532    1.446   .     S
C510   C531    1.446   .     S
O511   C515    1.287   .     A
O511   Cu517   1.954   .     S
O512   C516    1.287   .     A
O512   Cu518   1.954   .     S
O513   Cu518   1.958   .     S
O513   C515    1.293   .     A
O514   C516    1.293   .     A
O514   Cu517   1.958   .     S
C515   C521    1.435   .     S
C516   C522    1.435   .     S
Cu517  Cu518   2.687   .     S
Cu517  N519    2.020   .     S
Cu518  N520    2.020   .     S
N519   C535    1.361   .     A
N519   C534    1.378   .     A
N520   C536    1.361   .     A
N520   C533    1.378   .     A
C521   C606    1.338   1_455 S
C521   H607    1.087   1_455 S
C522   C563    1.338   .     S
C522   H566    1.087   .     S
H523   C563    1.087   .     S
H524   C606    1.087   1_455 S
C525   Cl539   1.764   .     S
C525   C532    1.407   .     A
C526   Cl540   1.764   .     S
C526   C531    1.407   .     A
C526   C654    1.385   .     S
C527   C531    1.399   .     A
C527   H529    1.084   .     S
C527   C651    1.385   .     S
C528   H530    1.084   .     S
C528   C532    1.399   .     A
C533   N541    1.426   .     S
C534   N544    1.426   .     S
C534   C914    1.418   .     S
C535   H537    1.082   .     S
C535   C911    1.418   .     S
C536   H538    1.082   .     S
N541   O543    1.300   .     A
N541   O542    1.301   .     A
N544   O546    1.301   .     A
N544   O545    1.300   .     A
O547   C551    1.293   .     A
O547   Cu559   1.957   .     S
O548   C552    1.293   .     A
O548   Cu560   1.957   .     S
O549   Cu560   1.961   .     S
O549   C551    1.292   .     A
O550   C552    1.292   .     A
O550   Cu559   1.961   .     S
C551   C574    1.446   .     S
C552   C573    1.446   .     S
O553   C557    1.287   .     A
O553   Cu559   1.954   .     S
O554   C558    1.287   .     A
O554   Cu560   1.954   .     S
O555   Cu560   1.958   .     S
O555   C557    1.293   .     A
O556   C558    1.293   .     A
O556   Cu559   1.958   .     S
C557   C563    1.435   .     S
C558   C564    1.435   .     S
Cu559  Cu560   2.687   .     S
Cu559  N561    2.020   .     S
Cu560  N562    2.020   .     S
N561   C577    1.361   .     A
N561   C576    1.378   .     A
N562   C578    1.361   .     A
N562   C575    1.378   .     A
C564   C605    1.338   .     S
C564   H608    1.087   .     S
H565   C605    1.087   .     S
C567   Cl581   1.764   .     S
C567   C574    1.407   .     A
C568   Cl582   1.764   .     S
C568   C573    1.407   .     A
C568   C696    1.385   .     S
C569   C573    1.399   .     A
C569   H571    1.084   .     S
C569   C693    1.385   .     S
C570   H572    1.084   .     S
C570   C574    1.399   .     A
C575   N583    1.426   .     S
C576   N586    1.426   .     S
C576   C956    1.418   .     S
C577   H579    1.082   .     S
C577   C953    1.418   .     S
C578   H580    1.082   .     S
N583   O585    1.300   .     A
N583   O584    1.301   .     A
N586   O588    1.301   .     A
N586   O587    1.300   .     A
O589   C593    1.293   .     A
O589   Cu601   1.957   .     S
O590   C594    1.293   .     A
O590   Cu602   1.957   .     S
O591   Cu602   1.961   .     S
O591   C593    1.292   .     A
O592   C594    1.292   .     A
O592   Cu601   1.961   .     S
C593   C616    1.446   .     S
C594   C615    1.446   .     S
O595   C599    1.287   .     A
O595   Cu601   1.954   .     S
O596   C600    1.287   .     A
O596   Cu602   1.954   .     S
O597   Cu602   1.958   .     S
O597   C599    1.293   .     A
O598   C600    1.293   .     A
O598   Cu601   1.958   .     S
C599   C605    1.435   .     S
C600   C606    1.435   .     S
Cu601  Cu602   2.687   .     S
Cu601  N603    2.020   .     S
Cu602  N604    2.020   .     S
N603   C619    1.361   .     A
N603   C618    1.378   .     A
N604   C620    1.361   .     A
N604   C617    1.378   .     A
C606   C521    1.338   1_655 S
C606   H524    1.087   1_655 S
H607   C521    1.087   1_655 S
C609   Cl623   1.764   .     S
C609   C616    1.407   .     A
C610   Cl624   1.764   .     S
C610   C615    1.407   .     A
C610   C738    1.385   .     S
C611   C615    1.399   .     A
C611   H613    1.084   .     S
C611   C735    1.385   .     S
C612   H614    1.084   .     S
C612   C616    1.399   .     A
C617   N625    1.426   .     S
C618   N628    1.426   .     S
C618   C998    1.418   .     S
C619   H621    1.082   .     S
C619   C995    1.418   .     S
C620   H622    1.082   .     S
N625   O627    1.300   .     A
N625   O626    1.301   .     A
N628   O630    1.301   .     A
N628   O629    1.300   .     A
O631   C635    1.293   .     A
O631   Cu643   1.957   .     S
O632   C636    1.293   .     A
O632   Cu644   1.957   .     S
O633   Cu644   1.961   .     S
O633   C635    1.292   .     A
O634   C636    1.292   .     A
O634   Cu643   1.961   .     S
C635   C658    1.446   .     S
C636   C657    1.446   .     S
O637   C641    1.287   .     A
O637   Cu643   1.954   .     S
O638   C642    1.287   .     A
O638   Cu644   1.954   .     S
O639   Cu644   1.958   .     S
O639   C641    1.293   .     A
O640   C642    1.293   .     A
O640   Cu643   1.958   .     S
C641   C647    1.435   .     S
C642   C648    1.435   .     S
Cu643  Cu644   2.687   .     S
Cu643  N645    2.020   .     S
Cu644  N646    2.020   .     S
N645   C661    1.361   .     A
N645   C660    1.378   .     A
N646   C662    1.361   .     A
N646   C659    1.378   .     A
C647   C732    1.338   1_455 S
C647   H733    1.087   1_455 S
C648   C689    1.338   .     S
C648   H692    1.087   .     S
H649   C689    1.087   .     S
H650   C732    1.087   1_455 S
C651   Cl665   1.764   .     S
C651   C658    1.407   .     A
C652   Cl666   1.764   .     S
C652   C657    1.407   .     A
C652   C402    1.385   1_565 S
C653   C657    1.399   .     A
C653   H655    1.084   .     S
C653   C399    1.385   1_565 S
C654   H656    1.084   .     S
C654   C658    1.399   .     A
C659   N667    1.426   .     S
C660   N670    1.426   .     S
C660   C1040   1.418   .     S
C661   H663    1.082   .     S
C661   C1037   1.418   .     S
C662   H664    1.082   .     S
N667   O669    1.300   .     A
N667   O668    1.301   .     A
N670   O672    1.301   .     A
N670   O671    1.300   .     A
O673   C677    1.293   .     A
O673   Cu685   1.957   .     S
O674   C678    1.293   .     A
O674   Cu686   1.957   .     S
O675   Cu686   1.961   .     S
O675   C677    1.292   .     A
O676   C678    1.292   .     A
O676   Cu685   1.961   .     S
C677   C700    1.446   .     S
C678   C699    1.446   .     S
O679   C683    1.287   .     A
O679   Cu685   1.954   .     S
O680   C684    1.287   .     A
O680   Cu686   1.954   .     S
O681   Cu686   1.958   .     S
O681   C683    1.293   .     A
O682   C684    1.293   .     A
O682   Cu685   1.958   .     S
C683   C689    1.435   .     S
C684   C690    1.435   .     S
Cu685  Cu686   2.687   .     S
Cu685  N687    2.020   .     S
Cu686  N688    2.020   .     S
N687   C703    1.361   .     A
N687   C702    1.378   .     A
N688   C704    1.361   .     A
N688   C701    1.378   .     A
C690   C731    1.338   .     S
C690   H734    1.087   .     S
H691   C731    1.087   .     S
C693   Cl707   1.764   .     S
C693   C700    1.407   .     A
C694   Cl708   1.764   .     S
C694   C699    1.407   .     A
C694   C444    1.385   1_565 S
C695   C699    1.399   .     A
C695   H697    1.084   .     S
C695   C441    1.385   1_565 S
C696   H698    1.084   .     S
C696   C700    1.399   .     A
C701   N709    1.426   .     S
C702   N712    1.426   .     S
C702   C1082   1.418   .     S
C703   H705    1.082   .     S
C703   C1079   1.418   .     S
C704   H706    1.082   .     S
N709   O711    1.300   .     A
N709   O710    1.301   .     A
N712   O714    1.301   .     A
N712   O713    1.300   .     A
O715   C719    1.293   .     A
O715   Cu727   1.957   .     S
O716   C720    1.293   .     A
O716   Cu728   1.957   .     S
O717   Cu728   1.961   .     S
O717   C719    1.292   .     A
O718   C720    1.292   .     A
O718   Cu727   1.961   .     S
C719   C742    1.446   .     S
C720   C741    1.446   .     S
O721   C725    1.287   .     A
O721   Cu727   1.954   .     S
O722   C726    1.287   .     A
O722   Cu728   1.954   .     S
O723   Cu728   1.958   .     S
O723   C725    1.293   .     A
O724   C726    1.293   .     A
O724   Cu727   1.958   .     S
C725   C731    1.435   .     S
C726   C732    1.435   .     S
Cu727  Cu728   2.687   .     S
Cu727  N729    2.020   .     S
Cu728  N730    2.020   .     S
N729   C745    1.361   .     A
N729   C744    1.378   .     A
N730   C746    1.361   .     A
N730   C743    1.378   .     A
C732   C647    1.338   1_655 S
C732   H650    1.087   1_655 S
H733   C647    1.087   1_655 S
C735   Cl749   1.764   .     S
C735   C742    1.407   .     A
C736   Cl750   1.764   .     S
C736   C741    1.407   .     A
C736   C486    1.385   1_565 S
C737   C741    1.399   .     A
C737   H739    1.084   .     S
C737   C483    1.385   1_565 S
C738   H740    1.084   .     S
C738   C742    1.399   .     A
C743   N751    1.426   .     S
C744   N754    1.426   .     S
C744   C1124   1.418   .     S
C745   H747    1.082   .     S
C745   C1121   1.418   .     S
C746   H748    1.082   .     S
N751   O753    1.300   .     A
N751   O752    1.301   .     A
N754   O756    1.301   .     A
N754   O755    1.300   .     A
O757   C761    1.293   .     A
O757   Cu769   1.957   .     S
O758   C762    1.293   .     A
O758   Cu770   1.957   .     S
O759   Cu770   1.961   .     S
O759   C761    1.292   .     A
O760   C762    1.292   .     A
O760   Cu769   1.961   .     S
C761   C784    1.446   .     S
C762   C783    1.446   .     S
O763   C767    1.287   .     A
O763   Cu769   1.954   .     S
O764   C768    1.287   .     A
O764   Cu770   1.954   .     S
O765   Cu770   1.958   .     S
O765   C767    1.293   .     A
O766   C768    1.293   .     A
O766   Cu769   1.958   .     S
C767   C773    1.435   .     S
C768   C774    1.435   .     S
Cu769  Cu770   2.687   .     S
Cu769  N771    2.020   .     S
Cu770  N772    2.020   .     S
N771   C787    1.361   .     A
N771   C786    1.378   .     A
N772   C788    1.361   .     A
N772   C785    1.378   .     A
C773   C858    1.338   1_455 S
C773   H859    1.087   1_455 S
C774   C815    1.338   .     S
C774   H818    1.087   .     S
H775   C815    1.087   .     S
H776   C858    1.087   1_455 S
C777   Cl791   1.764   .     S
C777   C784    1.407   .     A
C777   C1031   1.385   1_545 S
C778   Cl792   1.764   .     S
C778   C783    1.407   .     A
C778   C906    1.385   .     S
C779   C783    1.399   .     A
C779   H781    1.084   .     S
C779   C903    1.385   .     S
C780   H782    1.084   .     S
C780   C784    1.399   .     A
C780   C1030   1.385   1_545 S
C785   N793    1.426   .     S
C786   N796    1.426   .     S
C786   C32     1.418   1_556 S
C787   H789    1.082   .     S
C787   C29     1.418   1_556 S
C788   H790    1.082   .     S
N793   O795    1.300   .     A
N793   O794    1.301   .     A
N796   O798    1.301   .     A
N796   O797    1.300   .     A
O799   C803    1.293   .     A
O799   Cu811   1.957   .     S
O800   C804    1.293   .     A
O800   Cu812   1.957   .     S
O801   Cu812   1.961   .     S
O801   C803    1.292   .     A
O802   C804    1.292   .     A
O802   Cu811   1.961   .     S
C803   C826    1.446   .     S
C804   C825    1.446   .     S
O805   C809    1.287   .     A
O805   Cu811   1.954   .     S
O806   C810    1.287   .     A
O806   Cu812   1.954   .     S
O807   Cu812   1.958   .     S
O807   C809    1.293   .     A
O808   C810    1.293   .     A
O808   Cu811   1.958   .     S
C809   C815    1.435   .     S
C810   C816    1.435   .     S
Cu811  Cu812   2.687   .     S
Cu811  N813    2.020   .     S
Cu812  N814    2.020   .     S
N813   C829    1.361   .     A
N813   C828    1.378   .     A
N814   C830    1.361   .     A
N814   C827    1.378   .     A
C816   C857    1.338   .     S
C816   H860    1.087   .     S
H817   C857    1.087   .     S
C819   Cl833   1.764   .     S
C819   C826    1.407   .     A
C819   C1073   1.385   1_545 S
C820   Cl834   1.764   .     S
C820   C825    1.407   .     A
C820   C948    1.385   .     S
C821   C825    1.399   .     A
C821   H823    1.084   .     S
C821   C945    1.385   .     S
C822   H824    1.084   .     S
C822   C826    1.399   .     A
C822   C1072   1.385   1_545 S
C827   N835    1.426   .     S
C828   N838    1.426   .     S
C828   C74     1.418   1_556 S
C829   H831    1.082   .     S
C829   C71     1.418   1_556 S
C830   H832    1.082   .     S
N835   O837    1.300   .     A
N835   O836    1.301   .     A
N838   O840    1.301   .     A
N838   O839    1.300   .     A
O841   C845    1.293   .     A
O841   Cu853   1.957   .     S
O842   C846    1.293   .     A
O842   Cu854   1.957   .     S
O843   Cu854   1.961   .     S
O843   C845    1.292   .     A
O844   C846    1.292   .     A
O844   Cu853   1.961   .     S
C845   C868    1.446   .     S
C846   C867    1.446   .     S
O847   C851    1.287   .     A
O847   Cu853   1.954   .     S
O848   C852    1.287   .     A
O848   Cu854   1.954   .     S
O849   Cu854   1.958   .     S
O849   C851    1.293   .     A
O850   C852    1.293   .     A
O850   Cu853   1.958   .     S
C851   C857    1.435   .     S
C852   C858    1.435   .     S
Cu853  Cu854   2.687   .     S
Cu853  N855    2.020   .     S
Cu854  N856    2.020   .     S
N855   C871    1.361   .     A
N855   C870    1.378   .     A
N856   C872    1.361   .     A
N856   C869    1.378   .     A
C858   C773    1.338   1_655 S
C858   H776    1.087   1_655 S
H859   C773    1.087   1_655 S
C861   Cl875   1.764   .     S
C861   C868    1.407   .     A
C861   C1115   1.385   1_545 S
C862   Cl876   1.764   .     S
C862   C867    1.407   .     A
C862   C990    1.385   .     S
C863   C867    1.399   .     A
C863   H865    1.084   .     S
C863   C987    1.385   .     S
C864   H866    1.084   .     S
C864   C868    1.399   .     A
C864   C1114   1.385   1_545 S
C869   N877    1.426   .     S
C870   N880    1.426   .     S
C870   C116    1.418   1_556 S
C871   H873    1.082   .     S
C871   C113    1.418   1_556 S
C872   H874    1.082   .     S
N877   O879    1.300   .     A
N877   O878    1.301   .     A
N880   O882    1.301   .     A
N880   O881    1.300   .     A
O883   C887    1.293   .     A
O883   Cu895   1.957   .     S
O884   C888    1.293   .     A
O884   Cu896   1.957   .     S
O885   Cu896   1.961   .     S
O885   C887    1.292   .     A
O886   C888    1.292   .     A
O886   Cu895   1.961   .     S
C887   C910    1.446   .     S
C888   C909    1.446   .     S
O889   C893    1.287   .     A
O889   Cu895   1.954   .     S
O890   C894    1.287   .     A
O890   Cu896   1.954   .     S
O891   Cu896   1.958   .     S
O891   C893    1.293   .     A
O892   C894    1.293   .     A
O892   Cu895   1.958   .     S
C893   C899    1.435   .     S
C894   C900    1.435   .     S
Cu895  Cu896   2.687   .     S
Cu895  N897    2.020   .     S
Cu896  N898    2.020   .     S
N897   C913    1.361   .     A
N897   C912    1.378   .     A
N898   C914    1.361   .     A
N898   C911    1.378   .     A
C899   C984    1.338   1_455 S
C899   H985    1.087   1_455 S
C900   C941    1.338   .     S
C900   H944    1.087   .     S
H901   C941    1.087   .     S
H902   C984    1.087   1_455 S
C903   Cl917   1.764   .     S
C903   C910    1.407   .     A
C904   Cl918   1.764   .     S
C904   C909    1.407   .     A
C904   C1032   1.385   .     S
C905   C909    1.399   .     A
C905   H907    1.084   .     S
C905   C1029   1.385   .     S
C906   H908    1.084   .     S
C906   C910    1.399   .     A
C911   N919    1.426   .     S
C912   N922    1.426   .     S
C912   C158    1.418   1_556 S
C913   H915    1.082   .     S
C913   C155    1.418   1_556 S
C914   H916    1.082   .     S
N919   O921    1.300   .     A
N919   O920    1.301   .     A
N922   O924    1.301   .     A
N922   O923    1.300   .     A
O925   C929    1.293   .     A
O925   Cu937   1.957   .     S
O926   C930    1.293   .     A
O926   Cu938   1.957   .     S
O927   Cu938   1.961   .     S
O927   C929    1.292   .     A
O928   C930    1.292   .     A
O928   Cu937   1.961   .     S
C929   C952    1.446   .     S
C930   C951    1.446   .     S
O931   C935    1.287   .     A
O931   Cu937   1.954   .     S
O932   C936    1.287   .     A
O932   Cu938   1.954   .     S
O933   Cu938   1.958   .     S
O933   C935    1.293   .     A
O934   C936    1.293   .     A
O934   Cu937   1.958   .     S
C935   C941    1.435   .     S
C936   C942    1.435   .     S
Cu937  Cu938   2.687   .     S
Cu937  N939    2.020   .     S
Cu938  N940    2.020   .     S
N939   C955    1.361   .     A
N939   C954    1.378   .     A
N940   C956    1.361   .     A
N940   C953    1.378   .     A
C942   C983    1.338   .     S
C942   H986    1.087   .     S
H943   C983    1.087   .     S
C945   Cl959   1.764   .     S
C945   C952    1.407   .     A
C946   Cl960   1.764   .     S
C946   C951    1.407   .     A
C946   C1074   1.385   .     S
C947   C951    1.399   .     A
C947   H949    1.084   .     S
C947   C1071   1.385   .     S
C948   H950    1.084   .     S
C948   C952    1.399   .     A
C953   N961    1.426   .     S
C954   N964    1.426   .     S
C954   C200    1.418   1_556 S
C955   H957    1.082   .     S
C955   C197    1.418   1_556 S
C956   H958    1.082   .     S
N961   O963    1.300   .     A
N961   O962    1.301   .     A
N964   O966    1.301   .     A
N964   O965    1.300   .     A
O967   C971    1.293   .     A
O967   Cu979   1.957   .     S
O968   C972    1.293   .     A
O968   Cu980   1.957   .     S
O969   Cu980   1.961   .     S
O969   C971    1.292   .     A
O970   C972    1.292   .     A
O970   Cu979   1.961   .     S
C971   C994    1.446   .     S
C972   C993    1.446   .     S
O973   C977    1.287   .     A
O973   Cu979   1.954   .     S
O974   C978    1.287   .     A
O974   Cu980   1.954   .     S
O975   Cu980   1.958   .     S
O975   C977    1.293   .     A
O976   C978    1.293   .     A
O976   Cu979   1.958   .     S
C977   C983    1.435   .     S
C978   C984    1.435   .     S
Cu979  Cu980   2.687   .     S
Cu979  N981    2.020   .     S
Cu980  N982    2.020   .     S
N981   C997    1.361   .     A
N981   C996    1.378   .     A
N982   C998    1.361   .     A
N982   C995    1.378   .     A
C984   C899    1.338   1_655 S
C984   H902    1.087   1_655 S
H985   C899    1.087   1_655 S
C987   Cl1001  1.764   .     S
C987   C994    1.407   .     A
C988   Cl1002  1.764   .     S
C988   C993    1.407   .     A
C988   C1116   1.385   .     S
C989   C993    1.399   .     A
C989   H991    1.084   .     S
C989   C1113   1.385   .     S
C990   H992    1.084   .     S
C990   C994    1.399   .     A
C995   N1003   1.426   .     S
C996   N1006   1.426   .     S
C996   C242    1.418   1_556 S
C997   H999    1.082   .     S
C997   C239    1.418   1_556 S
C998   H1000   1.082   .     S
N1003  O1005   1.300   .     A
N1003  O1004   1.301   .     A
N1006  O1008   1.301   .     A
N1006  O1007   1.300   .     A
O1009  C1013   1.293   .     A
O1009  Cu1021  1.957   .     S
O1010  C1014   1.293   .     A
O1010  Cu1022  1.957   .     S
O1011  Cu1022  1.961   .     S
O1011  C1013   1.292   .     A
O1012  C1014   1.292   .     A
O1012  Cu1021  1.961   .     S
C1013  C1036   1.446   .     S
C1014  C1035   1.446   .     S
O1015  C1019   1.287   .     A
O1015  Cu1021  1.954   .     S
O1016  C1020   1.287   .     A
O1016  Cu1022  1.954   .     S
O1017  Cu1022  1.958   .     S
O1017  C1019   1.293   .     A
O1018  C1020   1.293   .     A
O1018  Cu1021  1.958   .     S
C1019  C1025   1.435   .     S
C1020  C1026   1.435   .     S
Cu1021 Cu1022  2.687   .     S
Cu1021 N1023   2.020   .     S
Cu1022 N1024   2.020   .     S
N1023  C1039   1.361   .     A
N1023  C1038   1.378   .     A
N1024  C1040   1.361   .     A
N1024  C1037   1.378   .     A
C1025  C1110   1.338   1_455 S
C1025  H1111   1.087   1_455 S
C1026  C1067   1.338   .     S
C1026  H1070   1.087   .     S
H1027  C1067   1.087   .     S
H1028  C1110   1.087   1_455 S
C1029  Cl1043  1.764   .     S
C1029  C1036   1.407   .     A
C1030  Cl1044  1.764   .     S
C1030  C1035   1.407   .     A
C1030  C780    1.385   1_565 S
C1031  C1035   1.399   .     A
C1031  H1033   1.084   .     S
C1031  C777    1.385   1_565 S
C1032  H1034   1.084   .     S
C1032  C1036   1.399   .     A
C1037  N1045   1.426   .     S
C1038  N1048   1.426   .     S
C1038  C284    1.418   1_556 S
C1039  H1041   1.082   .     S
C1039  C281    1.418   1_556 S
C1040  H1042   1.082   .     S
N1045  O1047   1.300   .     A
N1045  O1046   1.301   .     A
N1048  O1050   1.301   .     A
N1048  O1049   1.300   .     A
O1051  C1055   1.293   .     A
O1051  Cu1063  1.957   .     S
O1052  C1056   1.293   .     A
O1052  Cu1064  1.957   .     S
O1053  Cu1064  1.961   .     S
O1053  C1055   1.292   .     A
O1054  C1056   1.292   .     A
O1054  Cu1063  1.961   .     S
C1055  C1078   1.446   .     S
C1056  C1077   1.446   .     S
O1057  C1061   1.287   .     A
O1057  Cu1063  1.954   .     S
O1058  C1062   1.287   .     A
O1058  Cu1064  1.954   .     S
O1059  Cu1064  1.958   .     S
O1059  C1061   1.293   .     A
O1060  C1062   1.293   .     A
O1060  Cu1063  1.958   .     S
C1061  C1067   1.435   .     S
C1062  C1068   1.435   .     S
Cu1063 Cu1064  2.687   .     S
Cu1063 N1065   2.020   .     S
Cu1064 N1066   2.020   .     S
N1065  C1081   1.361   .     A
N1065  C1080   1.378   .     A
N1066  C1082   1.361   .     A
N1066  C1079   1.378   .     A
C1068  C1109   1.338   .     S
C1068  H1112   1.087   .     S
H1069  C1109   1.087   .     S
C1071  Cl1085  1.764   .     S
C1071  C1078   1.407   .     A
C1072  Cl1086  1.764   .     S
C1072  C1077   1.407   .     A
C1072  C822    1.385   1_565 S
C1073  C1077   1.399   .     A
C1073  H1075   1.084   .     S
C1073  C819    1.385   1_565 S
C1074  H1076   1.084   .     S
C1074  C1078   1.399   .     A
C1079  N1087   1.426   .     S
C1080  N1090   1.426   .     S
C1080  C326    1.418   1_556 S
C1081  H1083   1.082   .     S
C1081  C323    1.418   1_556 S
C1082  H1084   1.082   .     S
N1087  O1089   1.300   .     A
N1087  O1088   1.301   .     A
N1090  O1092   1.301   .     A
N1090  O1091   1.300   .     A
O1093  C1097   1.293   .     A
O1093  Cu1105  1.957   .     S
O1094  C1098   1.293   .     A
O1094  Cu1106  1.957   .     S
O1095  Cu1106  1.961   .     S
O1095  C1097   1.292   .     A
O1096  C1098   1.292   .     A
O1096  Cu1105  1.961   .     S
C1097  C1120   1.446   .     S
C1098  C1119   1.446   .     S
O1099  C1103   1.287   .     A
O1099  Cu1105  1.954   .     S
O1100  C1104   1.287   .     A
O1100  Cu1106  1.954   .     S
O1101  Cu1106  1.958   .     S
O1101  C1103   1.293   .     A
O1102  C1104   1.293   .     A
O1102  Cu1105  1.958   .     S
C1103  C1109   1.435   .     S
C1104  C1110   1.435   .     S
Cu1105 Cu1106  2.687   .     S
Cu1105 N1107   2.020   .     S
Cu1106 N1108   2.020   .     S
N1107  C1123   1.361   .     A
N1107  C1122   1.378   .     A
N1108  C1124   1.361   .     A
N1108  C1121   1.378   .     A
C1110  C1025   1.338   1_655 S
C1110  H1028   1.087   1_655 S
H1111  C1025   1.087   1_655 S
C1113  Cl1127  1.764   .     S
C1113  C1120   1.407   .     A
C1114  Cl1128  1.764   .     S
C1114  C1119   1.407   .     A
C1114  C864    1.385   1_565 S
C1115  C1119   1.399   .     A
C1115  H1117   1.084   .     S
C1115  C861    1.385   1_565 S
C1116  H1118   1.084   .     S
C1116  C1120   1.399   .     A
C1121  N1129   1.426   .     S
C1122  N1132   1.426   .     S
C1122  C368    1.418   1_556 S
C1123  H1125   1.082   .     S
C1123  C365    1.418   1_556 S
C1124  H1126   1.082   .     S
N1129  O1131   1.300   .     A
N1129  O1130   1.301   .     A
N1132  O1134   1.301   .     A
N1132  O1133   1.300   .     A
