data_str_m3_o1_o16_pcu_sym.78
_audit_creation_date              2020-01-03
_audit_creation_method            'Materials Studio'
_symmetry_space_group_name_H-M    'P1'
_symmetry_Int_Tables_number       1
_symmetry_cell_setting            triclinic
loop_
_symmetry_equiv_pos_as_xyz
  x,y,z
_cell_length_a                    29.8388
_cell_length_b                    32.0778
_cell_length_c                    25.9334
_cell_angle_alpha                 90.5569
_cell_angle_beta                  70.2501
_cell_angle_gamma                 90.9450
loop_
_atom_site_label
_atom_site_type_symbol
_atom_site_fract_x
_atom_site_fract_y
_atom_site_fract_z
_atom_site_U_iso_or_equiv
_atom_site_adp_type
_atom_site_occupancy
C1     C     0.16682   0.24660   0.24999   0.00000  Uiso   1.00
C2     C     0.12179   0.17270   0.41195   0.00000  Uiso   1.00
C3     C     0.18323   0.31324   0.28649   0.00000  Uiso   1.00
C4     C     0.14002   0.16837   0.35224   0.00000  Uiso   1.00
C5     C     0.18542   0.02255   0.28374   0.00000  Uiso   1.00
C6     C     0.16669   0.04286   0.24870   0.00000  Uiso   1.00
C7     C     0.14814   0.02124   0.21366   0.00000  Uiso   1.00
C8     C     0.14876   0.31166   0.21307   0.00000  Uiso   1.00
C9     C     0.16673   0.29093   0.24951   0.00000  Uiso   1.00
C10    C     0.31882   0.14052   0.21610   0.00000  Uiso   1.00
C11    C     0.03314   0.14018   0.21653   0.00000  Uiso   1.00
C12    C     0.13953   0.16550   0.49559   0.00000  Uiso   1.00
C13    C     0.01508   0.19260   0.28352   0.00000  Uiso   1.00
C14    C     0.30092   0.19268   0.28417   0.00000  Uiso   1.00
C15    C     0.16668   0.08686   0.24911   0.00000  Uiso   1.00
C16    C     0.19316   0.16591   0.14778   0.00000  Uiso   1.00
C17    C     0.23119   0.10044   0.02343   0.00000  Uiso   1.00
C18    C     0.20883   0.15649   0.08962   0.00000  Uiso   1.00
C19    C     0.08892   0.20441   0.43655   0.00000  Uiso   1.00
C20    C     0.07559   0.21141   0.49346   0.00000  Uiso   1.00
C21    C     0.10110   0.19219   0.02288   0.00000  Uiso   1.00
C22    C     0.14243   0.14962   0.44381   0.00000  Uiso   1.00
C23    C     0.17397   0.15250   0.01829   0.00000  Uiso   1.00
C24    C     0.20075   0.11619   0.49756   0.00000  Uiso   1.00
C25    C     0.19600   0.09566   0.45208   0.00000  Uiso   1.00
C26    C     0.16705   0.11179   0.42511   0.00000  Uiso   1.00
C27    C     0.18502   0.17592   0.05848   0.00000  Uiso   1.00
C28    C     0.23332   0.11944   0.07102   0.00000  Uiso   1.00
Cl29   Cl    0.12689   0.28564   0.16603   0.00000  Uiso   1.00
Cl30   Cl    0.30251   0.10706   0.17119   0.00000  Uiso   1.00
Cl31   Cl    0.07378   0.10505   0.17339   0.00000  Uiso   1.00
Cl32   Cl    0.06686   0.23717   0.39624   0.00000  Uiso   1.00
Cl33   Cl    0.07712   0.19559   0.09520   0.00000  Uiso   1.00
Cl34   Cl    0.19583   0.29008   0.34112   0.00000  Uiso   1.00
H35    H     0.25142   0.10387   0.09498   0.00000  Uiso   1.00
H36    H     0.12797   0.09246   0.38336   0.00000  Uiso   1.00
H37    H     0.20019   0.03980   0.31036   0.00000  Uiso   1.00
H38    H     0.13443   0.03767   0.18598   0.00000  Uiso   1.00
H39    H     0.02585   0.21347   0.31031   0.00000  Uiso   1.00
H40    H     0.21477   0.06691   0.43734   0.00000  Uiso   1.00
H41    H     0.25066   0.07198   0.00907   0.00000  Uiso   1.00
H42    H     0.24045   0.21825   0.31543   0.00000  Uiso   1.00
H43    H     0.19096   0.23065   0.08863   0.00000  Uiso   1.00
H44    H     0.01906   0.24338   0.49882   0.00000  Uiso   1.00
N45    N     0.04760   0.16668   0.25002   0.00000  Uiso   1.00
N46    N     0.28573   0.16665   0.25001   0.00000  Uiso   1.00
O47    O     0.12846   0.22775   0.25001   0.00000  Uiso   1.00
O48    O     0.17395   0.21773   0.06550   0.00000  Uiso   1.00
O49    O     0.03907   0.23772   0.02148   0.00000  Uiso   1.00
O50    O     0.16067   0.08803   0.38363   0.00000  Uiso   1.00
O51    O     0.20490   0.22774   0.25001   0.00000  Uiso   1.00
O52    O     0.10947   0.16666   0.32681   0.00000  Uiso   1.00
O53    O     0.18591   0.16665   0.32681   0.00000  Uiso   1.00
O54    O     0.12843   0.10559   0.25000   0.00000  Uiso   1.00
O55    O     0.20488   0.10558   0.25000   0.00000  Uiso   1.00
O56    O     0.14742   0.16668   0.17319   0.00000  Uiso   1.00
O57    O     0.22387   0.16667   0.17319   0.00000  Uiso   1.00
O58    O     0.27125   0.21975   0.32061   0.00000  Uiso   1.00
Zn59   Zn    0.11562   0.16667   0.25000   0.00000  Uiso   1.00
Zn60   Zn    0.21771   0.16666   0.25000   0.00000  Uiso   1.00
C61    C     0.50016   0.24660   0.24999   0.00000  Uiso   1.00
C62    C     0.45512   0.17270   0.41195   0.00000  Uiso   1.00
C63    C     0.51656   0.31324   0.28649   0.00000  Uiso   1.00
C64    C     0.47335   0.16837   0.35224   0.00000  Uiso   1.00
C65    C     0.51875   0.02255   0.28374   0.00000  Uiso   1.00
C66    C     0.50003   0.04286   0.24870   0.00000  Uiso   1.00
C67    C     0.48147   0.02124   0.21366   0.00000  Uiso   1.00
C68    C     0.48209   0.31166   0.21307   0.00000  Uiso   1.00
C69    C     0.50007   0.29093   0.24951   0.00000  Uiso   1.00
C70    C     0.65216   0.14052   0.21610   0.00000  Uiso   1.00
C71    C     0.36648   0.14018   0.21653   0.00000  Uiso   1.00
C72    C     0.47286   0.16550   0.49559   0.00000  Uiso   1.00
C73    C     0.34841   0.19260   0.28352   0.00000  Uiso   1.00
C74    C     0.63426   0.19268   0.28417   0.00000  Uiso   1.00
C75    C     0.50002   0.08686   0.24911   0.00000  Uiso   1.00
C76    C     0.52650   0.16591   0.14778   0.00000  Uiso   1.00
C77    C     0.56452   0.10044   0.02343   0.00000  Uiso   1.00
C78    C     0.54217   0.15649   0.08962   0.00000  Uiso   1.00
C79    C     0.42225   0.20441   0.43655   0.00000  Uiso   1.00
C80    C     0.40892   0.21141   0.49346   0.00000  Uiso   1.00
C81    C     0.43444   0.19219   0.02288   0.00000  Uiso   1.00
C82    C     0.47577   0.14962   0.44381   0.00000  Uiso   1.00
C83    C     0.50730   0.15250   0.01829   0.00000  Uiso   1.00
C84    C     0.53409   0.11619   0.49756   0.00000  Uiso   1.00
C85    C     0.52934   0.09566   0.45208   0.00000  Uiso   1.00
C86    C     0.50038   0.11179   0.42511   0.00000  Uiso   1.00
C87    C     0.51836   0.17592   0.05848   0.00000  Uiso   1.00
C88    C     0.56665   0.11944   0.07102   0.00000  Uiso   1.00
Cl89   Cl    0.46023   0.28564   0.16603   0.00000  Uiso   1.00
Cl90   Cl    0.63584   0.10706   0.17119   0.00000  Uiso   1.00
Cl91   Cl    0.40712   0.10505   0.17339   0.00000  Uiso   1.00
Cl92   Cl    0.40020   0.23717   0.39624   0.00000  Uiso   1.00
Cl93   Cl    0.41046   0.19559   0.09520   0.00000  Uiso   1.00
Cl94   Cl    0.52916   0.29008   0.34112   0.00000  Uiso   1.00
H95    H     0.58475   0.10387   0.09498   0.00000  Uiso   1.00
H96    H     0.46130   0.09246   0.38336   0.00000  Uiso   1.00
H97    H     0.53352   0.03980   0.31036   0.00000  Uiso   1.00
H98    H     0.46777   0.03767   0.18598   0.00000  Uiso   1.00
H99    H     0.35918   0.21347   0.31031   0.00000  Uiso   1.00
H100   H     0.54811   0.06691   0.43734   0.00000  Uiso   1.00
H101   H     0.58399   0.07198   0.00907   0.00000  Uiso   1.00
H102   H     0.57378   0.21825   0.31543   0.00000  Uiso   1.00
H103   H     0.52429   0.23065   0.08863   0.00000  Uiso   1.00
H104   H     0.35239   0.24338   0.49882   0.00000  Uiso   1.00
N105   N     0.38093   0.16668   0.25002   0.00000  Uiso   1.00
N106   N     0.61906   0.16665   0.25001   0.00000  Uiso   1.00
O107   O     0.46179   0.22775   0.25001   0.00000  Uiso   1.00
O108   O     0.50728   0.21773   0.06550   0.00000  Uiso   1.00
O109   O     0.37240   0.23772   0.02148   0.00000  Uiso   1.00
O110   O     0.49401   0.08803   0.38363   0.00000  Uiso   1.00
O111   O     0.53823   0.22774   0.25001   0.00000  Uiso   1.00
O112   O     0.44280   0.16666   0.32681   0.00000  Uiso   1.00
O113   O     0.51924   0.16665   0.32681   0.00000  Uiso   1.00
O114   O     0.46177   0.10559   0.25000   0.00000  Uiso   1.00
O115   O     0.53821   0.10558   0.25000   0.00000  Uiso   1.00
O116   O     0.48076   0.16668   0.17319   0.00000  Uiso   1.00
O117   O     0.55720   0.16667   0.17319   0.00000  Uiso   1.00
O118   O     0.60459   0.21975   0.32061   0.00000  Uiso   1.00
Zn119  Zn    0.44896   0.16667   0.25000   0.00000  Uiso   1.00
Zn120  Zn    0.55104   0.16666   0.25000   0.00000  Uiso   1.00
C121   C     0.83349   0.24660   0.24999   0.00000  Uiso   1.00
C122   C     0.78846   0.17270   0.41195   0.00000  Uiso   1.00
C123   C     0.84990   0.31324   0.28649   0.00000  Uiso   1.00
C124   C     0.80668   0.16837   0.35224   0.00000  Uiso   1.00
C125   C     0.85208   0.02255   0.28374   0.00000  Uiso   1.00
C126   C     0.83336   0.04286   0.24870   0.00000  Uiso   1.00
C127   C     0.81480   0.02124   0.21366   0.00000  Uiso   1.00
C128   C     0.81543   0.31166   0.21307   0.00000  Uiso   1.00
C129   C     0.83340   0.29093   0.24951   0.00000  Uiso   1.00
C130   C     0.98549   0.14052   0.21610   0.00000  Uiso   1.00
C131   C     0.69981   0.14018   0.21653   0.00000  Uiso   1.00
C132   C     0.80620   0.16550   0.49559   0.00000  Uiso   1.00
C133   C     0.68175   0.19260   0.28352   0.00000  Uiso   1.00
C134   C     0.96759   0.19268   0.28417   0.00000  Uiso   1.00
C135   C     0.83335   0.08686   0.24911   0.00000  Uiso   1.00
C136   C     0.85983   0.16591   0.14778   0.00000  Uiso   1.00
C137   C     0.89786   0.10044   0.02343   0.00000  Uiso   1.00
C138   C     0.87550   0.15649   0.08962   0.00000  Uiso   1.00
C139   C     0.75558   0.20441   0.43655   0.00000  Uiso   1.00
C140   C     0.74225   0.21141   0.49346   0.00000  Uiso   1.00
C141   C     0.76777   0.19219   0.02288   0.00000  Uiso   1.00
C142   C     0.80910   0.14962   0.44381   0.00000  Uiso   1.00
C143   C     0.84063   0.15250   0.01829   0.00000  Uiso   1.00
C144   C     0.86742   0.11619   0.49756   0.00000  Uiso   1.00
C145   C     0.86267   0.09566   0.45208   0.00000  Uiso   1.00
C146   C     0.83371   0.11179   0.42511   0.00000  Uiso   1.00
C147   C     0.85169   0.17592   0.05848   0.00000  Uiso   1.00
C148   C     0.89998   0.11944   0.07102   0.00000  Uiso   1.00
Cl149  Cl    0.79356   0.28564   0.16603   0.00000  Uiso   1.00
Cl150  Cl    0.96918   0.10706   0.17119   0.00000  Uiso   1.00
Cl151  Cl    0.74045   0.10505   0.17339   0.00000  Uiso   1.00
Cl152  Cl    0.73353   0.23717   0.39624   0.00000  Uiso   1.00
Cl153  Cl    0.74379   0.19559   0.09520   0.00000  Uiso   1.00
Cl154  Cl    0.86250   0.29008   0.34112   0.00000  Uiso   1.00
H155   H     0.91809   0.10387   0.09498   0.00000  Uiso   1.00
H156   H     0.79463   0.09246   0.38336   0.00000  Uiso   1.00
H157   H     0.86686   0.03980   0.31036   0.00000  Uiso   1.00
H158   H     0.80110   0.03767   0.18598   0.00000  Uiso   1.00
H159   H     0.69252   0.21347   0.31031   0.00000  Uiso   1.00
H160   H     0.88144   0.06691   0.43734   0.00000  Uiso   1.00
H161   H     0.91732   0.07198   0.00907   0.00000  Uiso   1.00
H162   H     0.90711   0.21825   0.31543   0.00000  Uiso   1.00
H163   H     0.85763   0.23065   0.08863   0.00000  Uiso   1.00
H164   H     0.68573   0.24338   0.49882   0.00000  Uiso   1.00
N165   N     0.71426   0.16668   0.25002   0.00000  Uiso   1.00
N166   N     0.95239   0.16665   0.25001   0.00000  Uiso   1.00
O167   O     0.79512   0.22775   0.25001   0.00000  Uiso   1.00
O168   O     0.84062   0.21773   0.06550   0.00000  Uiso   1.00
O169   O     0.70574   0.23772   0.02148   0.00000  Uiso   1.00
O170   O     0.82734   0.08803   0.38363   0.00000  Uiso   1.00
O171   O     0.87157   0.22774   0.25001   0.00000  Uiso   1.00
O172   O     0.77613   0.16666   0.32681   0.00000  Uiso   1.00
O173   O     0.85258   0.16665   0.32681   0.00000  Uiso   1.00
O174   O     0.79510   0.10559   0.25000   0.00000  Uiso   1.00
O175   O     0.87154   0.10558   0.25000   0.00000  Uiso   1.00
O176   O     0.81409   0.16668   0.17319   0.00000  Uiso   1.00
O177   O     0.89053   0.16667   0.17319   0.00000  Uiso   1.00
O178   O     0.93792   0.21975   0.32061   0.00000  Uiso   1.00
Zn179  Zn    0.78229   0.16667   0.25000   0.00000  Uiso   1.00
Zn180  Zn    0.88438   0.16666   0.25000   0.00000  Uiso   1.00
C181   C     0.16682   0.57994   0.24999   0.00000  Uiso   1.00
C182   C     0.12179   0.50604   0.41195   0.00000  Uiso   1.00
C183   C     0.18323   0.64657   0.28649   0.00000  Uiso   1.00
C184   C     0.14002   0.50170   0.35224   0.00000  Uiso   1.00
C185   C     0.18542   0.35589   0.28374   0.00000  Uiso   1.00
C186   C     0.16669   0.37620   0.24870   0.00000  Uiso   1.00
C187   C     0.14814   0.35457   0.21366   0.00000  Uiso   1.00
C188   C     0.14876   0.64500   0.21307   0.00000  Uiso   1.00
C189   C     0.16673   0.62426   0.24951   0.00000  Uiso   1.00
C190   C     0.31882   0.47385   0.21610   0.00000  Uiso   1.00
C191   C     0.03314   0.47351   0.21653   0.00000  Uiso   1.00
C192   C     0.13953   0.49884   0.49559   0.00000  Uiso   1.00
C193   C     0.01508   0.52593   0.28352   0.00000  Uiso   1.00
C194   C     0.30092   0.52601   0.28417   0.00000  Uiso   1.00
C195   C     0.16668   0.42020   0.24911   0.00000  Uiso   1.00
C196   C     0.19316   0.49924   0.14778   0.00000  Uiso   1.00
C197   C     0.23119   0.43377   0.02343   0.00000  Uiso   1.00
C198   C     0.20883   0.48982   0.08962   0.00000  Uiso   1.00
C199   C     0.08892   0.53774   0.43655   0.00000  Uiso   1.00
C200   C     0.07559   0.54474   0.49346   0.00000  Uiso   1.00
C201   C     0.10110   0.52553   0.02288   0.00000  Uiso   1.00
C202   C     0.14243   0.48295   0.44381   0.00000  Uiso   1.00
C203   C     0.17397   0.48584   0.01829   0.00000  Uiso   1.00
C204   C     0.20075   0.44952   0.49756   0.00000  Uiso   1.00
C205   C     0.19600   0.42899   0.45208   0.00000  Uiso   1.00
C206   C     0.16705   0.44513   0.42511   0.00000  Uiso   1.00
C207   C     0.18502   0.50925   0.05848   0.00000  Uiso   1.00
C208   C     0.23332   0.45278   0.07102   0.00000  Uiso   1.00
Cl209  Cl    0.12689   0.61898   0.16603   0.00000  Uiso   1.00
Cl210  Cl    0.30251   0.44039   0.17119   0.00000  Uiso   1.00
Cl211  Cl    0.07378   0.43838   0.17339   0.00000  Uiso   1.00
Cl212  Cl    0.06686   0.57050   0.39624   0.00000  Uiso   1.00
Cl213  Cl    0.07712   0.52892   0.09520   0.00000  Uiso   1.00
Cl214  Cl    0.19583   0.62342   0.34112   0.00000  Uiso   1.00
H215   H     0.25142   0.43720   0.09498   0.00000  Uiso   1.00
H216   H     0.12797   0.42579   0.38336   0.00000  Uiso   1.00
H217   H     0.20019   0.37314   0.31036   0.00000  Uiso   1.00
H218   H     0.13443   0.37100   0.18598   0.00000  Uiso   1.00
H219   H     0.02585   0.54681   0.31031   0.00000  Uiso   1.00
H220   H     0.21477   0.40024   0.43734   0.00000  Uiso   1.00
H221   H     0.25066   0.40531   0.00907   0.00000  Uiso   1.00
H222   H     0.24045   0.55159   0.31543   0.00000  Uiso   1.00
H223   H     0.19096   0.56399   0.08863   0.00000  Uiso   1.00
H224   H     0.01906   0.57672   0.49882   0.00000  Uiso   1.00
N225   N     0.04760   0.50001   0.25002   0.00000  Uiso   1.00
N226   N     0.28573   0.49998   0.25001   0.00000  Uiso   1.00
O227   O     0.12846   0.56108   0.25001   0.00000  Uiso   1.00
O228   O     0.17395   0.55106   0.06550   0.00000  Uiso   1.00
O229   O     0.03907   0.57105   0.02148   0.00000  Uiso   1.00
O230   O     0.16067   0.42136   0.38363   0.00000  Uiso   1.00
O231   O     0.20490   0.56107   0.25001   0.00000  Uiso   1.00
O232   O     0.10947   0.50000   0.32681   0.00000  Uiso   1.00
O233   O     0.18591   0.49999   0.32681   0.00000  Uiso   1.00
O234   O     0.12843   0.43893   0.25000   0.00000  Uiso   1.00
O235   O     0.20488   0.43892   0.25000   0.00000  Uiso   1.00
O236   O     0.14742   0.50001   0.17319   0.00000  Uiso   1.00
O237   O     0.22387   0.50000   0.17319   0.00000  Uiso   1.00
O238   O     0.27125   0.55308   0.32061   0.00000  Uiso   1.00
Zn239  Zn    0.11562   0.50001   0.25000   0.00000  Uiso   1.00
Zn240  Zn    0.21771   0.49999   0.25000   0.00000  Uiso   1.00
C241   C     0.50016   0.57994   0.24999   0.00000  Uiso   1.00
C242   C     0.45512   0.50604   0.41195   0.00000  Uiso   1.00
C243   C     0.51656   0.64657   0.28649   0.00000  Uiso   1.00
C244   C     0.47335   0.50170   0.35224   0.00000  Uiso   1.00
C245   C     0.51875   0.35589   0.28374   0.00000  Uiso   1.00
C246   C     0.50003   0.37620   0.24870   0.00000  Uiso   1.00
C247   C     0.48147   0.35457   0.21366   0.00000  Uiso   1.00
C248   C     0.48209   0.64500   0.21307   0.00000  Uiso   1.00
C249   C     0.50007   0.62426   0.24951   0.00000  Uiso   1.00
C250   C     0.65216   0.47385   0.21610   0.00000  Uiso   1.00
C251   C     0.36648   0.47351   0.21653   0.00000  Uiso   1.00
C252   C     0.47286   0.49884   0.49559   0.00000  Uiso   1.00
C253   C     0.34841   0.52593   0.28352   0.00000  Uiso   1.00
C254   C     0.63426   0.52601   0.28417   0.00000  Uiso   1.00
C255   C     0.50002   0.42020   0.24911   0.00000  Uiso   1.00
C256   C     0.52650   0.49924   0.14778   0.00000  Uiso   1.00
C257   C     0.56452   0.43377   0.02343   0.00000  Uiso   1.00
C258   C     0.54217   0.48982   0.08962   0.00000  Uiso   1.00
C259   C     0.42225   0.53774   0.43655   0.00000  Uiso   1.00
C260   C     0.40892   0.54474   0.49346   0.00000  Uiso   1.00
C261   C     0.43444   0.52553   0.02288   0.00000  Uiso   1.00
C262   C     0.47577   0.48295   0.44381   0.00000  Uiso   1.00
C263   C     0.50730   0.48584   0.01829   0.00000  Uiso   1.00
C264   C     0.53409   0.44952   0.49756   0.00000  Uiso   1.00
C265   C     0.52934   0.42899   0.45208   0.00000  Uiso   1.00
C266   C     0.50038   0.44513   0.42511   0.00000  Uiso   1.00
C267   C     0.51836   0.50925   0.05848   0.00000  Uiso   1.00
C268   C     0.56665   0.45278   0.07102   0.00000  Uiso   1.00
Cl269  Cl    0.46023   0.61898   0.16603   0.00000  Uiso   1.00
Cl270  Cl    0.63584   0.44039   0.17119   0.00000  Uiso   1.00
Cl271  Cl    0.40712   0.43838   0.17339   0.00000  Uiso   1.00
Cl272  Cl    0.40020   0.57050   0.39624   0.00000  Uiso   1.00
Cl273  Cl    0.41046   0.52892   0.09520   0.00000  Uiso   1.00
Cl274  Cl    0.52916   0.62342   0.34112   0.00000  Uiso   1.00
H275   H     0.58475   0.43720   0.09498   0.00000  Uiso   1.00
H276   H     0.46130   0.42579   0.38336   0.00000  Uiso   1.00
H277   H     0.53352   0.37314   0.31036   0.00000  Uiso   1.00
H278   H     0.46777   0.37100   0.18598   0.00000  Uiso   1.00
H279   H     0.35918   0.54681   0.31031   0.00000  Uiso   1.00
H280   H     0.54811   0.40024   0.43734   0.00000  Uiso   1.00
H281   H     0.58399   0.40531   0.00907   0.00000  Uiso   1.00
H282   H     0.57378   0.55159   0.31543   0.00000  Uiso   1.00
H283   H     0.52429   0.56399   0.08863   0.00000  Uiso   1.00
H284   H     0.35239   0.57672   0.49882   0.00000  Uiso   1.00
N285   N     0.38093   0.50001   0.25002   0.00000  Uiso   1.00
N286   N     0.61906   0.49998   0.25001   0.00000  Uiso   1.00
O287   O     0.46179   0.56108   0.25001   0.00000  Uiso   1.00
O288   O     0.50728   0.55106   0.06550   0.00000  Uiso   1.00
O289   O     0.37240   0.57105   0.02148   0.00000  Uiso   1.00
O290   O     0.49401   0.42136   0.38363   0.00000  Uiso   1.00
O291   O     0.53823   0.56107   0.25001   0.00000  Uiso   1.00
O292   O     0.44280   0.50000   0.32681   0.00000  Uiso   1.00
O293   O     0.51924   0.49999   0.32681   0.00000  Uiso   1.00
O294   O     0.46177   0.43893   0.25000   0.00000  Uiso   1.00
O295   O     0.53821   0.43892   0.25000   0.00000  Uiso   1.00
O296   O     0.48076   0.50001   0.17319   0.00000  Uiso   1.00
O297   O     0.55720   0.50000   0.17319   0.00000  Uiso   1.00
O298   O     0.60459   0.55308   0.32061   0.00000  Uiso   1.00
Zn299  Zn    0.44896   0.50001   0.25000   0.00000  Uiso   1.00
Zn300  Zn    0.55104   0.49999   0.25000   0.00000  Uiso   1.00
C301   C     0.83349   0.57994   0.24999   0.00000  Uiso   1.00
C302   C     0.78846   0.50604   0.41195   0.00000  Uiso   1.00
C303   C     0.84990   0.64657   0.28649   0.00000  Uiso   1.00
C304   C     0.80668   0.50170   0.35224   0.00000  Uiso   1.00
C305   C     0.85208   0.35589   0.28374   0.00000  Uiso   1.00
C306   C     0.83336   0.37620   0.24870   0.00000  Uiso   1.00
C307   C     0.81480   0.35457   0.21366   0.00000  Uiso   1.00
C308   C     0.81543   0.64500   0.21307   0.00000  Uiso   1.00
C309   C     0.83340   0.62426   0.24951   0.00000  Uiso   1.00
C310   C     0.98549   0.47385   0.21610   0.00000  Uiso   1.00
C311   C     0.69981   0.47351   0.21653   0.00000  Uiso   1.00
C312   C     0.80620   0.49884   0.49559   0.00000  Uiso   1.00
C313   C     0.68175   0.52593   0.28352   0.00000  Uiso   1.00
C314   C     0.96759   0.52601   0.28417   0.00000  Uiso   1.00
C315   C     0.83335   0.42020   0.24911   0.00000  Uiso   1.00
C316   C     0.85983   0.49924   0.14778   0.00000  Uiso   1.00
C317   C     0.89786   0.43377   0.02343   0.00000  Uiso   1.00
C318   C     0.87550   0.48982   0.08962   0.00000  Uiso   1.00
C319   C     0.75558   0.53774   0.43655   0.00000  Uiso   1.00
C320   C     0.74225   0.54474   0.49346   0.00000  Uiso   1.00
C321   C     0.76777   0.52553   0.02288   0.00000  Uiso   1.00
C322   C     0.80910   0.48295   0.44381   0.00000  Uiso   1.00
C323   C     0.84063   0.48584   0.01829   0.00000  Uiso   1.00
C324   C     0.86742   0.44952   0.49756   0.00000  Uiso   1.00
C325   C     0.86267   0.42899   0.45208   0.00000  Uiso   1.00
C326   C     0.83371   0.44513   0.42511   0.00000  Uiso   1.00
C327   C     0.85169   0.50925   0.05848   0.00000  Uiso   1.00
C328   C     0.89998   0.45278   0.07102   0.00000  Uiso   1.00
Cl329  Cl    0.79356   0.61898   0.16603   0.00000  Uiso   1.00
Cl330  Cl    0.96918   0.44039   0.17119   0.00000  Uiso   1.00
Cl331  Cl    0.74045   0.43838   0.17339   0.00000  Uiso   1.00
Cl332  Cl    0.73353   0.57050   0.39624   0.00000  Uiso   1.00
Cl333  Cl    0.74379   0.52892   0.09520   0.00000  Uiso   1.00
Cl334  Cl    0.86250   0.62342   0.34112   0.00000  Uiso   1.00
H335   H     0.91809   0.43720   0.09498   0.00000  Uiso   1.00
H336   H     0.79463   0.42579   0.38336   0.00000  Uiso   1.00
H337   H     0.86686   0.37314   0.31036   0.00000  Uiso   1.00
H338   H     0.80110   0.37100   0.18598   0.00000  Uiso   1.00
H339   H     0.69252   0.54681   0.31031   0.00000  Uiso   1.00
H340   H     0.88144   0.40024   0.43734   0.00000  Uiso   1.00
H341   H     0.91732   0.40531   0.00907   0.00000  Uiso   1.00
H342   H     0.90711   0.55159   0.31543   0.00000  Uiso   1.00
H343   H     0.85763   0.56399   0.08863   0.00000  Uiso   1.00
H344   H     0.68573   0.57672   0.49882   0.00000  Uiso   1.00
N345   N     0.71426   0.50001   0.25002   0.00000  Uiso   1.00
N346   N     0.95239   0.49998   0.25001   0.00000  Uiso   1.00
O347   O     0.79512   0.56108   0.25001   0.00000  Uiso   1.00
O348   O     0.84062   0.55106   0.06550   0.00000  Uiso   1.00
O349   O     0.70574   0.57105   0.02148   0.00000  Uiso   1.00
O350   O     0.82734   0.42136   0.38363   0.00000  Uiso   1.00
O351   O     0.87157   0.56107   0.25001   0.00000  Uiso   1.00
O352   O     0.77613   0.50000   0.32681   0.00000  Uiso   1.00
O353   O     0.85258   0.49999   0.32681   0.00000  Uiso   1.00
O354   O     0.79510   0.43893   0.25000   0.00000  Uiso   1.00
O355   O     0.87154   0.43892   0.25000   0.00000  Uiso   1.00
O356   O     0.81409   0.50001   0.17319   0.00000  Uiso   1.00
O357   O     0.89053   0.50000   0.17319   0.00000  Uiso   1.00
O358   O     0.93792   0.55308   0.32061   0.00000  Uiso   1.00
Zn359  Zn    0.78229   0.50001   0.25000   0.00000  Uiso   1.00
Zn360  Zn    0.88438   0.49999   0.25000   0.00000  Uiso   1.00
C361   C     0.16682   0.91327   0.24999   0.00000  Uiso   1.00
C362   C     0.12179   0.83937   0.41195   0.00000  Uiso   1.00
C363   C     0.18323   0.97990   0.28649   0.00000  Uiso   1.00
C364   C     0.14002   0.83504   0.35224   0.00000  Uiso   1.00
C365   C     0.18542   0.68922   0.28374   0.00000  Uiso   1.00
C366   C     0.16669   0.70953   0.24870   0.00000  Uiso   1.00
C367   C     0.14814   0.68790   0.21366   0.00000  Uiso   1.00
C368   C     0.14876   0.97833   0.21307   0.00000  Uiso   1.00
C369   C     0.16673   0.95760   0.24951   0.00000  Uiso   1.00
C370   C     0.31882   0.80719   0.21610   0.00000  Uiso   1.00
C371   C     0.03314   0.80684   0.21653   0.00000  Uiso   1.00
C372   C     0.13953   0.83217   0.49559   0.00000  Uiso   1.00
C373   C     0.01508   0.85926   0.28352   0.00000  Uiso   1.00
C374   C     0.30092   0.85935   0.28417   0.00000  Uiso   1.00
C375   C     0.16668   0.75353   0.24911   0.00000  Uiso   1.00
C376   C     0.19316   0.83258   0.14778   0.00000  Uiso   1.00
C377   C     0.23119   0.76711   0.02343   0.00000  Uiso   1.00
C378   C     0.20883   0.82316   0.08962   0.00000  Uiso   1.00
C379   C     0.08892   0.87107   0.43655   0.00000  Uiso   1.00
C380   C     0.07559   0.87807   0.49346   0.00000  Uiso   1.00
C381   C     0.10110   0.85886   0.02288   0.00000  Uiso   1.00
C382   C     0.14243   0.81628   0.44381   0.00000  Uiso   1.00
C383   C     0.17397   0.81917   0.01829   0.00000  Uiso   1.00
C384   C     0.20075   0.78286   0.49756   0.00000  Uiso   1.00
C385   C     0.19600   0.76232   0.45208   0.00000  Uiso   1.00
C386   C     0.16705   0.77846   0.42511   0.00000  Uiso   1.00
C387   C     0.18502   0.84258   0.05848   0.00000  Uiso   1.00
C388   C     0.23332   0.78611   0.07102   0.00000  Uiso   1.00
Cl389  Cl    0.12689   0.95231   0.16603   0.00000  Uiso   1.00
Cl390  Cl    0.30251   0.77373   0.17119   0.00000  Uiso   1.00
Cl391  Cl    0.07378   0.77172   0.17339   0.00000  Uiso   1.00
Cl392  Cl    0.06686   0.90384   0.39624   0.00000  Uiso   1.00
Cl393  Cl    0.07712   0.86226   0.09520   0.00000  Uiso   1.00
Cl394  Cl    0.19583   0.95675   0.34112   0.00000  Uiso   1.00
H395   H     0.25142   0.77054   0.09498   0.00000  Uiso   1.00
H396   H     0.12797   0.75912   0.38336   0.00000  Uiso   1.00
H397   H     0.20019   0.70647   0.31036   0.00000  Uiso   1.00
H398   H     0.13443   0.70434   0.18598   0.00000  Uiso   1.00
H399   H     0.02585   0.88014   0.31031   0.00000  Uiso   1.00
H400   H     0.21477   0.73357   0.43734   0.00000  Uiso   1.00
H401   H     0.25066   0.73865   0.00907   0.00000  Uiso   1.00
H402   H     0.24045   0.88492   0.31543   0.00000  Uiso   1.00
H403   H     0.19096   0.89732   0.08863   0.00000  Uiso   1.00
H404   H     0.01906   0.91005   0.49882   0.00000  Uiso   1.00
N405   N     0.04760   0.83334   0.25002   0.00000  Uiso   1.00
N406   N     0.28573   0.83331   0.25001   0.00000  Uiso   1.00
O407   O     0.12846   0.89442   0.25001   0.00000  Uiso   1.00
O408   O     0.17395   0.88440   0.06550   0.00000  Uiso   1.00
O409   O     0.03907   0.90438   0.02148   0.00000  Uiso   1.00
O410   O     0.16067   0.75469   0.38363   0.00000  Uiso   1.00
O411   O     0.20490   0.89441   0.25001   0.00000  Uiso   1.00
O412   O     0.10947   0.83333   0.32681   0.00000  Uiso   1.00
O413   O     0.18591   0.83332   0.32681   0.00000  Uiso   1.00
O414   O     0.12843   0.77226   0.25000   0.00000  Uiso   1.00
O415   O     0.20488   0.77225   0.25000   0.00000  Uiso   1.00
O416   O     0.14742   0.83335   0.17319   0.00000  Uiso   1.00
O417   O     0.22387   0.83334   0.17319   0.00000  Uiso   1.00
O418   O     0.27125   0.88641   0.32061   0.00000  Uiso   1.00
Zn419  Zn    0.11562   0.83334   0.25000   0.00000  Uiso   1.00
Zn420  Zn    0.21771   0.83333   0.25000   0.00000  Uiso   1.00
C421   C     0.50016   0.91327   0.24999   0.00000  Uiso   1.00
C422   C     0.45512   0.83937   0.41195   0.00000  Uiso   1.00
C423   C     0.51656   0.97990   0.28649   0.00000  Uiso   1.00
C424   C     0.47335   0.83504   0.35224   0.00000  Uiso   1.00
C425   C     0.51875   0.68922   0.28374   0.00000  Uiso   1.00
C426   C     0.50003   0.70953   0.24870   0.00000  Uiso   1.00
C427   C     0.48147   0.68790   0.21366   0.00000  Uiso   1.00
C428   C     0.48209   0.97833   0.21307   0.00000  Uiso   1.00
C429   C     0.50007   0.95760   0.24951   0.00000  Uiso   1.00
C430   C     0.65216   0.80719   0.21610   0.00000  Uiso   1.00
C431   C     0.36648   0.80684   0.21653   0.00000  Uiso   1.00
C432   C     0.47286   0.83217   0.49559   0.00000  Uiso   1.00
C433   C     0.34841   0.85926   0.28352   0.00000  Uiso   1.00
C434   C     0.63426   0.85935   0.28417   0.00000  Uiso   1.00
C435   C     0.50002   0.75353   0.24911   0.00000  Uiso   1.00
C436   C     0.52650   0.83258   0.14778   0.00000  Uiso   1.00
C437   C     0.56452   0.76711   0.02343   0.00000  Uiso   1.00
C438   C     0.54217   0.82316   0.08962   0.00000  Uiso   1.00
C439   C     0.42225   0.87107   0.43655   0.00000  Uiso   1.00
C440   C     0.40892   0.87807   0.49346   0.00000  Uiso   1.00
C441   C     0.43444   0.85886   0.02288   0.00000  Uiso   1.00
C442   C     0.47577   0.81628   0.44381   0.00000  Uiso   1.00
C443   C     0.50730   0.81917   0.01829   0.00000  Uiso   1.00
C444   C     0.53409   0.78286   0.49756   0.00000  Uiso   1.00
C445   C     0.52934   0.76232   0.45208   0.00000  Uiso   1.00
C446   C     0.50038   0.77846   0.42511   0.00000  Uiso   1.00
C447   C     0.51836   0.84258   0.05848   0.00000  Uiso   1.00
C448   C     0.56665   0.78611   0.07102   0.00000  Uiso   1.00
Cl449  Cl    0.46023   0.95231   0.16603   0.00000  Uiso   1.00
Cl450  Cl    0.63584   0.77373   0.17119   0.00000  Uiso   1.00
Cl451  Cl    0.40712   0.77172   0.17339   0.00000  Uiso   1.00
Cl452  Cl    0.40020   0.90384   0.39624   0.00000  Uiso   1.00
Cl453  Cl    0.41046   0.86226   0.09520   0.00000  Uiso   1.00
Cl454  Cl    0.52916   0.95675   0.34112   0.00000  Uiso   1.00
H455   H     0.58475   0.77054   0.09498   0.00000  Uiso   1.00
H456   H     0.46130   0.75912   0.38336   0.00000  Uiso   1.00
H457   H     0.53352   0.70647   0.31036   0.00000  Uiso   1.00
H458   H     0.46777   0.70434   0.18598   0.00000  Uiso   1.00
H459   H     0.35918   0.88014   0.31031   0.00000  Uiso   1.00
H460   H     0.54811   0.73357   0.43734   0.00000  Uiso   1.00
H461   H     0.58399   0.73865   0.00907   0.00000  Uiso   1.00
H462   H     0.57378   0.88492   0.31543   0.00000  Uiso   1.00
H463   H     0.52429   0.89732   0.08863   0.00000  Uiso   1.00
H464   H     0.35239   0.91005   0.49882   0.00000  Uiso   1.00
N465   N     0.38093   0.83334   0.25002   0.00000  Uiso   1.00
N466   N     0.61906   0.83331   0.25001   0.00000  Uiso   1.00
O467   O     0.46179   0.89442   0.25001   0.00000  Uiso   1.00
O468   O     0.50728   0.88440   0.06550   0.00000  Uiso   1.00
O469   O     0.37240   0.90438   0.02148   0.00000  Uiso   1.00
O470   O     0.49401   0.75469   0.38363   0.00000  Uiso   1.00
O471   O     0.53823   0.89441   0.25001   0.00000  Uiso   1.00
O472   O     0.44280   0.83333   0.32681   0.00000  Uiso   1.00
O473   O     0.51924   0.83332   0.32681   0.00000  Uiso   1.00
O474   O     0.46177   0.77226   0.25000   0.00000  Uiso   1.00
O475   O     0.53821   0.77225   0.25000   0.00000  Uiso   1.00
O476   O     0.48076   0.83335   0.17319   0.00000  Uiso   1.00
O477   O     0.55720   0.83334   0.17319   0.00000  Uiso   1.00
O478   O     0.60459   0.88641   0.32061   0.00000  Uiso   1.00
Zn479  Zn    0.44896   0.83334   0.25000   0.00000  Uiso   1.00
Zn480  Zn    0.55104   0.83333   0.25000   0.00000  Uiso   1.00
C481   C     0.83349   0.91327   0.24999   0.00000  Uiso   1.00
C482   C     0.78846   0.83937   0.41195   0.00000  Uiso   1.00
C483   C     0.84990   0.97990   0.28649   0.00000  Uiso   1.00
C484   C     0.80668   0.83504   0.35224   0.00000  Uiso   1.00
C485   C     0.85208   0.68922   0.28374   0.00000  Uiso   1.00
C486   C     0.83336   0.70953   0.24870   0.00000  Uiso   1.00
C487   C     0.81480   0.68790   0.21366   0.00000  Uiso   1.00
C488   C     0.81543   0.97833   0.21307   0.00000  Uiso   1.00
C489   C     0.83340   0.95760   0.24951   0.00000  Uiso   1.00
C490   C     0.98549   0.80719   0.21610   0.00000  Uiso   1.00
C491   C     0.69981   0.80684   0.21653   0.00000  Uiso   1.00
C492   C     0.80620   0.83217   0.49559   0.00000  Uiso   1.00
C493   C     0.68175   0.85926   0.28352   0.00000  Uiso   1.00
C494   C     0.96759   0.85935   0.28417   0.00000  Uiso   1.00
C495   C     0.83335   0.75353   0.24911   0.00000  Uiso   1.00
C496   C     0.85983   0.83258   0.14778   0.00000  Uiso   1.00
C497   C     0.89786   0.76711   0.02343   0.00000  Uiso   1.00
C498   C     0.87550   0.82316   0.08962   0.00000  Uiso   1.00
C499   C     0.75558   0.87107   0.43655   0.00000  Uiso   1.00
C500   C     0.74225   0.87807   0.49346   0.00000  Uiso   1.00
C501   C     0.76777   0.85886   0.02288   0.00000  Uiso   1.00
C502   C     0.80910   0.81628   0.44381   0.00000  Uiso   1.00
C503   C     0.84063   0.81917   0.01829   0.00000  Uiso   1.00
C504   C     0.86742   0.78286   0.49756   0.00000  Uiso   1.00
C505   C     0.86267   0.76232   0.45208   0.00000  Uiso   1.00
C506   C     0.83371   0.77846   0.42511   0.00000  Uiso   1.00
C507   C     0.85169   0.84258   0.05848   0.00000  Uiso   1.00
C508   C     0.89998   0.78611   0.07102   0.00000  Uiso   1.00
Cl509  Cl    0.79356   0.95231   0.16603   0.00000  Uiso   1.00
Cl510  Cl    0.96918   0.77373   0.17119   0.00000  Uiso   1.00
Cl511  Cl    0.74045   0.77172   0.17339   0.00000  Uiso   1.00
Cl512  Cl    0.73353   0.90384   0.39624   0.00000  Uiso   1.00
Cl513  Cl    0.74379   0.86226   0.09520   0.00000  Uiso   1.00
Cl514  Cl    0.86250   0.95675   0.34112   0.00000  Uiso   1.00
H515   H     0.91809   0.77054   0.09498   0.00000  Uiso   1.00
H516   H     0.79463   0.75912   0.38336   0.00000  Uiso   1.00
H517   H     0.86686   0.70647   0.31036   0.00000  Uiso   1.00
H518   H     0.80110   0.70434   0.18598   0.00000  Uiso   1.00
H519   H     0.69252   0.88014   0.31031   0.00000  Uiso   1.00
H520   H     0.88144   0.73357   0.43734   0.00000  Uiso   1.00
H521   H     0.91732   0.73865   0.00907   0.00000  Uiso   1.00
H522   H     0.90711   0.88492   0.31543   0.00000  Uiso   1.00
H523   H     0.85763   0.89732   0.08863   0.00000  Uiso   1.00
H524   H     0.68573   0.91005   0.49882   0.00000  Uiso   1.00
N525   N     0.71426   0.83334   0.25002   0.00000  Uiso   1.00
N526   N     0.95239   0.83331   0.25001   0.00000  Uiso   1.00
O527   O     0.79512   0.89442   0.25001   0.00000  Uiso   1.00
O528   O     0.84062   0.88440   0.06550   0.00000  Uiso   1.00
O529   O     0.70574   0.90438   0.02148   0.00000  Uiso   1.00
O530   O     0.82734   0.75469   0.38363   0.00000  Uiso   1.00
O531   O     0.87157   0.89441   0.25001   0.00000  Uiso   1.00
O532   O     0.77613   0.83333   0.32681   0.00000  Uiso   1.00
O533   O     0.85258   0.83332   0.32681   0.00000  Uiso   1.00
O534   O     0.79510   0.77226   0.25000   0.00000  Uiso   1.00
O535   O     0.87154   0.77225   0.25000   0.00000  Uiso   1.00
O536   O     0.81409   0.83335   0.17319   0.00000  Uiso   1.00
O537   O     0.89053   0.83334   0.17319   0.00000  Uiso   1.00
O538   O     0.93792   0.88641   0.32061   0.00000  Uiso   1.00
Zn539  Zn    0.78229   0.83334   0.25000   0.00000  Uiso   1.00
Zn540  Zn    0.88438   0.83333   0.25000   0.00000  Uiso   1.00
C541   C     0.16682   0.24660   0.74999   0.00000  Uiso   1.00
C542   C     0.12179   0.17270   0.91195   0.00000  Uiso   1.00
C543   C     0.18323   0.31324   0.78649   0.00000  Uiso   1.00
C544   C     0.14002   0.16837   0.85224   0.00000  Uiso   1.00
C545   C     0.18542   0.02255   0.78374   0.00000  Uiso   1.00
C546   C     0.16669   0.04286   0.74870   0.00000  Uiso   1.00
C547   C     0.14814   0.02124   0.71366   0.00000  Uiso   1.00
C548   C     0.14876   0.31166   0.71307   0.00000  Uiso   1.00
C549   C     0.16673   0.29093   0.74951   0.00000  Uiso   1.00
C550   C     0.31882   0.14052   0.71610   0.00000  Uiso   1.00
C551   C     0.03314   0.14018   0.71653   0.00000  Uiso   1.00
C552   C     0.13953   0.16550   0.99559   0.00000  Uiso   1.00
C553   C     0.01508   0.19260   0.78352   0.00000  Uiso   1.00
C554   C     0.30092   0.19268   0.78417   0.00000  Uiso   1.00
C555   C     0.16668   0.08686   0.74911   0.00000  Uiso   1.00
C556   C     0.19316   0.16591   0.64778   0.00000  Uiso   1.00
C557   C     0.23119   0.10044   0.52343   0.00000  Uiso   1.00
C558   C     0.20883   0.15649   0.58962   0.00000  Uiso   1.00
C559   C     0.08892   0.20441   0.93655   0.00000  Uiso   1.00
C560   C     0.07559   0.21141   0.99346   0.00000  Uiso   1.00
C561   C     0.10110   0.19219   0.52288   0.00000  Uiso   1.00
C562   C     0.14243   0.14962   0.94381   0.00000  Uiso   1.00
C563   C     0.17397   0.15250   0.51829   0.00000  Uiso   1.00
C564   C     0.20075   0.11619   0.99756   0.00000  Uiso   1.00
C565   C     0.19600   0.09566   0.95208   0.00000  Uiso   1.00
C566   C     0.16705   0.11179   0.92511   0.00000  Uiso   1.00
C567   C     0.18502   0.17592   0.55848   0.00000  Uiso   1.00
C568   C     0.23332   0.11944   0.57102   0.00000  Uiso   1.00
Cl569  Cl    0.12689   0.28564   0.66603   0.00000  Uiso   1.00
Cl570  Cl    0.30251   0.10706   0.67119   0.00000  Uiso   1.00
Cl571  Cl    0.07378   0.10505   0.67339   0.00000  Uiso   1.00
Cl572  Cl    0.06686   0.23717   0.89624   0.00000  Uiso   1.00
Cl573  Cl    0.07712   0.19559   0.59520   0.00000  Uiso   1.00
Cl574  Cl    0.19583   0.29008   0.84112   0.00000  Uiso   1.00
H575   H     0.25142   0.10387   0.59498   0.00000  Uiso   1.00
H576   H     0.12797   0.09246   0.88336   0.00000  Uiso   1.00
H577   H     0.20019   0.03980   0.81036   0.00000  Uiso   1.00
H578   H     0.13443   0.03767   0.68598   0.00000  Uiso   1.00
H579   H     0.02585   0.21347   0.81031   0.00000  Uiso   1.00
H580   H     0.21477   0.06691   0.93734   0.00000  Uiso   1.00
H581   H     0.25066   0.07198   0.50907   0.00000  Uiso   1.00
H582   H     0.24045   0.21825   0.81543   0.00000  Uiso   1.00
H583   H     0.19096   0.23065   0.58863   0.00000  Uiso   1.00
H584   H     0.01906   0.24338   0.99882   0.00000  Uiso   1.00
N585   N     0.04760   0.16668   0.75002   0.00000  Uiso   1.00
N586   N     0.28573   0.16665   0.75001   0.00000  Uiso   1.00
O587   O     0.12846   0.22775   0.75001   0.00000  Uiso   1.00
O588   O     0.17395   0.21773   0.56550   0.00000  Uiso   1.00
O589   O     0.03907   0.23772   0.52148   0.00000  Uiso   1.00
O590   O     0.16067   0.08803   0.88363   0.00000  Uiso   1.00
O591   O     0.20490   0.22774   0.75001   0.00000  Uiso   1.00
O592   O     0.10947   0.16666   0.82681   0.00000  Uiso   1.00
O593   O     0.18591   0.16665   0.82681   0.00000  Uiso   1.00
O594   O     0.12843   0.10559   0.75000   0.00000  Uiso   1.00
O595   O     0.20488   0.10558   0.75000   0.00000  Uiso   1.00
O596   O     0.14742   0.16668   0.67319   0.00000  Uiso   1.00
O597   O     0.22387   0.16667   0.67319   0.00000  Uiso   1.00
O598   O     0.27125   0.21975   0.82061   0.00000  Uiso   1.00
Zn599  Zn    0.11562   0.16667   0.75000   0.00000  Uiso   1.00
Zn600  Zn    0.21771   0.16666   0.75000   0.00000  Uiso   1.00
C601   C     0.50016   0.24660   0.74999   0.00000  Uiso   1.00
C602   C     0.45512   0.17270   0.91195   0.00000  Uiso   1.00
C603   C     0.51656   0.31324   0.78649   0.00000  Uiso   1.00
C604   C     0.47335   0.16837   0.85224   0.00000  Uiso   1.00
C605   C     0.51875   0.02255   0.78374   0.00000  Uiso   1.00
C606   C     0.50003   0.04286   0.74870   0.00000  Uiso   1.00
C607   C     0.48147   0.02124   0.71366   0.00000  Uiso   1.00
C608   C     0.48209   0.31166   0.71307   0.00000  Uiso   1.00
C609   C     0.50007   0.29093   0.74951   0.00000  Uiso   1.00
C610   C     0.65216   0.14052   0.71610   0.00000  Uiso   1.00
C611   C     0.36648   0.14018   0.71653   0.00000  Uiso   1.00
C612   C     0.47286   0.16550   0.99559   0.00000  Uiso   1.00
C613   C     0.34841   0.19260   0.78352   0.00000  Uiso   1.00
C614   C     0.63426   0.19268   0.78417   0.00000  Uiso   1.00
C615   C     0.50002   0.08686   0.74911   0.00000  Uiso   1.00
C616   C     0.52650   0.16591   0.64778   0.00000  Uiso   1.00
C617   C     0.56452   0.10044   0.52343   0.00000  Uiso   1.00
C618   C     0.54217   0.15649   0.58962   0.00000  Uiso   1.00
C619   C     0.42225   0.20441   0.93655   0.00000  Uiso   1.00
C620   C     0.40892   0.21141   0.99346   0.00000  Uiso   1.00
C621   C     0.43444   0.19219   0.52288   0.00000  Uiso   1.00
C622   C     0.47577   0.14962   0.94381   0.00000  Uiso   1.00
C623   C     0.50730   0.15250   0.51829   0.00000  Uiso   1.00
C624   C     0.53409   0.11619   0.99756   0.00000  Uiso   1.00
C625   C     0.52934   0.09566   0.95208   0.00000  Uiso   1.00
C626   C     0.50038   0.11179   0.92511   0.00000  Uiso   1.00
C627   C     0.51836   0.17592   0.55848   0.00000  Uiso   1.00
C628   C     0.56665   0.11944   0.57102   0.00000  Uiso   1.00
Cl629  Cl    0.46023   0.28564   0.66603   0.00000  Uiso   1.00
Cl630  Cl    0.63584   0.10706   0.67119   0.00000  Uiso   1.00
Cl631  Cl    0.40712   0.10505   0.67339   0.00000  Uiso   1.00
Cl632  Cl    0.40020   0.23717   0.89624   0.00000  Uiso   1.00
Cl633  Cl    0.41046   0.19559   0.59520   0.00000  Uiso   1.00
Cl634  Cl    0.52916   0.29008   0.84112   0.00000  Uiso   1.00
H635   H     0.58475   0.10387   0.59498   0.00000  Uiso   1.00
H636   H     0.46130   0.09246   0.88336   0.00000  Uiso   1.00
H637   H     0.53352   0.03980   0.81036   0.00000  Uiso   1.00
H638   H     0.46777   0.03767   0.68598   0.00000  Uiso   1.00
H639   H     0.35918   0.21347   0.81031   0.00000  Uiso   1.00
H640   H     0.54811   0.06691   0.93734   0.00000  Uiso   1.00
H641   H     0.58399   0.07198   0.50907   0.00000  Uiso   1.00
H642   H     0.57378   0.21825   0.81543   0.00000  Uiso   1.00
H643   H     0.52429   0.23065   0.58863   0.00000  Uiso   1.00
H644   H     0.35239   0.24338   0.99882   0.00000  Uiso   1.00
N645   N     0.38093   0.16668   0.75002   0.00000  Uiso   1.00
N646   N     0.61906   0.16665   0.75001   0.00000  Uiso   1.00
O647   O     0.46179   0.22775   0.75001   0.00000  Uiso   1.00
O648   O     0.50728   0.21773   0.56550   0.00000  Uiso   1.00
O649   O     0.37240   0.23772   0.52148   0.00000  Uiso   1.00
O650   O     0.49401   0.08803   0.88363   0.00000  Uiso   1.00
O651   O     0.53823   0.22774   0.75001   0.00000  Uiso   1.00
O652   O     0.44280   0.16666   0.82681   0.00000  Uiso   1.00
O653   O     0.51924   0.16665   0.82681   0.00000  Uiso   1.00
O654   O     0.46177   0.10559   0.75000   0.00000  Uiso   1.00
O655   O     0.53821   0.10558   0.75000   0.00000  Uiso   1.00
O656   O     0.48076   0.16668   0.67319   0.00000  Uiso   1.00
O657   O     0.55720   0.16667   0.67319   0.00000  Uiso   1.00
O658   O     0.60459   0.21975   0.82061   0.00000  Uiso   1.00
Zn659  Zn    0.44896   0.16667   0.75000   0.00000  Uiso   1.00
Zn660  Zn    0.55104   0.16666   0.75000   0.00000  Uiso   1.00
C661   C     0.83349   0.24660   0.74999   0.00000  Uiso   1.00
C662   C     0.78846   0.17270   0.91195   0.00000  Uiso   1.00
C663   C     0.84990   0.31324   0.78649   0.00000  Uiso   1.00
C664   C     0.80668   0.16837   0.85224   0.00000  Uiso   1.00
C665   C     0.85208   0.02255   0.78374   0.00000  Uiso   1.00
C666   C     0.83336   0.04286   0.74870   0.00000  Uiso   1.00
C667   C     0.81480   0.02124   0.71366   0.00000  Uiso   1.00
C668   C     0.81543   0.31166   0.71307   0.00000  Uiso   1.00
C669   C     0.83340   0.29093   0.74951   0.00000  Uiso   1.00
C670   C     0.98549   0.14052   0.71610   0.00000  Uiso   1.00
C671   C     0.69981   0.14018   0.71653   0.00000  Uiso   1.00
C672   C     0.80620   0.16550   0.99559   0.00000  Uiso   1.00
C673   C     0.68175   0.19260   0.78352   0.00000  Uiso   1.00
C674   C     0.96759   0.19268   0.78417   0.00000  Uiso   1.00
C675   C     0.83335   0.08686   0.74911   0.00000  Uiso   1.00
C676   C     0.85983   0.16591   0.64778   0.00000  Uiso   1.00
C677   C     0.89786   0.10044   0.52343   0.00000  Uiso   1.00
C678   C     0.87550   0.15649   0.58962   0.00000  Uiso   1.00
C679   C     0.75558   0.20441   0.93655   0.00000  Uiso   1.00
C680   C     0.74225   0.21141   0.99346   0.00000  Uiso   1.00
C681   C     0.76777   0.19219   0.52288   0.00000  Uiso   1.00
C682   C     0.80910   0.14962   0.94381   0.00000  Uiso   1.00
C683   C     0.84063   0.15250   0.51829   0.00000  Uiso   1.00
C684   C     0.86742   0.11619   0.99756   0.00000  Uiso   1.00
C685   C     0.86267   0.09566   0.95208   0.00000  Uiso   1.00
C686   C     0.83371   0.11179   0.92511   0.00000  Uiso   1.00
C687   C     0.85169   0.17592   0.55848   0.00000  Uiso   1.00
C688   C     0.89998   0.11944   0.57102   0.00000  Uiso   1.00
Cl689  Cl    0.79356   0.28564   0.66603   0.00000  Uiso   1.00
Cl690  Cl    0.96918   0.10706   0.67119   0.00000  Uiso   1.00
Cl691  Cl    0.74045   0.10505   0.67339   0.00000  Uiso   1.00
Cl692  Cl    0.73353   0.23717   0.89624   0.00000  Uiso   1.00
Cl693  Cl    0.74379   0.19559   0.59520   0.00000  Uiso   1.00
Cl694  Cl    0.86250   0.29008   0.84112   0.00000  Uiso   1.00
H695   H     0.91809   0.10387   0.59498   0.00000  Uiso   1.00
H696   H     0.79463   0.09246   0.88336   0.00000  Uiso   1.00
H697   H     0.86686   0.03980   0.81036   0.00000  Uiso   1.00
H698   H     0.80110   0.03767   0.68598   0.00000  Uiso   1.00
H699   H     0.69252   0.21347   0.81031   0.00000  Uiso   1.00
H700   H     0.88144   0.06691   0.93734   0.00000  Uiso   1.00
H701   H     0.91732   0.07198   0.50907   0.00000  Uiso   1.00
H702   H     0.90711   0.21825   0.81543   0.00000  Uiso   1.00
H703   H     0.85763   0.23065   0.58863   0.00000  Uiso   1.00
H704   H     0.68573   0.24338   0.99882   0.00000  Uiso   1.00
N705   N     0.71426   0.16668   0.75002   0.00000  Uiso   1.00
N706   N     0.95239   0.16665   0.75001   0.00000  Uiso   1.00
O707   O     0.79512   0.22775   0.75001   0.00000  Uiso   1.00
O708   O     0.84062   0.21773   0.56550   0.00000  Uiso   1.00
O709   O     0.70574   0.23772   0.52148   0.00000  Uiso   1.00
O710   O     0.82734   0.08803   0.88363   0.00000  Uiso   1.00
O711   O     0.87157   0.22774   0.75001   0.00000  Uiso   1.00
O712   O     0.77613   0.16666   0.82681   0.00000  Uiso   1.00
O713   O     0.85258   0.16665   0.82681   0.00000  Uiso   1.00
O714   O     0.79510   0.10559   0.75000   0.00000  Uiso   1.00
O715   O     0.87154   0.10558   0.75000   0.00000  Uiso   1.00
O716   O     0.81409   0.16668   0.67319   0.00000  Uiso   1.00
O717   O     0.89053   0.16667   0.67319   0.00000  Uiso   1.00
O718   O     0.93792   0.21975   0.82061   0.00000  Uiso   1.00
Zn719  Zn    0.78229   0.16667   0.75000   0.00000  Uiso   1.00
Zn720  Zn    0.88438   0.16666   0.75000   0.00000  Uiso   1.00
C721   C     0.16682   0.57994   0.74999   0.00000  Uiso   1.00
C722   C     0.12179   0.50604   0.91195   0.00000  Uiso   1.00
C723   C     0.18323   0.64657   0.78649   0.00000  Uiso   1.00
C724   C     0.14002   0.50170   0.85224   0.00000  Uiso   1.00
C725   C     0.18542   0.35589   0.78374   0.00000  Uiso   1.00
C726   C     0.16669   0.37620   0.74870   0.00000  Uiso   1.00
C727   C     0.14814   0.35457   0.71366   0.00000  Uiso   1.00
C728   C     0.14876   0.64500   0.71307   0.00000  Uiso   1.00
C729   C     0.16673   0.62426   0.74951   0.00000  Uiso   1.00
C730   C     0.31882   0.47385   0.71610   0.00000  Uiso   1.00
C731   C     0.03314   0.47351   0.71653   0.00000  Uiso   1.00
C732   C     0.13953   0.49884   0.99559   0.00000  Uiso   1.00
C733   C     0.01508   0.52593   0.78352   0.00000  Uiso   1.00
C734   C     0.30092   0.52601   0.78417   0.00000  Uiso   1.00
C735   C     0.16668   0.42020   0.74911   0.00000  Uiso   1.00
C736   C     0.19316   0.49924   0.64778   0.00000  Uiso   1.00
C737   C     0.23119   0.43377   0.52343   0.00000  Uiso   1.00
C738   C     0.20883   0.48982   0.58962   0.00000  Uiso   1.00
C739   C     0.08892   0.53774   0.93655   0.00000  Uiso   1.00
C740   C     0.07559   0.54474   0.99346   0.00000  Uiso   1.00
C741   C     0.10110   0.52553   0.52288   0.00000  Uiso   1.00
C742   C     0.14243   0.48295   0.94381   0.00000  Uiso   1.00
C743   C     0.17397   0.48584   0.51829   0.00000  Uiso   1.00
C744   C     0.20075   0.44952   0.99756   0.00000  Uiso   1.00
C745   C     0.19600   0.42899   0.95208   0.00000  Uiso   1.00
C746   C     0.16705   0.44513   0.92511   0.00000  Uiso   1.00
C747   C     0.18502   0.50925   0.55848   0.00000  Uiso   1.00
C748   C     0.23332   0.45278   0.57102   0.00000  Uiso   1.00
Cl749  Cl    0.12689   0.61898   0.66603   0.00000  Uiso   1.00
Cl750  Cl    0.30251   0.44039   0.67119   0.00000  Uiso   1.00
Cl751  Cl    0.07378   0.43838   0.67339   0.00000  Uiso   1.00
Cl752  Cl    0.06686   0.57050   0.89624   0.00000  Uiso   1.00
Cl753  Cl    0.07712   0.52892   0.59520   0.00000  Uiso   1.00
Cl754  Cl    0.19583   0.62342   0.84112   0.00000  Uiso   1.00
H755   H     0.25142   0.43720   0.59498   0.00000  Uiso   1.00
H756   H     0.12797   0.42579   0.88336   0.00000  Uiso   1.00
H757   H     0.20019   0.37314   0.81036   0.00000  Uiso   1.00
H758   H     0.13443   0.37100   0.68598   0.00000  Uiso   1.00
H759   H     0.02585   0.54681   0.81031   0.00000  Uiso   1.00
H760   H     0.21477   0.40024   0.93734   0.00000  Uiso   1.00
H761   H     0.25066   0.40531   0.50907   0.00000  Uiso   1.00
H762   H     0.24045   0.55159   0.81543   0.00000  Uiso   1.00
H763   H     0.19096   0.56399   0.58863   0.00000  Uiso   1.00
H764   H     0.01906   0.57672   0.99882   0.00000  Uiso   1.00
N765   N     0.04760   0.50001   0.75002   0.00000  Uiso   1.00
N766   N     0.28573   0.49998   0.75001   0.00000  Uiso   1.00
O767   O     0.12846   0.56108   0.75001   0.00000  Uiso   1.00
O768   O     0.17395   0.55106   0.56550   0.00000  Uiso   1.00
O769   O     0.03907   0.57105   0.52148   0.00000  Uiso   1.00
O770   O     0.16067   0.42136   0.88363   0.00000  Uiso   1.00
O771   O     0.20490   0.56107   0.75001   0.00000  Uiso   1.00
O772   O     0.10947   0.50000   0.82681   0.00000  Uiso   1.00
O773   O     0.18591   0.49999   0.82681   0.00000  Uiso   1.00
O774   O     0.12843   0.43893   0.75000   0.00000  Uiso   1.00
O775   O     0.20488   0.43892   0.75000   0.00000  Uiso   1.00
O776   O     0.14742   0.50001   0.67319   0.00000  Uiso   1.00
O777   O     0.22387   0.50000   0.67319   0.00000  Uiso   1.00
O778   O     0.27125   0.55308   0.82061   0.00000  Uiso   1.00
Zn779  Zn    0.11562   0.50001   0.75000   0.00000  Uiso   1.00
Zn780  Zn    0.21771   0.49999   0.75000   0.00000  Uiso   1.00
C781   C     0.50016   0.57994   0.74999   0.00000  Uiso   1.00
C782   C     0.45512   0.50604   0.91195   0.00000  Uiso   1.00
C783   C     0.51656   0.64657   0.78649   0.00000  Uiso   1.00
C784   C     0.47335   0.50170   0.85224   0.00000  Uiso   1.00
C785   C     0.51875   0.35589   0.78374   0.00000  Uiso   1.00
C786   C     0.50003   0.37620   0.74870   0.00000  Uiso   1.00
C787   C     0.48147   0.35457   0.71366   0.00000  Uiso   1.00
C788   C     0.48209   0.64500   0.71307   0.00000  Uiso   1.00
C789   C     0.50007   0.62426   0.74951   0.00000  Uiso   1.00
C790   C     0.65216   0.47385   0.71610   0.00000  Uiso   1.00
C791   C     0.36648   0.47351   0.71653   0.00000  Uiso   1.00
C792   C     0.47286   0.49884   0.99559   0.00000  Uiso   1.00
C793   C     0.34841   0.52593   0.78352   0.00000  Uiso   1.00
C794   C     0.63426   0.52601   0.78417   0.00000  Uiso   1.00
C795   C     0.50002   0.42020   0.74911   0.00000  Uiso   1.00
C796   C     0.52650   0.49924   0.64778   0.00000  Uiso   1.00
C797   C     0.56452   0.43377   0.52343   0.00000  Uiso   1.00
C798   C     0.54217   0.48982   0.58962   0.00000  Uiso   1.00
C799   C     0.42225   0.53774   0.93655   0.00000  Uiso   1.00
C800   C     0.40892   0.54474   0.99346   0.00000  Uiso   1.00
C801   C     0.43444   0.52553   0.52288   0.00000  Uiso   1.00
C802   C     0.47577   0.48295   0.94381   0.00000  Uiso   1.00
C803   C     0.50730   0.48584   0.51829   0.00000  Uiso   1.00
C804   C     0.53409   0.44952   0.99756   0.00000  Uiso   1.00
C805   C     0.52934   0.42899   0.95208   0.00000  Uiso   1.00
C806   C     0.50038   0.44513   0.92511   0.00000  Uiso   1.00
C807   C     0.51836   0.50925   0.55848   0.00000  Uiso   1.00
C808   C     0.56665   0.45278   0.57102   0.00000  Uiso   1.00
Cl809  Cl    0.46023   0.61898   0.66603   0.00000  Uiso   1.00
Cl810  Cl    0.63584   0.44039   0.67119   0.00000  Uiso   1.00
Cl811  Cl    0.40712   0.43838   0.67339   0.00000  Uiso   1.00
Cl812  Cl    0.40020   0.57050   0.89624   0.00000  Uiso   1.00
Cl813  Cl    0.41046   0.52892   0.59520   0.00000  Uiso   1.00
Cl814  Cl    0.52916   0.62342   0.84112   0.00000  Uiso   1.00
H815   H     0.58475   0.43720   0.59498   0.00000  Uiso   1.00
H816   H     0.46130   0.42579   0.88336   0.00000  Uiso   1.00
H817   H     0.53352   0.37314   0.81036   0.00000  Uiso   1.00
H818   H     0.46777   0.37100   0.68598   0.00000  Uiso   1.00
H819   H     0.35918   0.54681   0.81031   0.00000  Uiso   1.00
H820   H     0.54811   0.40024   0.93734   0.00000  Uiso   1.00
H821   H     0.58399   0.40531   0.50907   0.00000  Uiso   1.00
H822   H     0.57378   0.55159   0.81543   0.00000  Uiso   1.00
H823   H     0.52429   0.56399   0.58863   0.00000  Uiso   1.00
H824   H     0.35239   0.57672   0.99882   0.00000  Uiso   1.00
N825   N     0.38093   0.50001   0.75002   0.00000  Uiso   1.00
N826   N     0.61906   0.49998   0.75001   0.00000  Uiso   1.00
O827   O     0.46179   0.56108   0.75001   0.00000  Uiso   1.00
O828   O     0.50728   0.55106   0.56550   0.00000  Uiso   1.00
O829   O     0.37240   0.57105   0.52148   0.00000  Uiso   1.00
O830   O     0.49401   0.42136   0.88363   0.00000  Uiso   1.00
O831   O     0.53823   0.56107   0.75001   0.00000  Uiso   1.00
O832   O     0.44280   0.50000   0.82681   0.00000  Uiso   1.00
O833   O     0.51924   0.49999   0.82681   0.00000  Uiso   1.00
O834   O     0.46177   0.43893   0.75000   0.00000  Uiso   1.00
O835   O     0.53821   0.43892   0.75000   0.00000  Uiso   1.00
O836   O     0.48076   0.50001   0.67319   0.00000  Uiso   1.00
O837   O     0.55720   0.50000   0.67319   0.00000  Uiso   1.00
O838   O     0.60459   0.55308   0.82061   0.00000  Uiso   1.00
Zn839  Zn    0.44896   0.50001   0.75000   0.00000  Uiso   1.00
Zn840  Zn    0.55104   0.49999   0.75000   0.00000  Uiso   1.00
C841   C     0.83349   0.57994   0.74999   0.00000  Uiso   1.00
C842   C     0.78846   0.50604   0.91195   0.00000  Uiso   1.00
C843   C     0.84990   0.64657   0.78649   0.00000  Uiso   1.00
C844   C     0.80668   0.50170   0.85224   0.00000  Uiso   1.00
C845   C     0.85208   0.35589   0.78374   0.00000  Uiso   1.00
C846   C     0.83336   0.37620   0.74870   0.00000  Uiso   1.00
C847   C     0.81480   0.35457   0.71366   0.00000  Uiso   1.00
C848   C     0.81543   0.64500   0.71307   0.00000  Uiso   1.00
C849   C     0.83340   0.62426   0.74951   0.00000  Uiso   1.00
C850   C     0.98549   0.47385   0.71610   0.00000  Uiso   1.00
C851   C     0.69981   0.47351   0.71653   0.00000  Uiso   1.00
C852   C     0.80620   0.49884   0.99559   0.00000  Uiso   1.00
C853   C     0.68175   0.52593   0.78352   0.00000  Uiso   1.00
C854   C     0.96759   0.52601   0.78417   0.00000  Uiso   1.00
C855   C     0.83335   0.42020   0.74911   0.00000  Uiso   1.00
C856   C     0.85983   0.49924   0.64778   0.00000  Uiso   1.00
C857   C     0.89786   0.43377   0.52343   0.00000  Uiso   1.00
C858   C     0.87550   0.48982   0.58962   0.00000  Uiso   1.00
C859   C     0.75558   0.53774   0.93655   0.00000  Uiso   1.00
C860   C     0.74225   0.54474   0.99346   0.00000  Uiso   1.00
C861   C     0.76777   0.52553   0.52288   0.00000  Uiso   1.00
C862   C     0.80910   0.48295   0.94381   0.00000  Uiso   1.00
C863   C     0.84063   0.48584   0.51829   0.00000  Uiso   1.00
C864   C     0.86742   0.44952   0.99756   0.00000  Uiso   1.00
C865   C     0.86267   0.42899   0.95208   0.00000  Uiso   1.00
C866   C     0.83371   0.44513   0.92511   0.00000  Uiso   1.00
C867   C     0.85169   0.50925   0.55848   0.00000  Uiso   1.00
C868   C     0.89998   0.45278   0.57102   0.00000  Uiso   1.00
Cl869  Cl    0.79356   0.61898   0.66603   0.00000  Uiso   1.00
Cl870  Cl    0.96918   0.44039   0.67119   0.00000  Uiso   1.00
Cl871  Cl    0.74045   0.43838   0.67339   0.00000  Uiso   1.00
Cl872  Cl    0.73353   0.57050   0.89624   0.00000  Uiso   1.00
Cl873  Cl    0.74379   0.52892   0.59520   0.00000  Uiso   1.00
Cl874  Cl    0.86250   0.62342   0.84112   0.00000  Uiso   1.00
H875   H     0.91809   0.43720   0.59498   0.00000  Uiso   1.00
H876   H     0.79463   0.42579   0.88336   0.00000  Uiso   1.00
H877   H     0.86686   0.37314   0.81036   0.00000  Uiso   1.00
H878   H     0.80110   0.37100   0.68598   0.00000  Uiso   1.00
H879   H     0.69252   0.54681   0.81031   0.00000  Uiso   1.00
H880   H     0.88144   0.40024   0.93734   0.00000  Uiso   1.00
H881   H     0.91732   0.40531   0.50907   0.00000  Uiso   1.00
H882   H     0.90711   0.55159   0.81543   0.00000  Uiso   1.00
H883   H     0.85763   0.56399   0.58863   0.00000  Uiso   1.00
H884   H     0.68573   0.57672   0.99882   0.00000  Uiso   1.00
N885   N     0.71426   0.50001   0.75002   0.00000  Uiso   1.00
N886   N     0.95239   0.49998   0.75001   0.00000  Uiso   1.00
O887   O     0.79512   0.56108   0.75001   0.00000  Uiso   1.00
O888   O     0.84062   0.55106   0.56550   0.00000  Uiso   1.00
O889   O     0.70574   0.57105   0.52148   0.00000  Uiso   1.00
O890   O     0.82734   0.42136   0.88363   0.00000  Uiso   1.00
O891   O     0.87157   0.56107   0.75001   0.00000  Uiso   1.00
O892   O     0.77613   0.50000   0.82681   0.00000  Uiso   1.00
O893   O     0.85258   0.49999   0.82681   0.00000  Uiso   1.00
O894   O     0.79510   0.43893   0.75000   0.00000  Uiso   1.00
O895   O     0.87154   0.43892   0.75000   0.00000  Uiso   1.00
O896   O     0.81409   0.50001   0.67319   0.00000  Uiso   1.00
O897   O     0.89053   0.50000   0.67319   0.00000  Uiso   1.00
O898   O     0.93792   0.55308   0.82061   0.00000  Uiso   1.00
Zn899  Zn    0.78229   0.50001   0.75000   0.00000  Uiso   1.00
Zn900  Zn    0.88438   0.49999   0.75000   0.00000  Uiso   1.00
C901   C     0.16682   0.91327   0.74999   0.00000  Uiso   1.00
C902   C     0.12179   0.83937   0.91195   0.00000  Uiso   1.00
C903   C     0.18323   0.97990   0.78649   0.00000  Uiso   1.00
C904   C     0.14002   0.83504   0.85224   0.00000  Uiso   1.00
C905   C     0.18542   0.68922   0.78374   0.00000  Uiso   1.00
C906   C     0.16669   0.70953   0.74870   0.00000  Uiso   1.00
C907   C     0.14814   0.68790   0.71366   0.00000  Uiso   1.00
C908   C     0.14876   0.97833   0.71307   0.00000  Uiso   1.00
C909   C     0.16673   0.95760   0.74951   0.00000  Uiso   1.00
C910   C     0.31882   0.80719   0.71610   0.00000  Uiso   1.00
C911   C     0.03314   0.80684   0.71653   0.00000  Uiso   1.00
C912   C     0.13953   0.83217   0.99559   0.00000  Uiso   1.00
C913   C     0.01508   0.85926   0.78352   0.00000  Uiso   1.00
C914   C     0.30092   0.85935   0.78417   0.00000  Uiso   1.00
C915   C     0.16668   0.75353   0.74911   0.00000  Uiso   1.00
C916   C     0.19316   0.83258   0.64778   0.00000  Uiso   1.00
C917   C     0.23119   0.76711   0.52343   0.00000  Uiso   1.00
C918   C     0.20883   0.82316   0.58962   0.00000  Uiso   1.00
C919   C     0.08892   0.87107   0.93655   0.00000  Uiso   1.00
C920   C     0.07559   0.87807   0.99346   0.00000  Uiso   1.00
C921   C     0.10110   0.85886   0.52288   0.00000  Uiso   1.00
C922   C     0.14243   0.81628   0.94381   0.00000  Uiso   1.00
C923   C     0.17397   0.81917   0.51829   0.00000  Uiso   1.00
C924   C     0.20075   0.78286   0.99756   0.00000  Uiso   1.00
C925   C     0.19600   0.76232   0.95208   0.00000  Uiso   1.00
C926   C     0.16705   0.77846   0.92511   0.00000  Uiso   1.00
C927   C     0.18502   0.84258   0.55848   0.00000  Uiso   1.00
C928   C     0.23332   0.78611   0.57102   0.00000  Uiso   1.00
Cl929  Cl    0.12689   0.95231   0.66603   0.00000  Uiso   1.00
Cl930  Cl    0.30251   0.77373   0.67119   0.00000  Uiso   1.00
Cl931  Cl    0.07378   0.77172   0.67339   0.00000  Uiso   1.00
Cl932  Cl    0.06686   0.90384   0.89624   0.00000  Uiso   1.00
Cl933  Cl    0.07712   0.86226   0.59520   0.00000  Uiso   1.00
Cl934  Cl    0.19583   0.95675   0.84112   0.00000  Uiso   1.00
H935   H     0.25142   0.77054   0.59498   0.00000  Uiso   1.00
H936   H     0.12797   0.75912   0.88336   0.00000  Uiso   1.00
H937   H     0.20019   0.70647   0.81036   0.00000  Uiso   1.00
H938   H     0.13443   0.70434   0.68598   0.00000  Uiso   1.00
H939   H     0.02585   0.88014   0.81031   0.00000  Uiso   1.00
H940   H     0.21477   0.73357   0.93734   0.00000  Uiso   1.00
H941   H     0.25066   0.73865   0.50907   0.00000  Uiso   1.00
H942   H     0.24045   0.88492   0.81543   0.00000  Uiso   1.00
H943   H     0.19096   0.89732   0.58863   0.00000  Uiso   1.00
H944   H     0.01906   0.91005   0.99882   0.00000  Uiso   1.00
N945   N     0.04760   0.83334   0.75002   0.00000  Uiso   1.00
N946   N     0.28573   0.83331   0.75001   0.00000  Uiso   1.00
O947   O     0.12846   0.89442   0.75001   0.00000  Uiso   1.00
O948   O     0.17395   0.88440   0.56550   0.00000  Uiso   1.00
O949   O     0.03907   0.90438   0.52148   0.00000  Uiso   1.00
O950   O     0.16067   0.75469   0.88363   0.00000  Uiso   1.00
O951   O     0.20490   0.89441   0.75001   0.00000  Uiso   1.00
O952   O     0.10947   0.83333   0.82681   0.00000  Uiso   1.00
O953   O     0.18591   0.83332   0.82681   0.00000  Uiso   1.00
O954   O     0.12843   0.77226   0.75000   0.00000  Uiso   1.00
O955   O     0.20488   0.77225   0.75000   0.00000  Uiso   1.00
O956   O     0.14742   0.83335   0.67319   0.00000  Uiso   1.00
O957   O     0.22387   0.83334   0.67319   0.00000  Uiso   1.00
O958   O     0.27125   0.88641   0.82061   0.00000  Uiso   1.00
Zn959  Zn    0.11562   0.83334   0.75000   0.00000  Uiso   1.00
Zn960  Zn    0.21771   0.83333   0.75000   0.00000  Uiso   1.00
C961   C     0.50016   0.91327   0.74999   0.00000  Uiso   1.00
C962   C     0.45512   0.83937   0.91195   0.00000  Uiso   1.00
C963   C     0.51656   0.97990   0.78649   0.00000  Uiso   1.00
C964   C     0.47335   0.83504   0.85224   0.00000  Uiso   1.00
C965   C     0.51875   0.68922   0.78374   0.00000  Uiso   1.00
C966   C     0.50003   0.70953   0.74870   0.00000  Uiso   1.00
C967   C     0.48147   0.68790   0.71366   0.00000  Uiso   1.00
C968   C     0.48209   0.97833   0.71307   0.00000  Uiso   1.00
C969   C     0.50007   0.95760   0.74951   0.00000  Uiso   1.00
C970   C     0.65216   0.80719   0.71610   0.00000  Uiso   1.00
C971   C     0.36648   0.80684   0.71653   0.00000  Uiso   1.00
C972   C     0.47286   0.83217   0.99559   0.00000  Uiso   1.00
C973   C     0.34841   0.85926   0.78352   0.00000  Uiso   1.00
C974   C     0.63426   0.85935   0.78417   0.00000  Uiso   1.00
C975   C     0.50002   0.75353   0.74911   0.00000  Uiso   1.00
C976   C     0.52650   0.83258   0.64778   0.00000  Uiso   1.00
C977   C     0.56452   0.76711   0.52343   0.00000  Uiso   1.00
C978   C     0.54217   0.82316   0.58962   0.00000  Uiso   1.00
C979   C     0.42225   0.87107   0.93655   0.00000  Uiso   1.00
C980   C     0.40892   0.87807   0.99346   0.00000  Uiso   1.00
C981   C     0.43444   0.85886   0.52288   0.00000  Uiso   1.00
C982   C     0.47577   0.81628   0.94381   0.00000  Uiso   1.00
C983   C     0.50730   0.81917   0.51829   0.00000  Uiso   1.00
C984   C     0.53409   0.78286   0.99756   0.00000  Uiso   1.00
C985   C     0.52934   0.76232   0.95208   0.00000  Uiso   1.00
C986   C     0.50038   0.77846   0.92511   0.00000  Uiso   1.00
C987   C     0.51836   0.84258   0.55848   0.00000  Uiso   1.00
C988   C     0.56665   0.78611   0.57102   0.00000  Uiso   1.00
Cl989  Cl    0.46023   0.95231   0.66603   0.00000  Uiso   1.00
Cl990  Cl    0.63584   0.77373   0.67119   0.00000  Uiso   1.00
Cl991  Cl    0.40712   0.77172   0.67339   0.00000  Uiso   1.00
Cl992  Cl    0.40020   0.90384   0.89624   0.00000  Uiso   1.00
Cl993  Cl    0.41046   0.86226   0.59520   0.00000  Uiso   1.00
Cl994  Cl    0.52916   0.95675   0.84112   0.00000  Uiso   1.00
H995   H     0.58475   0.77054   0.59498   0.00000  Uiso   1.00
H996   H     0.46130   0.75912   0.88336   0.00000  Uiso   1.00
H997   H     0.53352   0.70647   0.81036   0.00000  Uiso   1.00
H998   H     0.46777   0.70434   0.68598   0.00000  Uiso   1.00
H999   H     0.35918   0.88014   0.81031   0.00000  Uiso   1.00
H1000  H     0.54811   0.73357   0.93734   0.00000  Uiso   1.00
H1001  H     0.58399   0.73865   0.50907   0.00000  Uiso   1.00
H1002  H     0.57378   0.88492   0.81543   0.00000  Uiso   1.00
H1003  H     0.52429   0.89732   0.58863   0.00000  Uiso   1.00
H1004  H     0.35239   0.91005   0.99882   0.00000  Uiso   1.00
N1005  N     0.38093   0.83334   0.75002   0.00000  Uiso   1.00
N1006  N     0.61906   0.83331   0.75001   0.00000  Uiso   1.00
O1007  O     0.46179   0.89442   0.75001   0.00000  Uiso   1.00
O1008  O     0.50728   0.88440   0.56550   0.00000  Uiso   1.00
O1009  O     0.37240   0.90438   0.52148   0.00000  Uiso   1.00
O1010  O     0.49401   0.75469   0.88363   0.00000  Uiso   1.00
O1011  O     0.53823   0.89441   0.75001   0.00000  Uiso   1.00
O1012  O     0.44280   0.83333   0.82681   0.00000  Uiso   1.00
O1013  O     0.51924   0.83332   0.82681   0.00000  Uiso   1.00
O1014  O     0.46177   0.77226   0.75000   0.00000  Uiso   1.00
O1015  O     0.53821   0.77225   0.75000   0.00000  Uiso   1.00
O1016  O     0.48076   0.83335   0.67319   0.00000  Uiso   1.00
O1017  O     0.55720   0.83334   0.67319   0.00000  Uiso   1.00
O1018  O     0.60459   0.88641   0.82061   0.00000  Uiso   1.00
Zn1019 Zn    0.44896   0.83334   0.75000   0.00000  Uiso   1.00
Zn1020 Zn    0.55104   0.83333   0.75000   0.00000  Uiso   1.00
C1021  C     0.83349   0.91327   0.74999   0.00000  Uiso   1.00
C1022  C     0.78846   0.83937   0.91195   0.00000  Uiso   1.00
C1023  C     0.84990   0.97990   0.78649   0.00000  Uiso   1.00
C1024  C     0.80668   0.83504   0.85224   0.00000  Uiso   1.00
C1025  C     0.85208   0.68922   0.78374   0.00000  Uiso   1.00
C1026  C     0.83336   0.70953   0.74870   0.00000  Uiso   1.00
C1027  C     0.81480   0.68790   0.71366   0.00000  Uiso   1.00
C1028  C     0.81543   0.97833   0.71307   0.00000  Uiso   1.00
C1029  C     0.83340   0.95760   0.74951   0.00000  Uiso   1.00
C1030  C     0.98549   0.80719   0.71610   0.00000  Uiso   1.00
C1031  C     0.69981   0.80684   0.71653   0.00000  Uiso   1.00
C1032  C     0.80620   0.83217   0.99559   0.00000  Uiso   1.00
C1033  C     0.68175   0.85926   0.78352   0.00000  Uiso   1.00
C1034  C     0.96759   0.85935   0.78417   0.00000  Uiso   1.00
C1035  C     0.83335   0.75353   0.74911   0.00000  Uiso   1.00
C1036  C     0.85983   0.83258   0.64778   0.00000  Uiso   1.00
C1037  C     0.89786   0.76711   0.52343   0.00000  Uiso   1.00
C1038  C     0.87550   0.82316   0.58962   0.00000  Uiso   1.00
C1039  C     0.75558   0.87107   0.93655   0.00000  Uiso   1.00
C1040  C     0.74225   0.87807   0.99346   0.00000  Uiso   1.00
C1041  C     0.76777   0.85886   0.52288   0.00000  Uiso   1.00
C1042  C     0.80910   0.81628   0.94381   0.00000  Uiso   1.00
C1043  C     0.84063   0.81917   0.51829   0.00000  Uiso   1.00
C1044  C     0.86742   0.78286   0.99756   0.00000  Uiso   1.00
C1045  C     0.86267   0.76232   0.95208   0.00000  Uiso   1.00
C1046  C     0.83371   0.77846   0.92511   0.00000  Uiso   1.00
C1047  C     0.85169   0.84258   0.55848   0.00000  Uiso   1.00
C1048  C     0.89998   0.78611   0.57102   0.00000  Uiso   1.00
Cl1049 Cl    0.79356   0.95231   0.66603   0.00000  Uiso   1.00
Cl1050 Cl    0.96918   0.77373   0.67119   0.00000  Uiso   1.00
Cl1051 Cl    0.74045   0.77172   0.67339   0.00000  Uiso   1.00
Cl1052 Cl    0.73353   0.90384   0.89624   0.00000  Uiso   1.00
Cl1053 Cl    0.74379   0.86226   0.59520   0.00000  Uiso   1.00
Cl1054 Cl    0.86250   0.95675   0.84112   0.00000  Uiso   1.00
H1055  H     0.91809   0.77054   0.59498   0.00000  Uiso   1.00
H1056  H     0.79463   0.75912   0.88336   0.00000  Uiso   1.00
H1057  H     0.86686   0.70647   0.81036   0.00000  Uiso   1.00
H1058  H     0.80110   0.70434   0.68598   0.00000  Uiso   1.00
H1059  H     0.69252   0.88014   0.81031   0.00000  Uiso   1.00
H1060  H     0.88144   0.73357   0.93734   0.00000  Uiso   1.00
H1061  H     0.91732   0.73865   0.50907   0.00000  Uiso   1.00
H1062  H     0.90711   0.88492   0.81543   0.00000  Uiso   1.00
H1063  H     0.85763   0.89732   0.58863   0.00000  Uiso   1.00
H1064  H     0.68573   0.91005   0.99882   0.00000  Uiso   1.00
N1065  N     0.71426   0.83334   0.75002   0.00000  Uiso   1.00
N1066  N     0.95239   0.83331   0.75001   0.00000  Uiso   1.00
O1067  O     0.79512   0.89442   0.75001   0.00000  Uiso   1.00
O1068  O     0.84062   0.88440   0.56550   0.00000  Uiso   1.00
O1069  O     0.70574   0.90438   0.52148   0.00000  Uiso   1.00
O1070  O     0.82734   0.75469   0.88363   0.00000  Uiso   1.00
O1071  O     0.87157   0.89441   0.75001   0.00000  Uiso   1.00
O1072  O     0.77613   0.83333   0.82681   0.00000  Uiso   1.00
O1073  O     0.85258   0.83332   0.82681   0.00000  Uiso   1.00
O1074  O     0.79510   0.77226   0.75000   0.00000  Uiso   1.00
O1075  O     0.87154   0.77225   0.75000   0.00000  Uiso   1.00
O1076  O     0.81409   0.83335   0.67319   0.00000  Uiso   1.00
O1077  O     0.89053   0.83334   0.67319   0.00000  Uiso   1.00
O1078  O     0.93792   0.88641   0.82061   0.00000  Uiso   1.00
Zn1079 Zn    0.78229   0.83334   0.75000   0.00000  Uiso   1.00
Zn1080 Zn    0.88438   0.83333   0.75000   0.00000  Uiso   1.00
loop_
_geom_bond_atom_site_label_1
_geom_bond_atom_site_label_2
_geom_bond_distance
_geom_bond_site_symmetry_2
_ccdc_geom_bond_type
C1     O51     1.296   .     A
C1     O47     1.286   .     A
C1     C9      1.422   .     S
C2     C4      1.464   .     S
C2     C22     1.408   .     A
C2     C19     1.415   .     A
C3     C9      1.403   .     A
C3     Cl34    1.758   .     S
C3     C185    1.370   .     S
C4     O53     1.306   .     A
C4     O52     1.293   .     A
C5     H37     1.080   .     S
C5     C6      1.389   .     A
C5     C363    1.370   1_545 S
C6     C7      1.389   .     A
C6     C15     1.411   .     S
C7     H38     1.083   .     S
C7     C368    1.377   1_545 S
C8     Cl29    1.764   .     S
C8     C9      1.411   .     A
C8     C187    1.377   .     S
C10    N46     1.370   .     A
C10    Cl30    1.757   .     S
C10    C71     1.426   .     S
C11    Cl31    1.760   .     S
C11    N45     1.374   .     A
C11    C130    1.426   1_455 S
C12    C22     1.407   .     A
C12    C561    1.422   .     S
C12    C563    1.416   .     S
C13    N45     1.353   .     A
C13    H39     1.081   .     S
C13    C134    1.412   1_455 S
C14    N46     1.390   .     A
C14    O58     1.369   .     S
C14    C73     1.412   .     S
C15    O54     1.292   .     A
C15    O55     1.286   .     A
C16    O56     1.300   .     A
C16    O57     1.297   .     A
C16    C18     1.451   .     S
C17    H41     1.084   .     S
C17    C28     1.391   .     A
C17    C564    1.401   1_554 S
C18    C28     1.399   .     A
C18    C27     1.399   .     A
C19    C20     1.409   .     A
C19    Cl32    1.772   .     S
C20    C561    1.400   .     S
C20    O589    1.382   .     S
C21    Cl33    1.770   .     S
C21    C560    1.400   1_554 S
C21    C552    1.422   1_554 S
C22    C26     1.423   .     A
C23    C27     1.403   .     A
C23    C552    1.416   1_554 S
C23    C564    1.419   1_554 S
C24    C25     1.393   .     A
C24    C557    1.401   .     S
C24    C563    1.419   .     S
C25    H40     1.084   .     S
C25    C26     1.391   .     A
C26    O50     1.376   .     S
C27    O48     1.382   .     S
C28    H35     1.081   .     S
H36    O50     0.991   .     S
H42    O58     0.973   .     S
H43    O48     0.991   .     S
H44    O589    0.989   .     S
N45    Zn59    2.030   .     S
N46    Zn60    2.030   .     S
O47    Zn59    1.990   .     S
O49    C560    1.382   1_554 S
O49    H584    0.989   1_554 S
O51    Zn60    2.002   .     S
O52    Zn59    1.938   .     S
O53    Zn60    1.895   .     S
O54    Zn59    2.002   .     S
O55    Zn60    1.990   .     S
O56    Zn59    1.895   .     S
O57    Zn60    1.938   .     S
C61    O111    1.296   .     A
C61    O107    1.286   .     A
C61    C69     1.422   .     S
C62    C64     1.464   .     S
C62    C82     1.408   .     A
C62    C79     1.415   .     A
C63    C69     1.403   .     A
C63    Cl94    1.758   .     S
C63    C245    1.370   .     S
C64    O113    1.306   .     A
C64    O112    1.293   .     A
C65    H97     1.080   .     S
C65    C66     1.389   .     A
C65    C423    1.370   1_545 S
C66    C67     1.389   .     A
C66    C75     1.411   .     S
C67    H98     1.083   .     S
C67    C428    1.377   1_545 S
C68    Cl89    1.764   .     S
C68    C69     1.411   .     A
C68    C247    1.377   .     S
C70    N106    1.370   .     A
C70    Cl90    1.757   .     S
C70    C131    1.426   .     S
C71    Cl91    1.760   .     S
C71    N105    1.374   .     A
C72    C82     1.407   .     A
C72    C621    1.422   .     S
C72    C623    1.416   .     S
C73    N105    1.353   .     A
C73    H99     1.081   .     S
C74    N106    1.390   .     A
C74    O118    1.369   .     S
C74    C133    1.412   .     S
C75    O114    1.292   .     A
C75    O115    1.286   .     A
C76    O116    1.300   .     A
C76    O117    1.297   .     A
C76    C78     1.451   .     S
C77    H101    1.084   .     S
C77    C88     1.391   .     A
C77    C624    1.401   1_554 S
C78    C88     1.399   .     A
C78    C87     1.399   .     A
C79    C80     1.409   .     A
C79    Cl92    1.772   .     S
C80    C621    1.400   .     S
C80    O649    1.382   .     S
C81    Cl93    1.770   .     S
C81    C620    1.400   1_554 S
C81    C612    1.422   1_554 S
C82    C86     1.423   .     A
C83    C87     1.403   .     A
C83    C612    1.416   1_554 S
C83    C624    1.419   1_554 S
C84    C85     1.393   .     A
C84    C617    1.401   .     S
C84    C623    1.419   .     S
C85    H100    1.084   .     S
C85    C86     1.391   .     A
C86    O110    1.376   .     S
C87    O108    1.382   .     S
C88    H95     1.081   .     S
H96    O110    0.991   .     S
H102   O118    0.973   .     S
H103   O108    0.991   .     S
H104   O649    0.989   .     S
N105   Zn119   2.030   .     S
N106   Zn120   2.030   .     S
O107   Zn119   1.990   .     S
O109   C620    1.382   1_554 S
O109   H644    0.989   1_554 S
O111   Zn120   2.002   .     S
O112   Zn119   1.938   .     S
O113   Zn120   1.895   .     S
O114   Zn119   2.002   .     S
O115   Zn120   1.990   .     S
O116   Zn119   1.895   .     S
O117   Zn120   1.938   .     S
C121   O171    1.296   .     A
C121   O167    1.286   .     A
C121   C129    1.422   .     S
C122   C124    1.464   .     S
C122   C142    1.408   .     A
C122   C139    1.415   .     A
C123   C129    1.403   .     A
C123   Cl154   1.758   .     S
C123   C305    1.370   .     S
C124   O173    1.306   .     A
C124   O172    1.293   .     A
C125   H157    1.080   .     S
C125   C126    1.389   .     A
C125   C483    1.370   1_545 S
C126   C127    1.389   .     A
C126   C135    1.411   .     S
C127   H158    1.083   .     S
C127   C488    1.377   1_545 S
C128   Cl149   1.764   .     S
C128   C129    1.411   .     A
C128   C307    1.377   .     S
C130   N166    1.370   .     A
C130   Cl150   1.757   .     S
C130   C11     1.426   1_655 S
C131   Cl151   1.760   .     S
C131   N165    1.374   .     A
C132   C142    1.407   .     A
C132   C681    1.422   .     S
C132   C683    1.416   .     S
C133   N165    1.353   .     A
C133   H159    1.081   .     S
C134   N166    1.390   .     A
C134   O178    1.369   .     S
C134   C13     1.412   1_655 S
C135   O174    1.292   .     A
C135   O175    1.286   .     A
C136   O176    1.300   .     A
C136   O177    1.297   .     A
C136   C138    1.451   .     S
C137   H161    1.084   .     S
C137   C148    1.391   .     A
C137   C684    1.401   1_554 S
C138   C148    1.399   .     A
C138   C147    1.399   .     A
C139   C140    1.409   .     A
C139   Cl152   1.772   .     S
C140   C681    1.400   .     S
C140   O709    1.382   .     S
C141   Cl153   1.770   .     S
C141   C680    1.400   1_554 S
C141   C672    1.422   1_554 S
C142   C146    1.423   .     A
C143   C147    1.403   .     A
C143   C672    1.416   1_554 S
C143   C684    1.419   1_554 S
C144   C145    1.393   .     A
C144   C677    1.401   .     S
C144   C683    1.419   .     S
C145   H160    1.084   .     S
C145   C146    1.391   .     A
C146   O170    1.376   .     S
C147   O168    1.382   .     S
C148   H155    1.081   .     S
H156   O170    0.991   .     S
H162   O178    0.973   .     S
H163   O168    0.991   .     S
H164   O709    0.989   .     S
N165   Zn179   2.030   .     S
N166   Zn180   2.030   .     S
O167   Zn179   1.990   .     S
O169   C680    1.382   1_554 S
O169   H704    0.989   1_554 S
O171   Zn180   2.002   .     S
O172   Zn179   1.938   .     S
O173   Zn180   1.895   .     S
O174   Zn179   2.002   .     S
O175   Zn180   1.990   .     S
O176   Zn179   1.895   .     S
O177   Zn180   1.938   .     S
C181   O231    1.296   .     A
C181   O227    1.286   .     A
C181   C189    1.422   .     S
C182   C184    1.464   .     S
C182   C202    1.408   .     A
C182   C199    1.415   .     A
C183   C189    1.403   .     A
C183   Cl214   1.758   .     S
C183   C365    1.370   .     S
C184   O233    1.306   .     A
C184   O232    1.293   .     A
C185   H217    1.080   .     S
C185   C186    1.389   .     A
C186   C187    1.389   .     A
C186   C195    1.411   .     S
C187   H218    1.083   .     S
C188   Cl209   1.764   .     S
C188   C189    1.411   .     A
C188   C367    1.377   .     S
C190   N226    1.370   .     A
C190   Cl210   1.757   .     S
C190   C251    1.426   .     S
C191   Cl211   1.760   .     S
C191   N225    1.374   .     A
C191   C310    1.426   1_455 S
C192   C202    1.407   .     A
C192   C741    1.422   .     S
C192   C743    1.416   .     S
C193   N225    1.353   .     A
C193   H219    1.081   .     S
C193   C314    1.412   1_455 S
C194   N226    1.390   .     A
C194   O238    1.369   .     S
C194   C253    1.412   .     S
C195   O234    1.292   .     A
C195   O235    1.286   .     A
C196   O236    1.300   .     A
C196   O237    1.297   .     A
C196   C198    1.451   .     S
C197   H221    1.084   .     S
C197   C208    1.391   .     A
C197   C744    1.401   1_554 S
C198   C208    1.399   .     A
C198   C207    1.399   .     A
C199   C200    1.409   .     A
C199   Cl212   1.772   .     S
C200   C741    1.400   .     S
C200   O769    1.382   .     S
C201   Cl213   1.770   .     S
C201   C740    1.400   1_554 S
C201   C732    1.422   1_554 S
C202   C206    1.423   .     A
C203   C207    1.403   .     A
C203   C732    1.416   1_554 S
C203   C744    1.419   1_554 S
C204   C205    1.393   .     A
C204   C737    1.401   .     S
C204   C743    1.419   .     S
C205   H220    1.084   .     S
C205   C206    1.391   .     A
C206   O230    1.376   .     S
C207   O228    1.382   .     S
C208   H215    1.081   .     S
H216   O230    0.991   .     S
H222   O238    0.973   .     S
H223   O228    0.991   .     S
H224   O769    0.989   .     S
N225   Zn239   2.030   .     S
N226   Zn240   2.030   .     S
O227   Zn239   1.990   .     S
O229   C740    1.382   1_554 S
O229   H764    0.989   1_554 S
O231   Zn240   2.002   .     S
O232   Zn239   1.938   .     S
O233   Zn240   1.895   .     S
O234   Zn239   2.002   .     S
O235   Zn240   1.990   .     S
O236   Zn239   1.895   .     S
O237   Zn240   1.938   .     S
C241   O291    1.296   .     A
C241   O287    1.286   .     A
C241   C249    1.422   .     S
C242   C244    1.464   .     S
C242   C262    1.408   .     A
C242   C259    1.415   .     A
C243   C249    1.403   .     A
C243   Cl274   1.758   .     S
C243   C425    1.370   .     S
C244   O293    1.306   .     A
C244   O292    1.293   .     A
C245   H277    1.080   .     S
C245   C246    1.389   .     A
C246   C247    1.389   .     A
C246   C255    1.411   .     S
C247   H278    1.083   .     S
C248   Cl269   1.764   .     S
C248   C249    1.411   .     A
C248   C427    1.377   .     S
C250   N286    1.370   .     A
C250   Cl270   1.757   .     S
C250   C311    1.426   .     S
C251   Cl271   1.760   .     S
C251   N285    1.374   .     A
C252   C262    1.407   .     A
C252   C801    1.422   .     S
C252   C803    1.416   .     S
C253   N285    1.353   .     A
C253   H279    1.081   .     S
C254   N286    1.390   .     A
C254   O298    1.369   .     S
C254   C313    1.412   .     S
C255   O294    1.292   .     A
C255   O295    1.286   .     A
C256   O296    1.300   .     A
C256   O297    1.297   .     A
C256   C258    1.451   .     S
C257   H281    1.084   .     S
C257   C268    1.391   .     A
C257   C804    1.401   1_554 S
C258   C268    1.399   .     A
C258   C267    1.399   .     A
C259   C260    1.409   .     A
C259   Cl272   1.772   .     S
C260   C801    1.400   .     S
C260   O829    1.382   .     S
C261   Cl273   1.770   .     S
C261   C800    1.400   1_554 S
C261   C792    1.422   1_554 S
C262   C266    1.423   .     A
C263   C267    1.403   .     A
C263   C792    1.416   1_554 S
C263   C804    1.419   1_554 S
C264   C265    1.393   .     A
C264   C797    1.401   .     S
C264   C803    1.419   .     S
C265   H280    1.084   .     S
C265   C266    1.391   .     A
C266   O290    1.376   .     S
C267   O288    1.382   .     S
C268   H275    1.081   .     S
H276   O290    0.991   .     S
H282   O298    0.973   .     S
H283   O288    0.991   .     S
H284   O829    0.989   .     S
N285   Zn299   2.030   .     S
N286   Zn300   2.030   .     S
O287   Zn299   1.990   .     S
O289   C800    1.382   1_554 S
O289   H824    0.989   1_554 S
O291   Zn300   2.002   .     S
O292   Zn299   1.938   .     S
O293   Zn300   1.895   .     S
O294   Zn299   2.002   .     S
O295   Zn300   1.990   .     S
O296   Zn299   1.895   .     S
O297   Zn300   1.938   .     S
C301   O351    1.296   .     A
C301   O347    1.286   .     A
C301   C309    1.422   .     S
C302   C304    1.464   .     S
C302   C322    1.408   .     A
C302   C319    1.415   .     A
C303   C309    1.403   .     A
C303   Cl334   1.758   .     S
C303   C485    1.370   .     S
C304   O353    1.306   .     A
C304   O352    1.293   .     A
C305   H337    1.080   .     S
C305   C306    1.389   .     A
C306   C307    1.389   .     A
C306   C315    1.411   .     S
C307   H338    1.083   .     S
C308   Cl329   1.764   .     S
C308   C309    1.411   .     A
C308   C487    1.377   .     S
C310   N346    1.370   .     A
C310   Cl330   1.757   .     S
C310   C191    1.426   1_655 S
C311   Cl331   1.760   .     S
C311   N345    1.374   .     A
C312   C322    1.407   .     A
C312   C861    1.422   .     S
C312   C863    1.416   .     S
C313   N345    1.353   .     A
C313   H339    1.081   .     S
C314   N346    1.390   .     A
C314   O358    1.369   .     S
C314   C193    1.412   1_655 S
C315   O354    1.292   .     A
C315   O355    1.286   .     A
C316   O356    1.300   .     A
C316   O357    1.297   .     A
C316   C318    1.451   .     S
C317   H341    1.084   .     S
C317   C328    1.391   .     A
C317   C864    1.401   1_554 S
C318   C328    1.399   .     A
C318   C327    1.399   .     A
C319   C320    1.409   .     A
C319   Cl332   1.772   .     S
C320   C861    1.400   .     S
C320   O889    1.382   .     S
C321   Cl333   1.770   .     S
C321   C860    1.400   1_554 S
C321   C852    1.422   1_554 S
C322   C326    1.423   .     A
C323   C327    1.403   .     A
C323   C852    1.416   1_554 S
C323   C864    1.419   1_554 S
C324   C325    1.393   .     A
C324   C857    1.401   .     S
C324   C863    1.419   .     S
C325   H340    1.084   .     S
C325   C326    1.391   .     A
C326   O350    1.376   .     S
C327   O348    1.382   .     S
C328   H335    1.081   .     S
H336   O350    0.991   .     S
H342   O358    0.973   .     S
H343   O348    0.991   .     S
H344   O889    0.989   .     S
N345   Zn359   2.030   .     S
N346   Zn360   2.030   .     S
O347   Zn359   1.990   .     S
O349   C860    1.382   1_554 S
O349   H884    0.989   1_554 S
O351   Zn360   2.002   .     S
O352   Zn359   1.938   .     S
O353   Zn360   1.895   .     S
O354   Zn359   2.002   .     S
O355   Zn360   1.990   .     S
O356   Zn359   1.895   .     S
O357   Zn360   1.938   .     S
C361   O411    1.296   .     A
C361   O407    1.286   .     A
C361   C369    1.422   .     S
C362   C364    1.464   .     S
C362   C382    1.408   .     A
C362   C379    1.415   .     A
C363   C369    1.403   .     A
C363   Cl394   1.758   .     S
C363   C5      1.370   1_565 S
C364   O413    1.306   .     A
C364   O412    1.293   .     A
C365   H397    1.080   .     S
C365   C366    1.389   .     A
C366   C367    1.389   .     A
C366   C375    1.411   .     S
C367   H398    1.083   .     S
C368   Cl389   1.764   .     S
C368   C369    1.411   .     A
C368   C7      1.377   1_565 S
C370   N406    1.370   .     A
C370   Cl390   1.757   .     S
C370   C431    1.426   .     S
C371   Cl391   1.760   .     S
C371   N405    1.374   .     A
C371   C490    1.426   1_455 S
C372   C382    1.407   .     A
C372   C921    1.422   .     S
C372   C923    1.416   .     S
C373   N405    1.353   .     A
C373   H399    1.081   .     S
C373   C494    1.412   1_455 S
C374   N406    1.390   .     A
C374   O418    1.369   .     S
C374   C433    1.412   .     S
C375   O414    1.292   .     A
C375   O415    1.286   .     A
C376   O416    1.300   .     A
C376   O417    1.297   .     A
C376   C378    1.451   .     S
C377   H401    1.084   .     S
C377   C388    1.391   .     A
C377   C924    1.401   1_554 S
C378   C388    1.399   .     A
C378   C387    1.399   .     A
C379   C380    1.409   .     A
C379   Cl392   1.772   .     S
C380   C921    1.400   .     S
C380   O949    1.382   .     S
C381   Cl393   1.770   .     S
C381   C920    1.400   1_554 S
C381   C912    1.422   1_554 S
C382   C386    1.423   .     A
C383   C387    1.403   .     A
C383   C912    1.416   1_554 S
C383   C924    1.419   1_554 S
C384   C385    1.393   .     A
C384   C917    1.401   .     S
C384   C923    1.419   .     S
C385   H400    1.084   .     S
C385   C386    1.391   .     A
C386   O410    1.376   .     S
C387   O408    1.382   .     S
C388   H395    1.081   .     S
H396   O410    0.991   .     S
H402   O418    0.973   .     S
H403   O408    0.991   .     S
H404   O949    0.989   .     S
N405   Zn419   2.030   .     S
N406   Zn420   2.030   .     S
O407   Zn419   1.990   .     S
O409   C920    1.382   1_554 S
O409   H944    0.989   1_554 S
O411   Zn420   2.002   .     S
O412   Zn419   1.938   .     S
O413   Zn420   1.895   .     S
O414   Zn419   2.002   .     S
O415   Zn420   1.990   .     S
O416   Zn419   1.895   .     S
O417   Zn420   1.938   .     S
C421   O471    1.296   .     A
C421   O467    1.286   .     A
C421   C429    1.422   .     S
C422   C424    1.464   .     S
C422   C442    1.408   .     A
C422   C439    1.415   .     A
C423   C429    1.403   .     A
C423   Cl454   1.758   .     S
C423   C65     1.370   1_565 S
C424   O473    1.306   .     A
C424   O472    1.293   .     A
C425   H457    1.080   .     S
C425   C426    1.389   .     A
C426   C427    1.389   .     A
C426   C435    1.411   .     S
C427   H458    1.083   .     S
C428   Cl449   1.764   .     S
C428   C429    1.411   .     A
C428   C67     1.377   1_565 S
C430   N466    1.370   .     A
C430   Cl450   1.757   .     S
C430   C491    1.426   .     S
C431   Cl451   1.760   .     S
C431   N465    1.374   .     A
C432   C442    1.407   .     A
C432   C981    1.422   .     S
C432   C983    1.416   .     S
C433   N465    1.353   .     A
C433   H459    1.081   .     S
C434   N466    1.390   .     A
C434   O478    1.369   .     S
C434   C493    1.412   .     S
C435   O474    1.292   .     A
C435   O475    1.286   .     A
C436   O476    1.300   .     A
C436   O477    1.297   .     A
C436   C438    1.451   .     S
C437   H461    1.084   .     S
C437   C448    1.391   .     A
C437   C984    1.401   1_554 S
C438   C448    1.399   .     A
C438   C447    1.399   .     A
C439   C440    1.409   .     A
C439   Cl452   1.772   .     S
C440   C981    1.400   .     S
C440   O1009   1.382   .     S
C441   Cl453   1.770   .     S
C441   C980    1.400   1_554 S
C441   C972    1.422   1_554 S
C442   C446    1.423   .     A
C443   C447    1.403   .     A
C443   C972    1.416   1_554 S
C443   C984    1.419   1_554 S
C444   C445    1.393   .     A
C444   C977    1.401   .     S
C444   C983    1.419   .     S
C445   H460    1.084   .     S
C445   C446    1.391   .     A
C446   O470    1.376   .     S
C447   O468    1.382   .     S
C448   H455    1.081   .     S
H456   O470    0.991   .     S
H462   O478    0.973   .     S
H463   O468    0.991   .     S
H464   O1009   0.989   .     S
N465   Zn479   2.030   .     S
N466   Zn480   2.030   .     S
O467   Zn479   1.990   .     S
O469   C980    1.382   1_554 S
O469   H1004   0.989   1_554 S
O471   Zn480   2.002   .     S
O472   Zn479   1.938   .     S
O473   Zn480   1.895   .     S
O474   Zn479   2.002   .     S
O475   Zn480   1.990   .     S
O476   Zn479   1.895   .     S
O477   Zn480   1.938   .     S
C481   O531    1.296   .     A
C481   O527    1.286   .     A
C481   C489    1.422   .     S
C482   C484    1.464   .     S
C482   C502    1.408   .     A
C482   C499    1.415   .     A
C483   C489    1.403   .     A
C483   Cl514   1.758   .     S
C483   C125    1.370   1_565 S
C484   O533    1.306   .     A
C484   O532    1.293   .     A
C485   H517    1.080   .     S
C485   C486    1.389   .     A
C486   C487    1.389   .     A
C486   C495    1.411   .     S
C487   H518    1.083   .     S
C488   Cl509   1.764   .     S
C488   C489    1.411   .     A
C488   C127    1.377   1_565 S
C490   N526    1.370   .     A
C490   Cl510   1.757   .     S
C490   C371    1.426   1_655 S
C491   Cl511   1.760   .     S
C491   N525    1.374   .     A
C492   C502    1.407   .     A
C492   C1041   1.422   .     S
C492   C1043   1.416   .     S
C493   N525    1.353   .     A
C493   H519    1.081   .     S
C494   N526    1.390   .     A
C494   O538    1.369   .     S
C494   C373    1.412   1_655 S
C495   O534    1.292   .     A
C495   O535    1.286   .     A
C496   O536    1.300   .     A
C496   O537    1.297   .     A
C496   C498    1.451   .     S
C497   H521    1.084   .     S
C497   C508    1.391   .     A
C497   C1044   1.401   1_554 S
C498   C508    1.399   .     A
C498   C507    1.399   .     A
C499   C500    1.409   .     A
C499   Cl512   1.772   .     S
C500   C1041   1.400   .     S
C500   O1069   1.382   .     S
C501   Cl513   1.770   .     S
C501   C1040   1.400   1_554 S
C501   C1032   1.422   1_554 S
C502   C506    1.423   .     A
C503   C507    1.403   .     A
C503   C1032   1.416   1_554 S
C503   C1044   1.419   1_554 S
C504   C505    1.393   .     A
C504   C1037   1.401   .     S
C504   C1043   1.419   .     S
C505   H520    1.084   .     S
C505   C506    1.391   .     A
C506   O530    1.376   .     S
C507   O528    1.382   .     S
C508   H515    1.081   .     S
H516   O530    0.991   .     S
H522   O538    0.973   .     S
H523   O528    0.991   .     S
H524   O1069   0.989   .     S
N525   Zn539   2.030   .     S
N526   Zn540   2.030   .     S
O527   Zn539   1.990   .     S
O529   C1040   1.382   1_554 S
O529   H1064   0.989   1_554 S
O531   Zn540   2.002   .     S
O532   Zn539   1.938   .     S
O533   Zn540   1.895   .     S
O534   Zn539   2.002   .     S
O535   Zn540   1.990   .     S
O536   Zn539   1.895   .     S
O537   Zn540   1.938   .     S
C541   O591    1.296   .     A
C541   O587    1.286   .     A
C541   C549    1.422   .     S
C542   C544    1.464   .     S
C542   C562    1.408   .     A
C542   C559    1.415   .     A
C543   C549    1.403   .     A
C543   Cl574   1.758   .     S
C543   C725    1.370   .     S
C544   O593    1.306   .     A
C544   O592    1.293   .     A
C545   H577    1.080   .     S
C545   C546    1.389   .     A
C545   C903    1.370   1_545 S
C546   C547    1.389   .     A
C546   C555    1.411   .     S
C547   H578    1.083   .     S
C547   C908    1.377   1_545 S
C548   Cl569   1.764   .     S
C548   C549    1.411   .     A
C548   C727    1.377   .     S
C550   N586    1.370   .     A
C550   Cl570   1.757   .     S
C550   C611    1.426   .     S
C551   Cl571   1.760   .     S
C551   N585    1.374   .     A
C551   C670    1.426   1_455 S
C552   C562    1.407   .     A
C552   C21     1.422   1_556 S
C552   C23     1.416   1_556 S
C553   N585    1.353   .     A
C553   H579    1.081   .     S
C553   C674    1.412   1_455 S
C554   N586    1.390   .     A
C554   O598    1.369   .     S
C554   C613    1.412   .     S
C555   O594    1.292   .     A
C555   O595    1.286   .     A
C556   O596    1.300   .     A
C556   O597    1.297   .     A
C556   C558    1.451   .     S
C557   H581    1.084   .     S
C557   C568    1.391   .     A
C558   C568    1.399   .     A
C558   C567    1.399   .     A
C559   C560    1.409   .     A
C559   Cl572   1.772   .     S
C560   C21     1.400   1_556 S
C560   O49     1.382   1_556 S
C561   Cl573   1.770   .     S
C562   C566    1.423   .     A
C563   C567    1.403   .     A
C564   C565    1.393   .     A
C564   C17     1.401   1_556 S
C564   C23     1.419   1_556 S
C565   H580    1.084   .     S
C565   C566    1.391   .     A
C566   O590    1.376   .     S
C567   O588    1.382   .     S
C568   H575    1.081   .     S
H576   O590    0.991   .     S
H582   O598    0.973   .     S
H583   O588    0.991   .     S
H584   O49     0.989   1_556 S
N585   Zn599   2.030   .     S
N586   Zn600   2.030   .     S
O587   Zn599   1.990   .     S
O591   Zn600   2.002   .     S
O592   Zn599   1.938   .     S
O593   Zn600   1.895   .     S
O594   Zn599   2.002   .     S
O595   Zn600   1.990   .     S
O596   Zn599   1.895   .     S
O597   Zn600   1.938   .     S
C601   O651    1.296   .     A
C601   O647    1.286   .     A
C601   C609    1.422   .     S
C602   C604    1.464   .     S
C602   C622    1.408   .     A
C602   C619    1.415   .     A
C603   C609    1.403   .     A
C603   Cl634   1.758   .     S
C603   C785    1.370   .     S
C604   O653    1.306   .     A
C604   O652    1.293   .     A
C605   H637    1.080   .     S
C605   C606    1.389   .     A
C605   C963    1.370   1_545 S
C606   C607    1.389   .     A
C606   C615    1.411   .     S
C607   H638    1.083   .     S
C607   C968    1.377   1_545 S
C608   Cl629   1.764   .     S
C608   C609    1.411   .     A
C608   C787    1.377   .     S
C610   N646    1.370   .     A
C610   Cl630   1.757   .     S
C610   C671    1.426   .     S
C611   Cl631   1.760   .     S
C611   N645    1.374   .     A
C612   C622    1.407   .     A
C612   C81     1.422   1_556 S
C612   C83     1.416   1_556 S
C613   N645    1.353   .     A
C613   H639    1.081   .     S
C614   N646    1.390   .     A
C614   O658    1.369   .     S
C614   C673    1.412   .     S
C615   O654    1.292   .     A
C615   O655    1.286   .     A
C616   O656    1.300   .     A
C616   O657    1.297   .     A
C616   C618    1.451   .     S
C617   H641    1.084   .     S
C617   C628    1.391   .     A
C618   C628    1.399   .     A
C618   C627    1.399   .     A
C619   C620    1.409   .     A
C619   Cl632   1.772   .     S
C620   C81     1.400   1_556 S
C620   O109    1.382   1_556 S
C621   Cl633   1.770   .     S
C622   C626    1.423   .     A
C623   C627    1.403   .     A
C624   C625    1.393   .     A
C624   C77     1.401   1_556 S
C624   C83     1.419   1_556 S
C625   H640    1.084   .     S
C625   C626    1.391   .     A
C626   O650    1.376   .     S
C627   O648    1.382   .     S
C628   H635    1.081   .     S
H636   O650    0.991   .     S
H642   O658    0.973   .     S
H643   O648    0.991   .     S
H644   O109    0.989   1_556 S
N645   Zn659   2.030   .     S
N646   Zn660   2.030   .     S
O647   Zn659   1.990   .     S
O651   Zn660   2.002   .     S
O652   Zn659   1.938   .     S
O653   Zn660   1.895   .     S
O654   Zn659   2.002   .     S
O655   Zn660   1.990   .     S
O656   Zn659   1.895   .     S
O657   Zn660   1.938   .     S
C661   O711    1.296   .     A
C661   O707    1.286   .     A
C661   C669    1.422   .     S
C662   C664    1.464   .     S
C662   C682    1.408   .     A
C662   C679    1.415   .     A
C663   C669    1.403   .     A
C663   Cl694   1.758   .     S
C663   C845    1.370   .     S
C664   O713    1.306   .     A
C664   O712    1.293   .     A
C665   H697    1.080   .     S
C665   C666    1.389   .     A
C665   C1023   1.370   1_545 S
C666   C667    1.389   .     A
C666   C675    1.411   .     S
C667   H698    1.083   .     S
C667   C1028   1.377   1_545 S
C668   Cl689   1.764   .     S
C668   C669    1.411   .     A
C668   C847    1.377   .     S
C670   N706    1.370   .     A
C670   Cl690   1.757   .     S
C670   C551    1.426   1_655 S
C671   Cl691   1.760   .     S
C671   N705    1.374   .     A
C672   C682    1.407   .     A
C672   C141    1.422   1_556 S
C672   C143    1.416   1_556 S
C673   N705    1.353   .     A
C673   H699    1.081   .     S
C674   N706    1.390   .     A
C674   O718    1.369   .     S
C674   C553    1.412   1_655 S
C675   O714    1.292   .     A
C675   O715    1.286   .     A
C676   O716    1.300   .     A
C676   O717    1.297   .     A
C676   C678    1.451   .     S
C677   H701    1.084   .     S
C677   C688    1.391   .     A
C678   C688    1.399   .     A
C678   C687    1.399   .     A
C679   C680    1.409   .     A
C679   Cl692   1.772   .     S
C680   C141    1.400   1_556 S
C680   O169    1.382   1_556 S
C681   Cl693   1.770   .     S
C682   C686    1.423   .     A
C683   C687    1.403   .     A
C684   C685    1.393   .     A
C684   C137    1.401   1_556 S
C684   C143    1.419   1_556 S
C685   H700    1.084   .     S
C685   C686    1.391   .     A
C686   O710    1.376   .     S
C687   O708    1.382   .     S
C688   H695    1.081   .     S
H696   O710    0.991   .     S
H702   O718    0.973   .     S
H703   O708    0.991   .     S
H704   O169    0.989   1_556 S
N705   Zn719   2.030   .     S
N706   Zn720   2.030   .     S
O707   Zn719   1.990   .     S
O711   Zn720   2.002   .     S
O712   Zn719   1.938   .     S
O713   Zn720   1.895   .     S
O714   Zn719   2.002   .     S
O715   Zn720   1.990   .     S
O716   Zn719   1.895   .     S
O717   Zn720   1.938   .     S
C721   O771    1.296   .     A
C721   O767    1.286   .     A
C721   C729    1.422   .     S
C722   C724    1.464   .     S
C722   C742    1.408   .     A
C722   C739    1.415   .     A
C723   C729    1.403   .     A
C723   Cl754   1.758   .     S
C723   C905    1.370   .     S
C724   O773    1.306   .     A
C724   O772    1.293   .     A
C725   H757    1.080   .     S
C725   C726    1.389   .     A
C726   C727    1.389   .     A
C726   C735    1.411   .     S
C727   H758    1.083   .     S
C728   Cl749   1.764   .     S
C728   C729    1.411   .     A
C728   C907    1.377   .     S
C730   N766    1.370   .     A
C730   Cl750   1.757   .     S
C730   C791    1.426   .     S
C731   Cl751   1.760   .     S
C731   N765    1.374   .     A
C731   C850    1.426   1_455 S
C732   C742    1.407   .     A
C732   C201    1.422   1_556 S
C732   C203    1.416   1_556 S
C733   N765    1.353   .     A
C733   H759    1.081   .     S
C733   C854    1.412   1_455 S
C734   N766    1.390   .     A
C734   O778    1.369   .     S
C734   C793    1.412   .     S
C735   O774    1.292   .     A
C735   O775    1.286   .     A
C736   O776    1.300   .     A
C736   O777    1.297   .     A
C736   C738    1.451   .     S
C737   H761    1.084   .     S
C737   C748    1.391   .     A
C738   C748    1.399   .     A
C738   C747    1.399   .     A
C739   C740    1.409   .     A
C739   Cl752   1.772   .     S
C740   C201    1.400   1_556 S
C740   O229    1.382   1_556 S
C741   Cl753   1.770   .     S
C742   C746    1.423   .     A
C743   C747    1.403   .     A
C744   C745    1.393   .     A
C744   C197    1.401   1_556 S
C744   C203    1.419   1_556 S
C745   H760    1.084   .     S
C745   C746    1.391   .     A
C746   O770    1.376   .     S
C747   O768    1.382   .     S
C748   H755    1.081   .     S
H756   O770    0.991   .     S
H762   O778    0.973   .     S
H763   O768    0.991   .     S
H764   O229    0.989   1_556 S
N765   Zn779   2.030   .     S
N766   Zn780   2.030   .     S
O767   Zn779   1.990   .     S
O771   Zn780   2.002   .     S
O772   Zn779   1.938   .     S
O773   Zn780   1.895   .     S
O774   Zn779   2.002   .     S
O775   Zn780   1.990   .     S
O776   Zn779   1.895   .     S
O777   Zn780   1.938   .     S
C781   O831    1.296   .     A
C781   O827    1.286   .     A
C781   C789    1.422   .     S
C782   C784    1.464   .     S
C782   C802    1.408   .     A
C782   C799    1.415   .     A
C783   C789    1.403   .     A
C783   Cl814   1.758   .     S
C783   C965    1.370   .     S
C784   O833    1.306   .     A
C784   O832    1.293   .     A
C785   H817    1.080   .     S
C785   C786    1.389   .     A
C786   C787    1.389   .     A
C786   C795    1.411   .     S
C787   H818    1.083   .     S
C788   Cl809   1.764   .     S
C788   C789    1.411   .     A
C788   C967    1.377   .     S
C790   N826    1.370   .     A
C790   Cl810   1.757   .     S
C790   C851    1.426   .     S
C791   Cl811   1.760   .     S
C791   N825    1.374   .     A
C792   C802    1.407   .     A
C792   C261    1.422   1_556 S
C792   C263    1.416   1_556 S
C793   N825    1.353   .     A
C793   H819    1.081   .     S
C794   N826    1.390   .     A
C794   O838    1.369   .     S
C794   C853    1.412   .     S
C795   O834    1.292   .     A
C795   O835    1.286   .     A
C796   O836    1.300   .     A
C796   O837    1.297   .     A
C796   C798    1.451   .     S
C797   H821    1.084   .     S
C797   C808    1.391   .     A
C798   C808    1.399   .     A
C798   C807    1.399   .     A
C799   C800    1.409   .     A
C799   Cl812   1.772   .     S
C800   C261    1.400   1_556 S
C800   O289    1.382   1_556 S
C801   Cl813   1.770   .     S
C802   C806    1.423   .     A
C803   C807    1.403   .     A
C804   C805    1.393   .     A
C804   C257    1.401   1_556 S
C804   C263    1.419   1_556 S
C805   H820    1.084   .     S
C805   C806    1.391   .     A
C806   O830    1.376   .     S
C807   O828    1.382   .     S
C808   H815    1.081   .     S
H816   O830    0.991   .     S
H822   O838    0.973   .     S
H823   O828    0.991   .     S
H824   O289    0.989   1_556 S
N825   Zn839   2.030   .     S
N826   Zn840   2.030   .     S
O827   Zn839   1.990   .     S
O831   Zn840   2.002   .     S
O832   Zn839   1.938   .     S
O833   Zn840   1.895   .     S
O834   Zn839   2.002   .     S
O835   Zn840   1.990   .     S
O836   Zn839   1.895   .     S
O837   Zn840   1.938   .     S
C841   O891    1.296   .     A
C841   O887    1.286   .     A
C841   C849    1.422   .     S
C842   C844    1.464   .     S
C842   C862    1.408   .     A
C842   C859    1.415   .     A
C843   C849    1.403   .     A
C843   Cl874   1.758   .     S
C843   C1025   1.370   .     S
C844   O893    1.306   .     A
C844   O892    1.293   .     A
C845   H877    1.080   .     S
C845   C846    1.389   .     A
C846   C847    1.389   .     A
C846   C855    1.411   .     S
C847   H878    1.083   .     S
C848   Cl869   1.764   .     S
C848   C849    1.411   .     A
C848   C1027   1.377   .     S
C850   N886    1.370   .     A
C850   Cl870   1.757   .     S
C850   C731    1.426   1_655 S
C851   Cl871   1.760   .     S
C851   N885    1.374   .     A
C852   C862    1.407   .     A
C852   C321    1.422   1_556 S
C852   C323    1.416   1_556 S
C853   N885    1.353   .     A
C853   H879    1.081   .     S
C854   N886    1.390   .     A
C854   O898    1.369   .     S
C854   C733    1.412   1_655 S
C855   O894    1.292   .     A
C855   O895    1.286   .     A
C856   O896    1.300   .     A
C856   O897    1.297   .     A
C856   C858    1.451   .     S
C857   H881    1.084   .     S
C857   C868    1.391   .     A
C858   C868    1.399   .     A
C858   C867    1.399   .     A
C859   C860    1.409   .     A
C859   Cl872   1.772   .     S
C860   C321    1.400   1_556 S
C860   O349    1.382   1_556 S
C861   Cl873   1.770   .     S
C862   C866    1.423   .     A
C863   C867    1.403   .     A
C864   C865    1.393   .     A
C864   C317    1.401   1_556 S
C864   C323    1.419   1_556 S
C865   H880    1.084   .     S
C865   C866    1.391   .     A
C866   O890    1.376   .     S
C867   O888    1.382   .     S
C868   H875    1.081   .     S
H876   O890    0.991   .     S
H882   O898    0.973   .     S
H883   O888    0.991   .     S
H884   O349    0.989   1_556 S
N885   Zn899   2.030   .     S
N886   Zn900   2.030   .     S
O887   Zn899   1.990   .     S
O891   Zn900   2.002   .     S
O892   Zn899   1.938   .     S
O893   Zn900   1.895   .     S
O894   Zn899   2.002   .     S
O895   Zn900   1.990   .     S
O896   Zn899   1.895   .     S
O897   Zn900   1.938   .     S
C901   O951    1.296   .     A
C901   O947    1.286   .     A
C901   C909    1.422   .     S
C902   C904    1.464   .     S
C902   C922    1.408   .     A
C902   C919    1.415   .     A
C903   C909    1.403   .     A
C903   Cl934   1.758   .     S
C903   C545    1.370   1_565 S
C904   O953    1.306   .     A
C904   O952    1.293   .     A
C905   H937    1.080   .     S
C905   C906    1.389   .     A
C906   C907    1.389   .     A
C906   C915    1.411   .     S
C907   H938    1.083   .     S
C908   Cl929   1.764   .     S
C908   C909    1.411   .     A
C908   C547    1.377   1_565 S
C910   N946    1.370   .     A
C910   Cl930   1.757   .     S
C910   C971    1.426   .     S
C911   Cl931   1.760   .     S
C911   N945    1.374   .     A
C911   C1030   1.426   1_455 S
C912   C922    1.407   .     A
C912   C381    1.422   1_556 S
C912   C383    1.416   1_556 S
C913   N945    1.353   .     A
C913   H939    1.081   .     S
C913   C1034   1.412   1_455 S
C914   N946    1.390   .     A
C914   O958    1.369   .     S
C914   C973    1.412   .     S
C915   O954    1.292   .     A
C915   O955    1.286   .     A
C916   O956    1.300   .     A
C916   O957    1.297   .     A
C916   C918    1.451   .     S
C917   H941    1.084   .     S
C917   C928    1.391   .     A
C918   C928    1.399   .     A
C918   C927    1.399   .     A
C919   C920    1.409   .     A
C919   Cl932   1.772   .     S
C920   C381    1.400   1_556 S
C920   O409    1.382   1_556 S
C921   Cl933   1.770   .     S
C922   C926    1.423   .     A
C923   C927    1.403   .     A
C924   C925    1.393   .     A
C924   C377    1.401   1_556 S
C924   C383    1.419   1_556 S
C925   H940    1.084   .     S
C925   C926    1.391   .     A
C926   O950    1.376   .     S
C927   O948    1.382   .     S
C928   H935    1.081   .     S
H936   O950    0.991   .     S
H942   O958    0.973   .     S
H943   O948    0.991   .     S
H944   O409    0.989   1_556 S
N945   Zn959   2.030   .     S
N946   Zn960   2.030   .     S
O947   Zn959   1.990   .     S
O951   Zn960   2.002   .     S
O952   Zn959   1.938   .     S
O953   Zn960   1.895   .     S
O954   Zn959   2.002   .     S
O955   Zn960   1.990   .     S
O956   Zn959   1.895   .     S
O957   Zn960   1.938   .     S
C961   O1011   1.296   .     A
C961   O1007   1.286   .     A
C961   C969    1.422   .     S
C962   C964    1.464   .     S
C962   C982    1.408   .     A
C962   C979    1.415   .     A
C963   C969    1.403   .     A
C963   Cl994   1.758   .     S
C963   C605    1.370   1_565 S
C964   O1013   1.306   .     A
C964   O1012   1.293   .     A
C965   H997    1.080   .     S
C965   C966    1.389   .     A
C966   C967    1.389   .     A
C966   C975    1.411   .     S
C967   H998    1.083   .     S
C968   Cl989   1.764   .     S
C968   C969    1.411   .     A
C968   C607    1.377   1_565 S
C970   N1006   1.370   .     A
C970   Cl990   1.757   .     S
C970   C1031   1.426   .     S
C971   Cl991   1.760   .     S
C971   N1005   1.374   .     A
C972   C982    1.407   .     A
C972   C441    1.422   1_556 S
C972   C443    1.416   1_556 S
C973   N1005   1.353   .     A
C973   H999    1.081   .     S
C974   N1006   1.390   .     A
C974   O1018   1.369   .     S
C974   C1033   1.412   .     S
C975   O1014   1.292   .     A
C975   O1015   1.286   .     A
C976   O1016   1.300   .     A
C976   O1017   1.297   .     A
C976   C978    1.451   .     S
C977   H1001   1.084   .     S
C977   C988    1.391   .     A
C978   C988    1.399   .     A
C978   C987    1.399   .     A
C979   C980    1.409   .     A
C979   Cl992   1.772   .     S
C980   C441    1.400   1_556 S
C980   O469    1.382   1_556 S
C981   Cl993   1.770   .     S
C982   C986    1.423   .     A
C983   C987    1.403   .     A
C984   C985    1.393   .     A
C984   C437    1.401   1_556 S
C984   C443    1.419   1_556 S
C985   H1000   1.084   .     S
C985   C986    1.391   .     A
C986   O1010   1.376   .     S
C987   O1008   1.382   .     S
C988   H995    1.081   .     S
H996   O1010   0.991   .     S
H1002  O1018   0.973   .     S
H1003  O1008   0.991   .     S
H1004  O469    0.989   1_556 S
N1005  Zn1019  2.030   .     S
N1006  Zn1020  2.030   .     S
O1007  Zn1019  1.990   .     S
O1011  Zn1020  2.002   .     S
O1012  Zn1019  1.938   .     S
O1013  Zn1020  1.895   .     S
O1014  Zn1019  2.002   .     S
O1015  Zn1020  1.990   .     S
O1016  Zn1019  1.895   .     S
O1017  Zn1020  1.938   .     S
C1021  O1071   1.296   .     A
C1021  O1067   1.286   .     A
C1021  C1029   1.422   .     S
C1022  C1024   1.464   .     S
C1022  C1042   1.408   .     A
C1022  C1039   1.415   .     A
C1023  C1029   1.403   .     A
C1023  Cl1054  1.758   .     S
C1023  C665    1.370   1_565 S
C1024  O1073   1.306   .     A
C1024  O1072   1.293   .     A
C1025  H1057   1.080   .     S
C1025  C1026   1.389   .     A
C1026  C1027   1.389   .     A
C1026  C1035   1.411   .     S
C1027  H1058   1.083   .     S
C1028  Cl1049  1.764   .     S
C1028  C1029   1.411   .     A
C1028  C667    1.377   1_565 S
C1030  N1066   1.370   .     A
C1030  Cl1050  1.757   .     S
C1030  C911    1.426   1_655 S
C1031  Cl1051  1.760   .     S
C1031  N1065   1.374   .     A
C1032  C1042   1.407   .     A
C1032  C501    1.422   1_556 S
C1032  C503    1.416   1_556 S
C1033  N1065   1.353   .     A
C1033  H1059   1.081   .     S
C1034  N1066   1.390   .     A
C1034  O1078   1.369   .     S
C1034  C913    1.412   1_655 S
C1035  O1074   1.292   .     A
C1035  O1075   1.286   .     A
C1036  O1076   1.300   .     A
C1036  O1077   1.297   .     A
C1036  C1038   1.451   .     S
C1037  H1061   1.084   .     S
C1037  C1048   1.391   .     A
C1038  C1048   1.399   .     A
C1038  C1047   1.399   .     A
C1039  C1040   1.409   .     A
C1039  Cl1052  1.772   .     S
C1040  C501    1.400   1_556 S
C1040  O529    1.382   1_556 S
C1041  Cl1053  1.770   .     S
C1042  C1046   1.423   .     A
C1043  C1047   1.403   .     A
C1044  C1045   1.393   .     A
C1044  C497    1.401   1_556 S
C1044  C503    1.419   1_556 S
C1045  H1060   1.084   .     S
C1045  C1046   1.391   .     A
C1046  O1070   1.376   .     S
C1047  O1068   1.382   .     S
C1048  H1055   1.081   .     S
H1056  O1070   0.991   .     S
H1062  O1078   0.973   .     S
H1063  O1068   0.991   .     S
H1064  O529    0.989   1_556 S
N1065  Zn1079  2.030   .     S
N1066  Zn1080  2.030   .     S
O1067  Zn1079  1.990   .     S
O1071  Zn1080  2.002   .     S
O1072  Zn1079  1.938   .     S
O1073  Zn1080  1.895   .     S
O1074  Zn1079  2.002   .     S
O1075  Zn1080  1.990   .     S
O1076  Zn1079  1.895   .     S
O1077  Zn1080  1.938   .     S
