data_str_m3_o10_o16_pcu_sym.136
_audit_creation_date              2020-01-03
_audit_creation_method            'Materials Studio'
_symmetry_space_group_name_H-M    'P1'
_symmetry_Int_Tables_number       1
_symmetry_cell_setting            triclinic
loop_
_symmetry_equiv_pos_as_xyz
  x,y,z
_cell_length_a                    23.5676
_cell_length_b                    25.7473
_cell_length_c                    24.2233
_cell_angle_alpha                 92.5451
_cell_angle_beta                  101.4380
_cell_angle_gamma                 93.7443
loop_
_atom_site_label
_atom_site_type_symbol
_atom_site_fract_x
_atom_site_fract_y
_atom_site_fract_z
_atom_site_U_iso_or_equiv
_atom_site_adp_type
_atom_site_occupancy
C1     C     0.01390   0.26459   0.24583   0.00000  Uiso   1.00
C2     C     0.05392   0.16703   0.41619   0.00000  Uiso   1.00
C3     C     0.01834   0.31774   0.23432   0.00000  Uiso   1.00
C4     C     0.03549   0.16780   0.35519   0.00000  Uiso   1.00
C5     C     0.31154   0.01390   0.24939   0.00000  Uiso   1.00
C6     C     0.31808   0.06842   0.24873   0.00000  Uiso   1.00
C7     C     0.29764   0.16340   0.14501   0.00000  Uiso   1.00
C8     C     0.27224   0.09631   0.00298   0.00000  Uiso   1.00
C9     C     0.27796   0.15384   0.08518   0.00000  Uiso   1.00
C10    C     0.02424   0.19459   0.45145   0.00000  Uiso   1.00
C11    C     0.04781   0.20245   0.00876   0.00000  Uiso   1.00
C12    C     0.13456   0.16168   0.49419   0.00000  Uiso   1.00
C13    C     0.10260   0.18611   0.03019   0.00000  Uiso   1.00
C14    C     0.10603   0.14517   0.43918   0.00000  Uiso   1.00
C15    C     0.19297   0.15080   0.01196   0.00000  Uiso   1.00
C16    C     0.21748   0.11331   0.48041   0.00000  Uiso   1.00
C17    C     0.18626   0.09328   0.42772   0.00000  Uiso   1.00
C18    C     0.13083   0.10835   0.40807   0.00000  Uiso   1.00
C19    C     0.22858   0.17675   0.05963   0.00000  Uiso   1.00
C20    C     0.30066   0.11429   0.05675   0.00000  Uiso   1.00
H21    H     0.00626   0.09673   0.07649   0.00000  Uiso   1.00
H22    H     0.29159   0.06667   0.48142   0.00000  Uiso   1.00
H23    H     0.31691   0.21087   0.43459   0.00000  Uiso   1.00
H24    H     0.11913   0.19175   0.07512   0.00000  Uiso   1.00
H25    H     0.27638   0.33160   0.26831   0.00000  Uiso   1.00
H26    H     0.15643   0.12555   0.20749   0.00000  Uiso   1.00
H27    H     0.02440   0.22258   0.03634   0.00000  Uiso   1.00
H28    H     0.10716   0.09025   0.36831   0.00000  Uiso   1.00
I29    I     0.17797   0.23748   0.32446   0.00000  Uiso   1.00
I30    I     0.22205   0.04580   0.37173   0.00000  Uiso   1.00
I31    I     0.22157   0.25696   0.08497   0.00000  Uiso   1.00
I32    I     0.08289   0.00594   0.18586   0.00000  Uiso   1.00
N33    N     0.14493   0.15223   0.23543   0.00000  Uiso   1.00
N34    N     0.18840   0.18110   0.26458   0.00000  Uiso   1.00
O35    O     0.29769   0.24629   0.25358   0.00000  Uiso   1.00
O36    O     0.05742   0.23704   0.24424   0.00000  Uiso   1.00
O37    O     0.31490   0.17358   0.33380   0.00000  Uiso   1.00
O38    O     0.07463   0.16433   0.32446   0.00000  Uiso   1.00
O39    O     0.27592   0.09629   0.25577   0.00000  Uiso   1.00
O40    O     0.03565   0.08704   0.24643   0.00000  Uiso   1.00
O41    O     0.25870   0.16901   0.17554   0.00000  Uiso   1.00
O42    O     0.01843   0.15976   0.16620   0.00000  Uiso   1.00
Zn43   Zn    0.27119   0.17284   0.25624   0.00000  Uiso   1.00
Zn44   Zn    0.06214   0.16049   0.24377   0.00000  Uiso   1.00
C45    C     0.34723   0.26459   0.24583   0.00000  Uiso   1.00
C46    C     0.38725   0.16703   0.41619   0.00000  Uiso   1.00
C47    C     0.35168   0.31774   0.23432   0.00000  Uiso   1.00
C48    C     0.36882   0.16780   0.35519   0.00000  Uiso   1.00
C49    C     0.64487   0.01390   0.24939   0.00000  Uiso   1.00
C50    C     0.65142   0.06842   0.24873   0.00000  Uiso   1.00
C51    C     0.63098   0.16340   0.14501   0.00000  Uiso   1.00
C52    C     0.60558   0.09631   0.00298   0.00000  Uiso   1.00
C53    C     0.61130   0.15384   0.08518   0.00000  Uiso   1.00
C54    C     0.35758   0.19459   0.45145   0.00000  Uiso   1.00
C55    C     0.38114   0.20245   0.00876   0.00000  Uiso   1.00
C56    C     0.46789   0.16168   0.49419   0.00000  Uiso   1.00
C57    C     0.43593   0.18611   0.03019   0.00000  Uiso   1.00
C58    C     0.43937   0.14517   0.43918   0.00000  Uiso   1.00
C59    C     0.52630   0.15080   0.01196   0.00000  Uiso   1.00
C60    C     0.55081   0.11331   0.48041   0.00000  Uiso   1.00
C61    C     0.51959   0.09328   0.42772   0.00000  Uiso   1.00
C62    C     0.46417   0.10835   0.40807   0.00000  Uiso   1.00
C63    C     0.56192   0.17675   0.05963   0.00000  Uiso   1.00
C64    C     0.63400   0.11429   0.05675   0.00000  Uiso   1.00
H65    H     0.33959   0.09673   0.07649   0.00000  Uiso   1.00
H66    H     0.62493   0.06667   0.48142   0.00000  Uiso   1.00
H67    H     0.65024   0.21087   0.43459   0.00000  Uiso   1.00
H68    H     0.45246   0.19175   0.07512   0.00000  Uiso   1.00
H69    H     0.60971   0.33160   0.26831   0.00000  Uiso   1.00
H70    H     0.48976   0.12555   0.20749   0.00000  Uiso   1.00
H71    H     0.35774   0.22258   0.03634   0.00000  Uiso   1.00
H72    H     0.44050   0.09025   0.36831   0.00000  Uiso   1.00
I73    I     0.51130   0.23748   0.32446   0.00000  Uiso   1.00
I74    I     0.55539   0.04580   0.37173   0.00000  Uiso   1.00
I75    I     0.55490   0.25696   0.08497   0.00000  Uiso   1.00
I76    I     0.41622   0.00594   0.18586   0.00000  Uiso   1.00
N77    N     0.47827   0.15223   0.23543   0.00000  Uiso   1.00
N78    N     0.52173   0.18110   0.26458   0.00000  Uiso   1.00
O79    O     0.63102   0.24629   0.25358   0.00000  Uiso   1.00
O80    O     0.39075   0.23704   0.24424   0.00000  Uiso   1.00
O81    O     0.64823   0.17358   0.33380   0.00000  Uiso   1.00
O82    O     0.40796   0.16433   0.32446   0.00000  Uiso   1.00
O83    O     0.60925   0.09629   0.25577   0.00000  Uiso   1.00
O84    O     0.36898   0.08704   0.24643   0.00000  Uiso   1.00
O85    O     0.59204   0.16901   0.17554   0.00000  Uiso   1.00
O86    O     0.35177   0.15976   0.16620   0.00000  Uiso   1.00
Zn87   Zn    0.60453   0.17284   0.25624   0.00000  Uiso   1.00
Zn88   Zn    0.39547   0.16049   0.24377   0.00000  Uiso   1.00
C89    C     0.68056   0.26459   0.24583   0.00000  Uiso   1.00
C90    C     0.72058   0.16703   0.41619   0.00000  Uiso   1.00
C91    C     0.68501   0.31774   0.23432   0.00000  Uiso   1.00
C92    C     0.70215   0.16780   0.35519   0.00000  Uiso   1.00
C93    C     0.97821   0.01390   0.24939   0.00000  Uiso   1.00
C94    C     0.98475   0.06842   0.24873   0.00000  Uiso   1.00
C95    C     0.96431   0.16340   0.14501   0.00000  Uiso   1.00
C96    C     0.93891   0.09631   0.00298   0.00000  Uiso   1.00
C97    C     0.94463   0.15384   0.08518   0.00000  Uiso   1.00
C98    C     0.69091   0.19459   0.45145   0.00000  Uiso   1.00
C99    C     0.71447   0.20245   0.00876   0.00000  Uiso   1.00
C100   C     0.80123   0.16168   0.49419   0.00000  Uiso   1.00
C101   C     0.76927   0.18611   0.03019   0.00000  Uiso   1.00
C102   C     0.77270   0.14517   0.43918   0.00000  Uiso   1.00
C103   C     0.85964   0.15080   0.01196   0.00000  Uiso   1.00
C104   C     0.88414   0.11331   0.48041   0.00000  Uiso   1.00
C105   C     0.85292   0.09328   0.42772   0.00000  Uiso   1.00
C106   C     0.79750   0.10835   0.40807   0.00000  Uiso   1.00
C107   C     0.89525   0.17675   0.05963   0.00000  Uiso   1.00
C108   C     0.96733   0.11429   0.05675   0.00000  Uiso   1.00
H109   H     0.67292   0.09673   0.07649   0.00000  Uiso   1.00
H110   H     0.95826   0.06667   0.48142   0.00000  Uiso   1.00
H111   H     0.98357   0.21087   0.43459   0.00000  Uiso   1.00
H112   H     0.78579   0.19175   0.07512   0.00000  Uiso   1.00
H113   H     0.94304   0.33160   0.26831   0.00000  Uiso   1.00
H114   H     0.82310   0.12555   0.20749   0.00000  Uiso   1.00
H115   H     0.69107   0.22258   0.03634   0.00000  Uiso   1.00
H116   H     0.77383   0.09025   0.36831   0.00000  Uiso   1.00
I117   I     0.84464   0.23748   0.32446   0.00000  Uiso   1.00
I118   I     0.88872   0.04580   0.37173   0.00000  Uiso   1.00
I119   I     0.88824   0.25696   0.08497   0.00000  Uiso   1.00
I120   I     0.74955   0.00594   0.18586   0.00000  Uiso   1.00
N121   N     0.81160   0.15223   0.23543   0.00000  Uiso   1.00
N122   N     0.85507   0.18110   0.26458   0.00000  Uiso   1.00
O123   O     0.96435   0.24629   0.25358   0.00000  Uiso   1.00
O124   O     0.72408   0.23704   0.24424   0.00000  Uiso   1.00
O125   O     0.98157   0.17358   0.33380   0.00000  Uiso   1.00
O126   O     0.74130   0.16433   0.32446   0.00000  Uiso   1.00
O127   O     0.94258   0.09629   0.25577   0.00000  Uiso   1.00
O128   O     0.70231   0.08704   0.24643   0.00000  Uiso   1.00
O129   O     0.92537   0.16901   0.17554   0.00000  Uiso   1.00
O130   O     0.68510   0.15976   0.16620   0.00000  Uiso   1.00
Zn131  Zn    0.93786   0.17284   0.25624   0.00000  Uiso   1.00
Zn132  Zn    0.72881   0.16049   0.24377   0.00000  Uiso   1.00
C133   C     0.01390   0.59793   0.24583   0.00000  Uiso   1.00
C134   C     0.05392   0.50037   0.41619   0.00000  Uiso   1.00
C135   C     0.01834   0.65107   0.23432   0.00000  Uiso   1.00
C136   C     0.03549   0.50114   0.35519   0.00000  Uiso   1.00
C137   C     0.31154   0.34724   0.24939   0.00000  Uiso   1.00
C138   C     0.31808   0.40175   0.24873   0.00000  Uiso   1.00
C139   C     0.29764   0.49673   0.14501   0.00000  Uiso   1.00
C140   C     0.27224   0.42964   0.00298   0.00000  Uiso   1.00
C141   C     0.27796   0.48717   0.08518   0.00000  Uiso   1.00
C142   C     0.02424   0.52792   0.45145   0.00000  Uiso   1.00
C143   C     0.04781   0.53578   0.00876   0.00000  Uiso   1.00
C144   C     0.13456   0.49501   0.49419   0.00000  Uiso   1.00
C145   C     0.10260   0.51945   0.03019   0.00000  Uiso   1.00
C146   C     0.10603   0.47851   0.43918   0.00000  Uiso   1.00
C147   C     0.19297   0.48413   0.01196   0.00000  Uiso   1.00
C148   C     0.21748   0.44664   0.48041   0.00000  Uiso   1.00
C149   C     0.18626   0.42662   0.42772   0.00000  Uiso   1.00
C150   C     0.13083   0.44169   0.40807   0.00000  Uiso   1.00
C151   C     0.22858   0.51008   0.05963   0.00000  Uiso   1.00
C152   C     0.30066   0.44763   0.05675   0.00000  Uiso   1.00
H153   H     0.00626   0.43006   0.07649   0.00000  Uiso   1.00
H154   H     0.29159   0.40000   0.48142   0.00000  Uiso   1.00
H155   H     0.31691   0.54420   0.43459   0.00000  Uiso   1.00
H156   H     0.11913   0.52509   0.07512   0.00000  Uiso   1.00
H157   H     0.27638   0.66493   0.26831   0.00000  Uiso   1.00
H158   H     0.15643   0.45888   0.20749   0.00000  Uiso   1.00
H159   H     0.02440   0.55591   0.03634   0.00000  Uiso   1.00
H160   H     0.10716   0.42358   0.36831   0.00000  Uiso   1.00
I161   I     0.17797   0.57082   0.32446   0.00000  Uiso   1.00
I162   I     0.22205   0.37914   0.37173   0.00000  Uiso   1.00
I163   I     0.22157   0.59029   0.08497   0.00000  Uiso   1.00
I164   I     0.08289   0.33927   0.18586   0.00000  Uiso   1.00
N165   N     0.14493   0.48556   0.23543   0.00000  Uiso   1.00
N166   N     0.18840   0.51444   0.26458   0.00000  Uiso   1.00
O167   O     0.29769   0.57963   0.25358   0.00000  Uiso   1.00
O168   O     0.05742   0.57038   0.24424   0.00000  Uiso   1.00
O169   O     0.31490   0.50691   0.33380   0.00000  Uiso   1.00
O170   O     0.07463   0.49766   0.32446   0.00000  Uiso   1.00
O171   O     0.27592   0.42962   0.25577   0.00000  Uiso   1.00
O172   O     0.03565   0.42037   0.24643   0.00000  Uiso   1.00
O173   O     0.25870   0.50234   0.17554   0.00000  Uiso   1.00
O174   O     0.01843   0.49309   0.16620   0.00000  Uiso   1.00
Zn175  Zn    0.27119   0.50618   0.25624   0.00000  Uiso   1.00
Zn176  Zn    0.06214   0.49382   0.24377   0.00000  Uiso   1.00
C177   C     0.34723   0.59793   0.24583   0.00000  Uiso   1.00
C178   C     0.38725   0.50037   0.41619   0.00000  Uiso   1.00
C179   C     0.35168   0.65107   0.23432   0.00000  Uiso   1.00
C180   C     0.36882   0.50114   0.35519   0.00000  Uiso   1.00
C181   C     0.64487   0.34724   0.24939   0.00000  Uiso   1.00
C182   C     0.65142   0.40175   0.24873   0.00000  Uiso   1.00
C183   C     0.63098   0.49673   0.14501   0.00000  Uiso   1.00
C184   C     0.60558   0.42964   0.00298   0.00000  Uiso   1.00
C185   C     0.61130   0.48717   0.08518   0.00000  Uiso   1.00
C186   C     0.35758   0.52792   0.45145   0.00000  Uiso   1.00
C187   C     0.38114   0.53578   0.00876   0.00000  Uiso   1.00
C188   C     0.46789   0.49501   0.49419   0.00000  Uiso   1.00
C189   C     0.43593   0.51945   0.03019   0.00000  Uiso   1.00
C190   C     0.43937   0.47851   0.43918   0.00000  Uiso   1.00
C191   C     0.52630   0.48413   0.01196   0.00000  Uiso   1.00
C192   C     0.55081   0.44664   0.48041   0.00000  Uiso   1.00
C193   C     0.51959   0.42662   0.42772   0.00000  Uiso   1.00
C194   C     0.46417   0.44169   0.40807   0.00000  Uiso   1.00
C195   C     0.56192   0.51008   0.05963   0.00000  Uiso   1.00
C196   C     0.63400   0.44763   0.05675   0.00000  Uiso   1.00
H197   H     0.33959   0.43006   0.07649   0.00000  Uiso   1.00
H198   H     0.62493   0.40000   0.48142   0.00000  Uiso   1.00
H199   H     0.65024   0.54420   0.43459   0.00000  Uiso   1.00
H200   H     0.45246   0.52509   0.07512   0.00000  Uiso   1.00
H201   H     0.60971   0.66493   0.26831   0.00000  Uiso   1.00
H202   H     0.48976   0.45888   0.20749   0.00000  Uiso   1.00
H203   H     0.35774   0.55591   0.03634   0.00000  Uiso   1.00
H204   H     0.44050   0.42358   0.36831   0.00000  Uiso   1.00
I205   I     0.51130   0.57082   0.32446   0.00000  Uiso   1.00
I206   I     0.55539   0.37914   0.37173   0.00000  Uiso   1.00
I207   I     0.55490   0.59029   0.08497   0.00000  Uiso   1.00
I208   I     0.41622   0.33927   0.18586   0.00000  Uiso   1.00
N209   N     0.47827   0.48556   0.23543   0.00000  Uiso   1.00
N210   N     0.52173   0.51444   0.26458   0.00000  Uiso   1.00
O211   O     0.63102   0.57963   0.25358   0.00000  Uiso   1.00
O212   O     0.39075   0.57038   0.24424   0.00000  Uiso   1.00
O213   O     0.64823   0.50691   0.33380   0.00000  Uiso   1.00
O214   O     0.40796   0.49766   0.32446   0.00000  Uiso   1.00
O215   O     0.60925   0.42962   0.25577   0.00000  Uiso   1.00
O216   O     0.36898   0.42037   0.24643   0.00000  Uiso   1.00
O217   O     0.59204   0.50234   0.17554   0.00000  Uiso   1.00
O218   O     0.35177   0.49309   0.16620   0.00000  Uiso   1.00
Zn219  Zn    0.60453   0.50618   0.25624   0.00000  Uiso   1.00
Zn220  Zn    0.39547   0.49382   0.24377   0.00000  Uiso   1.00
C221   C     0.68056   0.59793   0.24583   0.00000  Uiso   1.00
C222   C     0.72058   0.50037   0.41619   0.00000  Uiso   1.00
C223   C     0.68501   0.65107   0.23432   0.00000  Uiso   1.00
C224   C     0.70215   0.50114   0.35519   0.00000  Uiso   1.00
C225   C     0.97821   0.34724   0.24939   0.00000  Uiso   1.00
C226   C     0.98475   0.40175   0.24873   0.00000  Uiso   1.00
C227   C     0.96431   0.49673   0.14501   0.00000  Uiso   1.00
C228   C     0.93891   0.42964   0.00298   0.00000  Uiso   1.00
C229   C     0.94463   0.48717   0.08518   0.00000  Uiso   1.00
C230   C     0.69091   0.52792   0.45145   0.00000  Uiso   1.00
C231   C     0.71447   0.53578   0.00876   0.00000  Uiso   1.00
C232   C     0.80123   0.49501   0.49419   0.00000  Uiso   1.00
C233   C     0.76927   0.51945   0.03019   0.00000  Uiso   1.00
C234   C     0.77270   0.47851   0.43918   0.00000  Uiso   1.00
C235   C     0.85964   0.48413   0.01196   0.00000  Uiso   1.00
C236   C     0.88414   0.44664   0.48041   0.00000  Uiso   1.00
C237   C     0.85292   0.42662   0.42772   0.00000  Uiso   1.00
C238   C     0.79750   0.44169   0.40807   0.00000  Uiso   1.00
C239   C     0.89525   0.51008   0.05963   0.00000  Uiso   1.00
C240   C     0.96733   0.44763   0.05675   0.00000  Uiso   1.00
H241   H     0.67292   0.43006   0.07649   0.00000  Uiso   1.00
H242   H     0.95826   0.40000   0.48142   0.00000  Uiso   1.00
H243   H     0.98357   0.54420   0.43459   0.00000  Uiso   1.00
H244   H     0.78579   0.52509   0.07512   0.00000  Uiso   1.00
H245   H     0.94304   0.66493   0.26831   0.00000  Uiso   1.00
H246   H     0.82310   0.45888   0.20749   0.00000  Uiso   1.00
H247   H     0.69107   0.55591   0.03634   0.00000  Uiso   1.00
H248   H     0.77383   0.42358   0.36831   0.00000  Uiso   1.00
I249   I     0.84464   0.57082   0.32446   0.00000  Uiso   1.00
I250   I     0.88872   0.37914   0.37173   0.00000  Uiso   1.00
I251   I     0.88824   0.59029   0.08497   0.00000  Uiso   1.00
I252   I     0.74955   0.33927   0.18586   0.00000  Uiso   1.00
N253   N     0.81160   0.48556   0.23543   0.00000  Uiso   1.00
N254   N     0.85507   0.51444   0.26458   0.00000  Uiso   1.00
O255   O     0.96435   0.57963   0.25358   0.00000  Uiso   1.00
O256   O     0.72408   0.57038   0.24424   0.00000  Uiso   1.00
O257   O     0.98157   0.50691   0.33380   0.00000  Uiso   1.00
O258   O     0.74130   0.49766   0.32446   0.00000  Uiso   1.00
O259   O     0.94258   0.42962   0.25577   0.00000  Uiso   1.00
O260   O     0.70231   0.42037   0.24643   0.00000  Uiso   1.00
O261   O     0.92537   0.50234   0.17554   0.00000  Uiso   1.00
O262   O     0.68510   0.49309   0.16620   0.00000  Uiso   1.00
Zn263  Zn    0.93786   0.50618   0.25624   0.00000  Uiso   1.00
Zn264  Zn    0.72881   0.49382   0.24377   0.00000  Uiso   1.00
C265   C     0.01390   0.93126   0.24583   0.00000  Uiso   1.00
C266   C     0.05392   0.83370   0.41619   0.00000  Uiso   1.00
C267   C     0.01834   0.98440   0.23432   0.00000  Uiso   1.00
C268   C     0.03549   0.83447   0.35519   0.00000  Uiso   1.00
C269   C     0.31154   0.68057   0.24939   0.00000  Uiso   1.00
C270   C     0.31808   0.73508   0.24873   0.00000  Uiso   1.00
C271   C     0.29764   0.83007   0.14501   0.00000  Uiso   1.00
C272   C     0.27224   0.76297   0.00298   0.00000  Uiso   1.00
C273   C     0.27796   0.82051   0.08518   0.00000  Uiso   1.00
C274   C     0.02424   0.86126   0.45145   0.00000  Uiso   1.00
C275   C     0.04781   0.86911   0.00876   0.00000  Uiso   1.00
C276   C     0.13456   0.82835   0.49419   0.00000  Uiso   1.00
C277   C     0.10260   0.85278   0.03019   0.00000  Uiso   1.00
C278   C     0.10603   0.81184   0.43918   0.00000  Uiso   1.00
C279   C     0.19297   0.81747   0.01196   0.00000  Uiso   1.00
C280   C     0.21748   0.77998   0.48041   0.00000  Uiso   1.00
C281   C     0.18626   0.75995   0.42772   0.00000  Uiso   1.00
C282   C     0.13083   0.77502   0.40807   0.00000  Uiso   1.00
C283   C     0.22858   0.84342   0.05963   0.00000  Uiso   1.00
C284   C     0.30066   0.78096   0.05675   0.00000  Uiso   1.00
H285   H     0.00626   0.76339   0.07649   0.00000  Uiso   1.00
H286   H     0.29159   0.73333   0.48142   0.00000  Uiso   1.00
H287   H     0.31691   0.87754   0.43459   0.00000  Uiso   1.00
H288   H     0.11913   0.85842   0.07512   0.00000  Uiso   1.00
H289   H     0.27638   0.99826   0.26831   0.00000  Uiso   1.00
H290   H     0.15643   0.79221   0.20749   0.00000  Uiso   1.00
H291   H     0.02440   0.88924   0.03634   0.00000  Uiso   1.00
H292   H     0.10716   0.75691   0.36831   0.00000  Uiso   1.00
I293   I     0.17797   0.90415   0.32446   0.00000  Uiso   1.00
I294   I     0.22205   0.71247   0.37173   0.00000  Uiso   1.00
I295   I     0.22157   0.92362   0.08497   0.00000  Uiso   1.00
I296   I     0.08289   0.67260   0.18586   0.00000  Uiso   1.00
N297   N     0.14493   0.81890   0.23543   0.00000  Uiso   1.00
N298   N     0.18840   0.84777   0.26458   0.00000  Uiso   1.00
O299   O     0.29769   0.91296   0.25358   0.00000  Uiso   1.00
O300   O     0.05742   0.90371   0.24424   0.00000  Uiso   1.00
O301   O     0.31490   0.84024   0.33380   0.00000  Uiso   1.00
O302   O     0.07463   0.83099   0.32446   0.00000  Uiso   1.00
O303   O     0.27592   0.76296   0.25577   0.00000  Uiso   1.00
O304   O     0.03565   0.75371   0.24643   0.00000  Uiso   1.00
O305   O     0.25870   0.83567   0.17554   0.00000  Uiso   1.00
O306   O     0.01843   0.82642   0.16620   0.00000  Uiso   1.00
Zn307  Zn    0.27119   0.83951   0.25624   0.00000  Uiso   1.00
Zn308  Zn    0.06214   0.82716   0.24377   0.00000  Uiso   1.00
C309   C     0.34723   0.93126   0.24583   0.00000  Uiso   1.00
C310   C     0.38725   0.83370   0.41619   0.00000  Uiso   1.00
C311   C     0.35168   0.98440   0.23432   0.00000  Uiso   1.00
C312   C     0.36882   0.83447   0.35519   0.00000  Uiso   1.00
C313   C     0.64487   0.68057   0.24939   0.00000  Uiso   1.00
C314   C     0.65142   0.73508   0.24873   0.00000  Uiso   1.00
C315   C     0.63098   0.83007   0.14501   0.00000  Uiso   1.00
C316   C     0.60558   0.76297   0.00298   0.00000  Uiso   1.00
C317   C     0.61130   0.82051   0.08518   0.00000  Uiso   1.00
C318   C     0.35758   0.86126   0.45145   0.00000  Uiso   1.00
C319   C     0.38114   0.86911   0.00876   0.00000  Uiso   1.00
C320   C     0.46789   0.82835   0.49419   0.00000  Uiso   1.00
C321   C     0.43593   0.85278   0.03019   0.00000  Uiso   1.00
C322   C     0.43937   0.81184   0.43918   0.00000  Uiso   1.00
C323   C     0.52630   0.81747   0.01196   0.00000  Uiso   1.00
C324   C     0.55081   0.77998   0.48041   0.00000  Uiso   1.00
C325   C     0.51959   0.75995   0.42772   0.00000  Uiso   1.00
C326   C     0.46417   0.77502   0.40807   0.00000  Uiso   1.00
C327   C     0.56192   0.84342   0.05963   0.00000  Uiso   1.00
C328   C     0.63400   0.78096   0.05675   0.00000  Uiso   1.00
H329   H     0.33959   0.76339   0.07649   0.00000  Uiso   1.00
H330   H     0.62493   0.73333   0.48142   0.00000  Uiso   1.00
H331   H     0.65024   0.87754   0.43459   0.00000  Uiso   1.00
H332   H     0.45246   0.85842   0.07512   0.00000  Uiso   1.00
H333   H     0.60971   0.99826   0.26831   0.00000  Uiso   1.00
H334   H     0.48976   0.79221   0.20749   0.00000  Uiso   1.00
H335   H     0.35774   0.88924   0.03634   0.00000  Uiso   1.00
H336   H     0.44050   0.75691   0.36831   0.00000  Uiso   1.00
I337   I     0.51130   0.90415   0.32446   0.00000  Uiso   1.00
I338   I     0.55539   0.71247   0.37173   0.00000  Uiso   1.00
I339   I     0.55490   0.92362   0.08497   0.00000  Uiso   1.00
I340   I     0.41622   0.67260   0.18586   0.00000  Uiso   1.00
N341   N     0.47827   0.81890   0.23543   0.00000  Uiso   1.00
N342   N     0.52173   0.84777   0.26458   0.00000  Uiso   1.00
O343   O     0.63102   0.91296   0.25358   0.00000  Uiso   1.00
O344   O     0.39075   0.90371   0.24424   0.00000  Uiso   1.00
O345   O     0.64823   0.84024   0.33380   0.00000  Uiso   1.00
O346   O     0.40796   0.83099   0.32446   0.00000  Uiso   1.00
O347   O     0.60925   0.76296   0.25577   0.00000  Uiso   1.00
O348   O     0.36898   0.75371   0.24643   0.00000  Uiso   1.00
O349   O     0.59204   0.83567   0.17554   0.00000  Uiso   1.00
O350   O     0.35177   0.82642   0.16620   0.00000  Uiso   1.00
Zn351  Zn    0.60453   0.83951   0.25624   0.00000  Uiso   1.00
Zn352  Zn    0.39547   0.82716   0.24377   0.00000  Uiso   1.00
C353   C     0.68056   0.93126   0.24583   0.00000  Uiso   1.00
C354   C     0.72058   0.83370   0.41619   0.00000  Uiso   1.00
C355   C     0.68501   0.98440   0.23432   0.00000  Uiso   1.00
C356   C     0.70215   0.83447   0.35519   0.00000  Uiso   1.00
C357   C     0.97821   0.68057   0.24939   0.00000  Uiso   1.00
C358   C     0.98475   0.73508   0.24873   0.00000  Uiso   1.00
C359   C     0.96431   0.83007   0.14501   0.00000  Uiso   1.00
C360   C     0.93891   0.76297   0.00298   0.00000  Uiso   1.00
C361   C     0.94463   0.82051   0.08518   0.00000  Uiso   1.00
C362   C     0.69091   0.86126   0.45145   0.00000  Uiso   1.00
C363   C     0.71447   0.86911   0.00876   0.00000  Uiso   1.00
C364   C     0.80123   0.82835   0.49419   0.00000  Uiso   1.00
C365   C     0.76927   0.85278   0.03019   0.00000  Uiso   1.00
C366   C     0.77270   0.81184   0.43918   0.00000  Uiso   1.00
C367   C     0.85964   0.81747   0.01196   0.00000  Uiso   1.00
C368   C     0.88414   0.77998   0.48041   0.00000  Uiso   1.00
C369   C     0.85292   0.75995   0.42772   0.00000  Uiso   1.00
C370   C     0.79750   0.77502   0.40807   0.00000  Uiso   1.00
C371   C     0.89525   0.84342   0.05963   0.00000  Uiso   1.00
C372   C     0.96733   0.78096   0.05675   0.00000  Uiso   1.00
H373   H     0.67292   0.76339   0.07649   0.00000  Uiso   1.00
H374   H     0.95826   0.73333   0.48142   0.00000  Uiso   1.00
H375   H     0.98357   0.87754   0.43459   0.00000  Uiso   1.00
H376   H     0.78579   0.85842   0.07512   0.00000  Uiso   1.00
H377   H     0.94304   0.99826   0.26831   0.00000  Uiso   1.00
H378   H     0.82310   0.79221   0.20749   0.00000  Uiso   1.00
H379   H     0.69107   0.88924   0.03634   0.00000  Uiso   1.00
H380   H     0.77383   0.75691   0.36831   0.00000  Uiso   1.00
I381   I     0.84464   0.90415   0.32446   0.00000  Uiso   1.00
I382   I     0.88872   0.71247   0.37173   0.00000  Uiso   1.00
I383   I     0.88824   0.92362   0.08497   0.00000  Uiso   1.00
I384   I     0.74955   0.67260   0.18586   0.00000  Uiso   1.00
N385   N     0.81160   0.81890   0.23543   0.00000  Uiso   1.00
N386   N     0.85507   0.84777   0.26458   0.00000  Uiso   1.00
O387   O     0.96435   0.91296   0.25358   0.00000  Uiso   1.00
O388   O     0.72408   0.90371   0.24424   0.00000  Uiso   1.00
O389   O     0.98157   0.84024   0.33380   0.00000  Uiso   1.00
O390   O     0.74130   0.83099   0.32446   0.00000  Uiso   1.00
O391   O     0.94258   0.76296   0.25577   0.00000  Uiso   1.00
O392   O     0.70231   0.75371   0.24643   0.00000  Uiso   1.00
O393   O     0.92537   0.83567   0.17554   0.00000  Uiso   1.00
O394   O     0.68510   0.82642   0.16620   0.00000  Uiso   1.00
Zn395  Zn    0.93786   0.83951   0.25624   0.00000  Uiso   1.00
Zn396  Zn    0.72881   0.82716   0.24377   0.00000  Uiso   1.00
C397   C     0.01390   0.26459   0.74583   0.00000  Uiso   1.00
C398   C     0.05392   0.16703   0.91619   0.00000  Uiso   1.00
C399   C     0.01834   0.31774   0.73432   0.00000  Uiso   1.00
C400   C     0.03549   0.16780   0.85519   0.00000  Uiso   1.00
C401   C     0.31154   0.01390   0.74939   0.00000  Uiso   1.00
C402   C     0.31808   0.06842   0.74873   0.00000  Uiso   1.00
C403   C     0.29764   0.16340   0.64501   0.00000  Uiso   1.00
C404   C     0.27224   0.09631   0.50298   0.00000  Uiso   1.00
C405   C     0.27796   0.15384   0.58518   0.00000  Uiso   1.00
C406   C     0.02424   0.19459   0.95145   0.00000  Uiso   1.00
C407   C     0.04781   0.20245   0.50876   0.00000  Uiso   1.00
C408   C     0.13456   0.16168   0.99419   0.00000  Uiso   1.00
C409   C     0.10260   0.18611   0.53019   0.00000  Uiso   1.00
C410   C     0.10603   0.14517   0.93918   0.00000  Uiso   1.00
C411   C     0.19297   0.15080   0.51196   0.00000  Uiso   1.00
C412   C     0.21748   0.11331   0.98041   0.00000  Uiso   1.00
C413   C     0.18626   0.09328   0.92772   0.00000  Uiso   1.00
C414   C     0.13083   0.10835   0.90807   0.00000  Uiso   1.00
C415   C     0.22858   0.17675   0.55963   0.00000  Uiso   1.00
C416   C     0.30066   0.11429   0.55675   0.00000  Uiso   1.00
H417   H     0.00626   0.09673   0.57649   0.00000  Uiso   1.00
H418   H     0.29159   0.06667   0.98142   0.00000  Uiso   1.00
H419   H     0.31691   0.21087   0.93459   0.00000  Uiso   1.00
H420   H     0.11913   0.19175   0.57512   0.00000  Uiso   1.00
H421   H     0.27638   0.33160   0.76831   0.00000  Uiso   1.00
H422   H     0.15643   0.12555   0.70749   0.00000  Uiso   1.00
H423   H     0.02440   0.22258   0.53634   0.00000  Uiso   1.00
H424   H     0.10716   0.09025   0.86831   0.00000  Uiso   1.00
I425   I     0.17797   0.23748   0.82446   0.00000  Uiso   1.00
I426   I     0.22205   0.04580   0.87173   0.00000  Uiso   1.00
I427   I     0.22157   0.25696   0.58497   0.00000  Uiso   1.00
I428   I     0.08289   0.00594   0.68586   0.00000  Uiso   1.00
N429   N     0.14493   0.15223   0.73543   0.00000  Uiso   1.00
N430   N     0.18840   0.18110   0.76458   0.00000  Uiso   1.00
O431   O     0.29769   0.24629   0.75358   0.00000  Uiso   1.00
O432   O     0.05742   0.23704   0.74424   0.00000  Uiso   1.00
O433   O     0.31490   0.17358   0.83380   0.00000  Uiso   1.00
O434   O     0.07463   0.16433   0.82446   0.00000  Uiso   1.00
O435   O     0.27592   0.09629   0.75577   0.00000  Uiso   1.00
O436   O     0.03565   0.08704   0.74643   0.00000  Uiso   1.00
O437   O     0.25870   0.16901   0.67554   0.00000  Uiso   1.00
O438   O     0.01843   0.15976   0.66620   0.00000  Uiso   1.00
Zn439  Zn    0.27119   0.17284   0.75624   0.00000  Uiso   1.00
Zn440  Zn    0.06214   0.16049   0.74377   0.00000  Uiso   1.00
C441   C     0.34723   0.26459   0.74583   0.00000  Uiso   1.00
C442   C     0.38725   0.16703   0.91619   0.00000  Uiso   1.00
C443   C     0.35168   0.31774   0.73432   0.00000  Uiso   1.00
C444   C     0.36882   0.16780   0.85519   0.00000  Uiso   1.00
C445   C     0.64487   0.01390   0.74939   0.00000  Uiso   1.00
C446   C     0.65142   0.06842   0.74873   0.00000  Uiso   1.00
C447   C     0.63098   0.16340   0.64501   0.00000  Uiso   1.00
C448   C     0.60558   0.09631   0.50298   0.00000  Uiso   1.00
C449   C     0.61130   0.15384   0.58518   0.00000  Uiso   1.00
C450   C     0.35758   0.19459   0.95145   0.00000  Uiso   1.00
C451   C     0.38114   0.20245   0.50876   0.00000  Uiso   1.00
C452   C     0.46789   0.16168   0.99419   0.00000  Uiso   1.00
C453   C     0.43593   0.18611   0.53019   0.00000  Uiso   1.00
C454   C     0.43937   0.14517   0.93918   0.00000  Uiso   1.00
C455   C     0.52630   0.15080   0.51196   0.00000  Uiso   1.00
C456   C     0.55081   0.11331   0.98041   0.00000  Uiso   1.00
C457   C     0.51959   0.09328   0.92772   0.00000  Uiso   1.00
C458   C     0.46417   0.10835   0.90807   0.00000  Uiso   1.00
C459   C     0.56192   0.17675   0.55963   0.00000  Uiso   1.00
C460   C     0.63400   0.11429   0.55675   0.00000  Uiso   1.00
H461   H     0.33959   0.09673   0.57649   0.00000  Uiso   1.00
H462   H     0.62493   0.06667   0.98142   0.00000  Uiso   1.00
H463   H     0.65024   0.21087   0.93459   0.00000  Uiso   1.00
H464   H     0.45246   0.19175   0.57512   0.00000  Uiso   1.00
H465   H     0.60971   0.33160   0.76831   0.00000  Uiso   1.00
H466   H     0.48976   0.12555   0.70749   0.00000  Uiso   1.00
H467   H     0.35774   0.22258   0.53634   0.00000  Uiso   1.00
H468   H     0.44050   0.09025   0.86831   0.00000  Uiso   1.00
I469   I     0.51130   0.23748   0.82446   0.00000  Uiso   1.00
I470   I     0.55539   0.04580   0.87173   0.00000  Uiso   1.00
I471   I     0.55490   0.25696   0.58497   0.00000  Uiso   1.00
I472   I     0.41622   0.00594   0.68586   0.00000  Uiso   1.00
N473   N     0.47827   0.15223   0.73543   0.00000  Uiso   1.00
N474   N     0.52173   0.18110   0.76458   0.00000  Uiso   1.00
O475   O     0.63102   0.24629   0.75358   0.00000  Uiso   1.00
O476   O     0.39075   0.23704   0.74424   0.00000  Uiso   1.00
O477   O     0.64823   0.17358   0.83380   0.00000  Uiso   1.00
O478   O     0.40796   0.16433   0.82446   0.00000  Uiso   1.00
O479   O     0.60925   0.09629   0.75577   0.00000  Uiso   1.00
O480   O     0.36898   0.08704   0.74643   0.00000  Uiso   1.00
O481   O     0.59204   0.16901   0.67554   0.00000  Uiso   1.00
O482   O     0.35177   0.15976   0.66620   0.00000  Uiso   1.00
Zn483  Zn    0.60453   0.17284   0.75624   0.00000  Uiso   1.00
Zn484  Zn    0.39547   0.16049   0.74377   0.00000  Uiso   1.00
C485   C     0.68056   0.26459   0.74583   0.00000  Uiso   1.00
C486   C     0.72058   0.16703   0.91619   0.00000  Uiso   1.00
C487   C     0.68501   0.31774   0.73432   0.00000  Uiso   1.00
C488   C     0.70215   0.16780   0.85519   0.00000  Uiso   1.00
C489   C     0.97821   0.01390   0.74939   0.00000  Uiso   1.00
C490   C     0.98475   0.06842   0.74873   0.00000  Uiso   1.00
C491   C     0.96431   0.16340   0.64501   0.00000  Uiso   1.00
C492   C     0.93891   0.09631   0.50298   0.00000  Uiso   1.00
C493   C     0.94463   0.15384   0.58518   0.00000  Uiso   1.00
C494   C     0.69091   0.19459   0.95145   0.00000  Uiso   1.00
C495   C     0.71447   0.20245   0.50876   0.00000  Uiso   1.00
C496   C     0.80123   0.16168   0.99419   0.00000  Uiso   1.00
C497   C     0.76927   0.18611   0.53019   0.00000  Uiso   1.00
C498   C     0.77270   0.14517   0.93918   0.00000  Uiso   1.00
C499   C     0.85964   0.15080   0.51196   0.00000  Uiso   1.00
C500   C     0.88414   0.11331   0.98041   0.00000  Uiso   1.00
C501   C     0.85292   0.09328   0.92772   0.00000  Uiso   1.00
C502   C     0.79750   0.10835   0.90807   0.00000  Uiso   1.00
C503   C     0.89525   0.17675   0.55963   0.00000  Uiso   1.00
C504   C     0.96733   0.11429   0.55675   0.00000  Uiso   1.00
H505   H     0.67292   0.09673   0.57649   0.00000  Uiso   1.00
H506   H     0.95826   0.06667   0.98142   0.00000  Uiso   1.00
H507   H     0.98357   0.21087   0.93459   0.00000  Uiso   1.00
H508   H     0.78579   0.19175   0.57512   0.00000  Uiso   1.00
H509   H     0.94304   0.33160   0.76831   0.00000  Uiso   1.00
H510   H     0.82310   0.12555   0.70749   0.00000  Uiso   1.00
H511   H     0.69107   0.22258   0.53634   0.00000  Uiso   1.00
H512   H     0.77383   0.09025   0.86831   0.00000  Uiso   1.00
I513   I     0.84464   0.23748   0.82446   0.00000  Uiso   1.00
I514   I     0.88872   0.04580   0.87173   0.00000  Uiso   1.00
I515   I     0.88824   0.25696   0.58497   0.00000  Uiso   1.00
I516   I     0.74955   0.00594   0.68586   0.00000  Uiso   1.00
N517   N     0.81160   0.15223   0.73543   0.00000  Uiso   1.00
N518   N     0.85507   0.18110   0.76458   0.00000  Uiso   1.00
O519   O     0.96435   0.24629   0.75358   0.00000  Uiso   1.00
O520   O     0.72408   0.23704   0.74424   0.00000  Uiso   1.00
O521   O     0.98157   0.17358   0.83380   0.00000  Uiso   1.00
O522   O     0.74130   0.16433   0.82446   0.00000  Uiso   1.00
O523   O     0.94258   0.09629   0.75577   0.00000  Uiso   1.00
O524   O     0.70231   0.08704   0.74643   0.00000  Uiso   1.00
O525   O     0.92537   0.16901   0.67554   0.00000  Uiso   1.00
O526   O     0.68510   0.15976   0.66620   0.00000  Uiso   1.00
Zn527  Zn    0.93786   0.17284   0.75624   0.00000  Uiso   1.00
Zn528  Zn    0.72881   0.16049   0.74377   0.00000  Uiso   1.00
C529   C     0.01390   0.59793   0.74583   0.00000  Uiso   1.00
C530   C     0.05392   0.50037   0.91619   0.00000  Uiso   1.00
C531   C     0.01834   0.65107   0.73432   0.00000  Uiso   1.00
C532   C     0.03549   0.50114   0.85519   0.00000  Uiso   1.00
C533   C     0.31154   0.34724   0.74939   0.00000  Uiso   1.00
C534   C     0.31808   0.40175   0.74873   0.00000  Uiso   1.00
C535   C     0.29764   0.49673   0.64501   0.00000  Uiso   1.00
C536   C     0.27224   0.42964   0.50298   0.00000  Uiso   1.00
C537   C     0.27796   0.48717   0.58518   0.00000  Uiso   1.00
C538   C     0.02424   0.52792   0.95145   0.00000  Uiso   1.00
C539   C     0.04781   0.53578   0.50876   0.00000  Uiso   1.00
C540   C     0.13456   0.49501   0.99419   0.00000  Uiso   1.00
C541   C     0.10260   0.51945   0.53019   0.00000  Uiso   1.00
C542   C     0.10603   0.47851   0.93918   0.00000  Uiso   1.00
C543   C     0.19297   0.48413   0.51196   0.00000  Uiso   1.00
C544   C     0.21748   0.44664   0.98041   0.00000  Uiso   1.00
C545   C     0.18626   0.42662   0.92772   0.00000  Uiso   1.00
C546   C     0.13083   0.44169   0.90807   0.00000  Uiso   1.00
C547   C     0.22858   0.51008   0.55963   0.00000  Uiso   1.00
C548   C     0.30066   0.44763   0.55675   0.00000  Uiso   1.00
H549   H     0.00626   0.43006   0.57649   0.00000  Uiso   1.00
H550   H     0.29159   0.40000   0.98142   0.00000  Uiso   1.00
H551   H     0.31691   0.54420   0.93459   0.00000  Uiso   1.00
H552   H     0.11913   0.52509   0.57512   0.00000  Uiso   1.00
H553   H     0.27638   0.66493   0.76831   0.00000  Uiso   1.00
H554   H     0.15643   0.45888   0.70749   0.00000  Uiso   1.00
H555   H     0.02440   0.55591   0.53634   0.00000  Uiso   1.00
H556   H     0.10716   0.42358   0.86831   0.00000  Uiso   1.00
I557   I     0.17797   0.57082   0.82446   0.00000  Uiso   1.00
I558   I     0.22205   0.37914   0.87173   0.00000  Uiso   1.00
I559   I     0.22157   0.59029   0.58497   0.00000  Uiso   1.00
I560   I     0.08289   0.33927   0.68586   0.00000  Uiso   1.00
N561   N     0.14493   0.48556   0.73543   0.00000  Uiso   1.00
N562   N     0.18840   0.51444   0.76458   0.00000  Uiso   1.00
O563   O     0.29769   0.57963   0.75358   0.00000  Uiso   1.00
O564   O     0.05742   0.57038   0.74424   0.00000  Uiso   1.00
O565   O     0.31490   0.50691   0.83380   0.00000  Uiso   1.00
O566   O     0.07463   0.49766   0.82446   0.00000  Uiso   1.00
O567   O     0.27592   0.42962   0.75577   0.00000  Uiso   1.00
O568   O     0.03565   0.42037   0.74643   0.00000  Uiso   1.00
O569   O     0.25870   0.50234   0.67554   0.00000  Uiso   1.00
O570   O     0.01843   0.49309   0.66620   0.00000  Uiso   1.00
Zn571  Zn    0.27119   0.50618   0.75624   0.00000  Uiso   1.00
Zn572  Zn    0.06214   0.49382   0.74377   0.00000  Uiso   1.00
C573   C     0.34723   0.59793   0.74583   0.00000  Uiso   1.00
C574   C     0.38725   0.50037   0.91619   0.00000  Uiso   1.00
C575   C     0.35168   0.65107   0.73432   0.00000  Uiso   1.00
C576   C     0.36882   0.50114   0.85519   0.00000  Uiso   1.00
C577   C     0.64487   0.34724   0.74939   0.00000  Uiso   1.00
C578   C     0.65142   0.40175   0.74873   0.00000  Uiso   1.00
C579   C     0.63098   0.49673   0.64501   0.00000  Uiso   1.00
C580   C     0.60558   0.42964   0.50298   0.00000  Uiso   1.00
C581   C     0.61130   0.48717   0.58518   0.00000  Uiso   1.00
C582   C     0.35758   0.52792   0.95145   0.00000  Uiso   1.00
C583   C     0.38114   0.53578   0.50876   0.00000  Uiso   1.00
C584   C     0.46789   0.49501   0.99419   0.00000  Uiso   1.00
C585   C     0.43593   0.51945   0.53019   0.00000  Uiso   1.00
C586   C     0.43937   0.47851   0.93918   0.00000  Uiso   1.00
C587   C     0.52630   0.48413   0.51196   0.00000  Uiso   1.00
C588   C     0.55081   0.44664   0.98041   0.00000  Uiso   1.00
C589   C     0.51959   0.42662   0.92772   0.00000  Uiso   1.00
C590   C     0.46417   0.44169   0.90807   0.00000  Uiso   1.00
C591   C     0.56192   0.51008   0.55963   0.00000  Uiso   1.00
C592   C     0.63400   0.44763   0.55675   0.00000  Uiso   1.00
H593   H     0.33959   0.43006   0.57649   0.00000  Uiso   1.00
H594   H     0.62493   0.40000   0.98142   0.00000  Uiso   1.00
H595   H     0.65024   0.54420   0.93459   0.00000  Uiso   1.00
H596   H     0.45246   0.52509   0.57512   0.00000  Uiso   1.00
H597   H     0.60971   0.66493   0.76831   0.00000  Uiso   1.00
H598   H     0.48976   0.45888   0.70749   0.00000  Uiso   1.00
H599   H     0.35774   0.55591   0.53634   0.00000  Uiso   1.00
H600   H     0.44050   0.42358   0.86831   0.00000  Uiso   1.00
I601   I     0.51130   0.57082   0.82446   0.00000  Uiso   1.00
I602   I     0.55539   0.37914   0.87173   0.00000  Uiso   1.00
I603   I     0.55490   0.59029   0.58497   0.00000  Uiso   1.00
I604   I     0.41622   0.33927   0.68586   0.00000  Uiso   1.00
N605   N     0.47827   0.48556   0.73543   0.00000  Uiso   1.00
N606   N     0.52173   0.51444   0.76458   0.00000  Uiso   1.00
O607   O     0.63102   0.57963   0.75358   0.00000  Uiso   1.00
O608   O     0.39075   0.57038   0.74424   0.00000  Uiso   1.00
O609   O     0.64823   0.50691   0.83380   0.00000  Uiso   1.00
O610   O     0.40796   0.49766   0.82446   0.00000  Uiso   1.00
O611   O     0.60925   0.42962   0.75577   0.00000  Uiso   1.00
O612   O     0.36898   0.42037   0.74643   0.00000  Uiso   1.00
O613   O     0.59204   0.50234   0.67554   0.00000  Uiso   1.00
O614   O     0.35177   0.49309   0.66620   0.00000  Uiso   1.00
Zn615  Zn    0.60453   0.50618   0.75624   0.00000  Uiso   1.00
Zn616  Zn    0.39547   0.49382   0.74377   0.00000  Uiso   1.00
C617   C     0.68056   0.59793   0.74583   0.00000  Uiso   1.00
C618   C     0.72058   0.50037   0.91619   0.00000  Uiso   1.00
C619   C     0.68501   0.65107   0.73432   0.00000  Uiso   1.00
C620   C     0.70215   0.50114   0.85519   0.00000  Uiso   1.00
C621   C     0.97821   0.34724   0.74939   0.00000  Uiso   1.00
C622   C     0.98475   0.40175   0.74873   0.00000  Uiso   1.00
C623   C     0.96431   0.49673   0.64501   0.00000  Uiso   1.00
C624   C     0.93891   0.42964   0.50298   0.00000  Uiso   1.00
C625   C     0.94463   0.48717   0.58518   0.00000  Uiso   1.00
C626   C     0.69091   0.52792   0.95145   0.00000  Uiso   1.00
C627   C     0.71447   0.53578   0.50876   0.00000  Uiso   1.00
C628   C     0.80123   0.49501   0.99419   0.00000  Uiso   1.00
C629   C     0.76927   0.51945   0.53019   0.00000  Uiso   1.00
C630   C     0.77270   0.47851   0.93918   0.00000  Uiso   1.00
C631   C     0.85964   0.48413   0.51196   0.00000  Uiso   1.00
C632   C     0.88414   0.44664   0.98041   0.00000  Uiso   1.00
C633   C     0.85292   0.42662   0.92772   0.00000  Uiso   1.00
C634   C     0.79750   0.44169   0.90807   0.00000  Uiso   1.00
C635   C     0.89525   0.51008   0.55963   0.00000  Uiso   1.00
C636   C     0.96733   0.44763   0.55675   0.00000  Uiso   1.00
H637   H     0.67292   0.43006   0.57649   0.00000  Uiso   1.00
H638   H     0.95826   0.40000   0.98142   0.00000  Uiso   1.00
H639   H     0.98357   0.54420   0.93459   0.00000  Uiso   1.00
H640   H     0.78579   0.52509   0.57512   0.00000  Uiso   1.00
H641   H     0.94304   0.66493   0.76831   0.00000  Uiso   1.00
H642   H     0.82310   0.45888   0.70749   0.00000  Uiso   1.00
H643   H     0.69107   0.55591   0.53634   0.00000  Uiso   1.00
H644   H     0.77383   0.42358   0.86831   0.00000  Uiso   1.00
I645   I     0.84464   0.57082   0.82446   0.00000  Uiso   1.00
I646   I     0.88872   0.37914   0.87173   0.00000  Uiso   1.00
I647   I     0.88824   0.59029   0.58497   0.00000  Uiso   1.00
I648   I     0.74955   0.33927   0.68586   0.00000  Uiso   1.00
N649   N     0.81160   0.48556   0.73543   0.00000  Uiso   1.00
N650   N     0.85507   0.51444   0.76458   0.00000  Uiso   1.00
O651   O     0.96435   0.57963   0.75358   0.00000  Uiso   1.00
O652   O     0.72408   0.57038   0.74424   0.00000  Uiso   1.00
O653   O     0.98157   0.50691   0.83380   0.00000  Uiso   1.00
O654   O     0.74130   0.49766   0.82446   0.00000  Uiso   1.00
O655   O     0.94258   0.42962   0.75577   0.00000  Uiso   1.00
O656   O     0.70231   0.42037   0.74643   0.00000  Uiso   1.00
O657   O     0.92537   0.50234   0.67554   0.00000  Uiso   1.00
O658   O     0.68510   0.49309   0.66620   0.00000  Uiso   1.00
Zn659  Zn    0.93786   0.50618   0.75624   0.00000  Uiso   1.00
Zn660  Zn    0.72881   0.49382   0.74377   0.00000  Uiso   1.00
C661   C     0.01390   0.93126   0.74583   0.00000  Uiso   1.00
C662   C     0.05392   0.83370   0.91619   0.00000  Uiso   1.00
C663   C     0.01834   0.98440   0.73432   0.00000  Uiso   1.00
C664   C     0.03549   0.83447   0.85519   0.00000  Uiso   1.00
C665   C     0.31154   0.68057   0.74939   0.00000  Uiso   1.00
C666   C     0.31808   0.73508   0.74873   0.00000  Uiso   1.00
C667   C     0.29764   0.83007   0.64501   0.00000  Uiso   1.00
C668   C     0.27224   0.76297   0.50298   0.00000  Uiso   1.00
C669   C     0.27796   0.82051   0.58518   0.00000  Uiso   1.00
C670   C     0.02424   0.86126   0.95145   0.00000  Uiso   1.00
C671   C     0.04781   0.86911   0.50876   0.00000  Uiso   1.00
C672   C     0.13456   0.82835   0.99419   0.00000  Uiso   1.00
C673   C     0.10260   0.85278   0.53019   0.00000  Uiso   1.00
C674   C     0.10603   0.81184   0.93918   0.00000  Uiso   1.00
C675   C     0.19297   0.81747   0.51196   0.00000  Uiso   1.00
C676   C     0.21748   0.77998   0.98041   0.00000  Uiso   1.00
C677   C     0.18626   0.75995   0.92772   0.00000  Uiso   1.00
C678   C     0.13083   0.77502   0.90807   0.00000  Uiso   1.00
C679   C     0.22858   0.84342   0.55963   0.00000  Uiso   1.00
C680   C     0.30066   0.78096   0.55675   0.00000  Uiso   1.00
H681   H     0.00626   0.76339   0.57649   0.00000  Uiso   1.00
H682   H     0.29159   0.73333   0.98142   0.00000  Uiso   1.00
H683   H     0.31691   0.87754   0.93459   0.00000  Uiso   1.00
H684   H     0.11913   0.85842   0.57512   0.00000  Uiso   1.00
H685   H     0.27638   0.99826   0.76831   0.00000  Uiso   1.00
H686   H     0.15643   0.79221   0.70749   0.00000  Uiso   1.00
H687   H     0.02440   0.88924   0.53634   0.00000  Uiso   1.00
H688   H     0.10716   0.75691   0.86831   0.00000  Uiso   1.00
I689   I     0.17797   0.90415   0.82446   0.00000  Uiso   1.00
I690   I     0.22205   0.71247   0.87173   0.00000  Uiso   1.00
I691   I     0.22157   0.92362   0.58497   0.00000  Uiso   1.00
I692   I     0.08289   0.67260   0.68586   0.00000  Uiso   1.00
N693   N     0.14493   0.81890   0.73543   0.00000  Uiso   1.00
N694   N     0.18840   0.84777   0.76458   0.00000  Uiso   1.00
O695   O     0.29769   0.91296   0.75358   0.00000  Uiso   1.00
O696   O     0.05742   0.90371   0.74424   0.00000  Uiso   1.00
O697   O     0.31490   0.84024   0.83380   0.00000  Uiso   1.00
O698   O     0.07463   0.83099   0.82446   0.00000  Uiso   1.00
O699   O     0.27592   0.76296   0.75577   0.00000  Uiso   1.00
O700   O     0.03565   0.75371   0.74643   0.00000  Uiso   1.00
O701   O     0.25870   0.83567   0.67554   0.00000  Uiso   1.00
O702   O     0.01843   0.82642   0.66620   0.00000  Uiso   1.00
Zn703  Zn    0.27119   0.83951   0.75624   0.00000  Uiso   1.00
Zn704  Zn    0.06214   0.82716   0.74377   0.00000  Uiso   1.00
C705   C     0.34723   0.93126   0.74583   0.00000  Uiso   1.00
C706   C     0.38725   0.83370   0.91619   0.00000  Uiso   1.00
C707   C     0.35168   0.98440   0.73432   0.00000  Uiso   1.00
C708   C     0.36882   0.83447   0.85519   0.00000  Uiso   1.00
C709   C     0.64487   0.68057   0.74939   0.00000  Uiso   1.00
C710   C     0.65142   0.73508   0.74873   0.00000  Uiso   1.00
C711   C     0.63098   0.83007   0.64501   0.00000  Uiso   1.00
C712   C     0.60558   0.76297   0.50298   0.00000  Uiso   1.00
C713   C     0.61130   0.82051   0.58518   0.00000  Uiso   1.00
C714   C     0.35758   0.86126   0.95145   0.00000  Uiso   1.00
C715   C     0.38114   0.86911   0.50876   0.00000  Uiso   1.00
C716   C     0.46789   0.82835   0.99419   0.00000  Uiso   1.00
C717   C     0.43593   0.85278   0.53019   0.00000  Uiso   1.00
C718   C     0.43937   0.81184   0.93918   0.00000  Uiso   1.00
C719   C     0.52630   0.81747   0.51196   0.00000  Uiso   1.00
C720   C     0.55081   0.77998   0.98041   0.00000  Uiso   1.00
C721   C     0.51959   0.75995   0.92772   0.00000  Uiso   1.00
C722   C     0.46417   0.77502   0.90807   0.00000  Uiso   1.00
C723   C     0.56192   0.84342   0.55963   0.00000  Uiso   1.00
C724   C     0.63400   0.78096   0.55675   0.00000  Uiso   1.00
H725   H     0.33959   0.76339   0.57649   0.00000  Uiso   1.00
H726   H     0.62493   0.73333   0.98142   0.00000  Uiso   1.00
H727   H     0.65024   0.87754   0.93459   0.00000  Uiso   1.00
H728   H     0.45246   0.85842   0.57512   0.00000  Uiso   1.00
H729   H     0.60971   0.99826   0.76831   0.00000  Uiso   1.00
H730   H     0.48976   0.79221   0.70749   0.00000  Uiso   1.00
H731   H     0.35774   0.88924   0.53634   0.00000  Uiso   1.00
H732   H     0.44050   0.75691   0.86831   0.00000  Uiso   1.00
I733   I     0.51130   0.90415   0.82446   0.00000  Uiso   1.00
I734   I     0.55539   0.71247   0.87173   0.00000  Uiso   1.00
I735   I     0.55490   0.92362   0.58497   0.00000  Uiso   1.00
I736   I     0.41622   0.67260   0.68586   0.00000  Uiso   1.00
N737   N     0.47827   0.81890   0.73543   0.00000  Uiso   1.00
N738   N     0.52173   0.84777   0.76458   0.00000  Uiso   1.00
O739   O     0.63102   0.91296   0.75358   0.00000  Uiso   1.00
O740   O     0.39075   0.90371   0.74424   0.00000  Uiso   1.00
O741   O     0.64823   0.84024   0.83380   0.00000  Uiso   1.00
O742   O     0.40796   0.83099   0.82446   0.00000  Uiso   1.00
O743   O     0.60925   0.76296   0.75577   0.00000  Uiso   1.00
O744   O     0.36898   0.75371   0.74643   0.00000  Uiso   1.00
O745   O     0.59204   0.83567   0.67554   0.00000  Uiso   1.00
O746   O     0.35177   0.82642   0.66620   0.00000  Uiso   1.00
Zn747  Zn    0.60453   0.83951   0.75624   0.00000  Uiso   1.00
Zn748  Zn    0.39547   0.82716   0.74377   0.00000  Uiso   1.00
C749   C     0.68056   0.93126   0.74583   0.00000  Uiso   1.00
C750   C     0.72058   0.83370   0.91619   0.00000  Uiso   1.00
C751   C     0.68501   0.98440   0.73432   0.00000  Uiso   1.00
C752   C     0.70215   0.83447   0.85519   0.00000  Uiso   1.00
C753   C     0.97821   0.68057   0.74939   0.00000  Uiso   1.00
C754   C     0.98475   0.73508   0.74873   0.00000  Uiso   1.00
C755   C     0.96431   0.83007   0.64501   0.00000  Uiso   1.00
C756   C     0.93891   0.76297   0.50298   0.00000  Uiso   1.00
C757   C     0.94463   0.82051   0.58518   0.00000  Uiso   1.00
C758   C     0.69091   0.86126   0.95145   0.00000  Uiso   1.00
C759   C     0.71447   0.86911   0.50876   0.00000  Uiso   1.00
C760   C     0.80123   0.82835   0.99419   0.00000  Uiso   1.00
C761   C     0.76927   0.85278   0.53019   0.00000  Uiso   1.00
C762   C     0.77270   0.81184   0.93918   0.00000  Uiso   1.00
C763   C     0.85964   0.81747   0.51196   0.00000  Uiso   1.00
C764   C     0.88414   0.77998   0.98041   0.00000  Uiso   1.00
C765   C     0.85292   0.75995   0.92772   0.00000  Uiso   1.00
C766   C     0.79750   0.77502   0.90807   0.00000  Uiso   1.00
C767   C     0.89525   0.84342   0.55963   0.00000  Uiso   1.00
C768   C     0.96733   0.78096   0.55675   0.00000  Uiso   1.00
H769   H     0.67292   0.76339   0.57649   0.00000  Uiso   1.00
H770   H     0.95826   0.73333   0.98142   0.00000  Uiso   1.00
H771   H     0.98357   0.87754   0.93459   0.00000  Uiso   1.00
H772   H     0.78579   0.85842   0.57512   0.00000  Uiso   1.00
H773   H     0.94304   0.99826   0.76831   0.00000  Uiso   1.00
H774   H     0.82310   0.79221   0.70749   0.00000  Uiso   1.00
H775   H     0.69107   0.88924   0.53634   0.00000  Uiso   1.00
H776   H     0.77383   0.75691   0.86831   0.00000  Uiso   1.00
I777   I     0.84464   0.90415   0.82446   0.00000  Uiso   1.00
I778   I     0.88872   0.71247   0.87173   0.00000  Uiso   1.00
I779   I     0.88824   0.92362   0.58497   0.00000  Uiso   1.00
I780   I     0.74955   0.67260   0.68586   0.00000  Uiso   1.00
N781   N     0.81160   0.81890   0.73543   0.00000  Uiso   1.00
N782   N     0.85507   0.84777   0.76458   0.00000  Uiso   1.00
O783   O     0.96435   0.91296   0.75358   0.00000  Uiso   1.00
O784   O     0.72408   0.90371   0.74424   0.00000  Uiso   1.00
O785   O     0.98157   0.84024   0.83380   0.00000  Uiso   1.00
O786   O     0.74130   0.83099   0.82446   0.00000  Uiso   1.00
O787   O     0.94258   0.76296   0.75577   0.00000  Uiso   1.00
O788   O     0.70231   0.75371   0.74643   0.00000  Uiso   1.00
O789   O     0.92537   0.83567   0.67554   0.00000  Uiso   1.00
O790   O     0.68510   0.82642   0.66620   0.00000  Uiso   1.00
Zn791  Zn    0.93786   0.83951   0.75624   0.00000  Uiso   1.00
Zn792  Zn    0.72881   0.82716   0.74377   0.00000  Uiso   1.00
loop_
_geom_bond_atom_site_label_1
_geom_bond_atom_site_label_2
_geom_bond_distance
_geom_bond_site_symmetry_2
_ccdc_geom_bond_type
C1     O36     1.290   .     A
C1     C3      1.410   .     S
C1     O123    1.282   1_455 S
C2     C4      1.457   .     S
C2     C14     1.408   .     A
C2     C10     1.404   .     A
C3     C225    1.346   1_455 S
C3     I164    2.158   .     S
C4     O38     1.300   .     A
C4     O125    1.295   1_455 S
C5     C6      1.403   .     S
C5     C311    1.346   1_545 S
C5     H289    1.087   1_545 S
C6     O39     1.297   .     A
C6     O84     1.275   .     S
C7     O41     1.299   .     A
C7     C9      1.436   .     S
C7     O86     1.288   .     S
C8     C20     1.385   .     A
C8     C412    1.404   1_554 S
C8     H418    1.081   1_554 S
C9     C20     1.397   .     A
C9     C19     1.386   .     A
C10    C407    1.390   .     S
C10    H111    1.083   1_455 S
C11    H27     1.082   .     S
C11    C13     1.392   .     A
C11    C406    1.390   1_554 S
C12    C14     1.402   .     A
C12    C409    1.413   .     S
C12    C411    1.409   .     S
C13    H24     1.081   .     S
C13    C408    1.413   1_554 S
C14    C18     1.411   .     A
C15    C19     1.399   .     A
C15    C408    1.409   1_554 S
C15    C412    1.426   1_554 S
C16    C17     1.398   .     A
C16    C404    1.404   .     S
C16    C411    1.426   .     S
C17    I30     2.118   .     S
C17    C18     1.385   .     A
C18    H28     1.081   .     S
C19    I31     2.154   .     S
C20    H65     1.084   .     S
H21    C108    1.084   1_455 S
H22    C404    1.081   .     S
H23    C54     1.083   .     S
H25    C137    1.087   .     S
H26    N33     1.029   .     S
I29    N34     2.067   .     S
I32    C267    2.158   1_545 S
N33    N34     1.291   .     D
N33    Zn44    2.025   .     S
N34    Zn43    2.025   .     S
O35    Zn43    1.960   .     S
O35    C45     1.282   .     S
O36    Zn44    1.981   .     S
O37    Zn43    1.954   .     S
O37    C48     1.295   .     S
O38    Zn44    1.915   .     S
O39    Zn43    1.981   .     S
O40    Zn44    1.960   .     S
O40    C94     1.275   1_455 S
O41    Zn43    1.915   .     S
O42    Zn44    1.954   .     S
O42    C95     1.288   1_455 S
C45    O80     1.290   .     A
C45    C47     1.410   .     S
C46    C48     1.457   .     S
C46    C58     1.408   .     A
C46    C54     1.404   .     A
C47    C137    1.346   .     S
C47    I208    2.158   .     S
C48    O82     1.300   .     A
C49    C50     1.403   .     S
C49    C355    1.346   1_545 S
C49    H333    1.087   1_545 S
C50    O83     1.297   .     A
C50    O128    1.275   .     S
C51    O85     1.299   .     A
C51    C53     1.436   .     S
C51    O130    1.288   .     S
C52    C64     1.385   .     A
C52    C456    1.404   1_554 S
C52    H462    1.081   1_554 S
C53    C64     1.397   .     A
C53    C63     1.386   .     A
C54    C451    1.390   .     S
C55    H71     1.082   .     S
C55    C57     1.392   .     A
C55    C450    1.390   1_554 S
C56    C58     1.402   .     A
C56    C453    1.413   .     S
C56    C455    1.409   .     S
C57    H68     1.081   .     S
C57    C452    1.413   1_554 S
C58    C62     1.411   .     A
C59    C63     1.399   .     A
C59    C452    1.409   1_554 S
C59    C456    1.426   1_554 S
C60    C61     1.398   .     A
C60    C448    1.404   .     S
C60    C455    1.426   .     S
C61    I74     2.118   .     S
C61    C62     1.385   .     A
C62    H72     1.081   .     S
C63    I75     2.154   .     S
C64    H109    1.084   .     S
H66    C448    1.081   .     S
H67    C98     1.083   .     S
H69    C181    1.087   .     S
H70    N77     1.029   .     S
I73    N78     2.067   .     S
I76    C311    2.158   1_545 S
N77    N78     1.291   .     D
N77    Zn88    2.025   .     S
N78    Zn87    2.025   .     S
O79    Zn87    1.960   .     S
O79    C89     1.282   .     S
O80    Zn88    1.981   .     S
O81    Zn87    1.954   .     S
O81    C92     1.295   .     S
O82    Zn88    1.915   .     S
O83    Zn87    1.981   .     S
O84    Zn88    1.960   .     S
O85    Zn87    1.915   .     S
O86    Zn88    1.954   .     S
C89    O124    1.290   .     A
C89    C91     1.410   .     S
C90    C92     1.457   .     S
C90    C102    1.408   .     A
C90    C98     1.404   .     A
C91    C181    1.346   .     S
C91    I252    2.158   .     S
C92    O126    1.300   .     A
C93    C94     1.403   .     S
C93    C267    1.346   1_645 S
C93    H377    1.087   1_545 S
C94    O127    1.297   .     A
C94    O40     1.275   1_655 S
C95    O129    1.299   .     A
C95    C97     1.436   .     S
C95    O42     1.288   1_655 S
C96    C108    1.385   .     A
C96    C500    1.404   1_554 S
C96    H506    1.081   1_554 S
C97    C108    1.397   .     A
C97    C107    1.386   .     A
C98    C495    1.390   .     S
C99    H115    1.082   .     S
C99    C101    1.392   .     A
C99    C494    1.390   1_554 S
C100   C102    1.402   .     A
C100   C497    1.413   .     S
C100   C499    1.409   .     S
C101   H112    1.081   .     S
C101   C496    1.413   1_554 S
C102   C106    1.411   .     A
C103   C107    1.399   .     A
C103   C496    1.409   1_554 S
C103   C500    1.426   1_554 S
C104   C105    1.398   .     A
C104   C492    1.404   .     S
C104   C499    1.426   .     S
C105   I118    2.118   .     S
C105   C106    1.385   .     A
C106   H116    1.081   .     S
C107   I119    2.154   .     S
C108   H21     1.084   1_655 S
H110   C492    1.081   .     S
H111   C10     1.083   1_655 S
H113   C225    1.087   .     S
H114   N121    1.029   .     S
I117   N122    2.067   .     S
I120   C355    2.158   1_545 S
N121   N122    1.291   .     D
N121   Zn132   2.025   .     S
N122   Zn131   2.025   .     S
O123   Zn131   1.960   .     S
O123   C1      1.282   1_655 S
O124   Zn132   1.981   .     S
O125   Zn131   1.954   .     S
O125   C4      1.295   1_655 S
O126   Zn132   1.915   .     S
O127   Zn131   1.981   .     S
O128   Zn132   1.960   .     S
O129   Zn131   1.915   .     S
O130   Zn132   1.954   .     S
C133   O168    1.290   .     A
C133   C135    1.410   .     S
C133   O255    1.282   1_455 S
C134   C136    1.457   .     S
C134   C146    1.408   .     A
C134   C142    1.404   .     A
C135   C357    1.346   1_455 S
C135   I296    2.158   .     S
C136   O170    1.300   .     A
C136   O257    1.295   1_455 S
C137   C138    1.403   .     S
C138   O171    1.297   .     A
C138   O216    1.275   .     S
C139   O173    1.299   .     A
C139   C141    1.436   .     S
C139   O218    1.288   .     S
C140   C152    1.385   .     A
C140   C544    1.404   1_554 S
C140   H550    1.081   1_554 S
C141   C152    1.397   .     A
C141   C151    1.386   .     A
C142   C539    1.390   .     S
C142   H243    1.083   1_455 S
C143   H159    1.082   .     S
C143   C145    1.392   .     A
C143   C538    1.390   1_554 S
C144   C146    1.402   .     A
C144   C541    1.413   .     S
C144   C543    1.409   .     S
C145   H156    1.081   .     S
C145   C540    1.413   1_554 S
C146   C150    1.411   .     A
C147   C151    1.399   .     A
C147   C540    1.409   1_554 S
C147   C544    1.426   1_554 S
C148   C149    1.398   .     A
C148   C536    1.404   .     S
C148   C543    1.426   .     S
C149   I162    2.118   .     S
C149   C150    1.385   .     A
C150   H160    1.081   .     S
C151   I163    2.154   .     S
C152   H197    1.084   .     S
H153   C240    1.084   1_455 S
H154   C536    1.081   .     S
H155   C186    1.083   .     S
H157   C269    1.087   .     S
H158   N165    1.029   .     S
I161   N166    2.067   .     S
N165   N166    1.291   .     D
N165   Zn176   2.025   .     S
N166   Zn175   2.025   .     S
O167   Zn175   1.960   .     S
O167   C177    1.282   .     S
O168   Zn176   1.981   .     S
O169   Zn175   1.954   .     S
O169   C180    1.295   .     S
O170   Zn176   1.915   .     S
O171   Zn175   1.981   .     S
O172   Zn176   1.960   .     S
O172   C226    1.275   1_455 S
O173   Zn175   1.915   .     S
O174   Zn176   1.954   .     S
O174   C227    1.288   1_455 S
C177   O212    1.290   .     A
C177   C179    1.410   .     S
C178   C180    1.457   .     S
C178   C190    1.408   .     A
C178   C186    1.404   .     A
C179   C269    1.346   .     S
C179   I340    2.158   .     S
C180   O214    1.300   .     A
C181   C182    1.403   .     S
C182   O215    1.297   .     A
C182   O260    1.275   .     S
C183   O217    1.299   .     A
C183   C185    1.436   .     S
C183   O262    1.288   .     S
C184   C196    1.385   .     A
C184   C588    1.404   1_554 S
C184   H594    1.081   1_554 S
C185   C196    1.397   .     A
C185   C195    1.386   .     A
C186   C583    1.390   .     S
C187   H203    1.082   .     S
C187   C189    1.392   .     A
C187   C582    1.390   1_554 S
C188   C190    1.402   .     A
C188   C585    1.413   .     S
C188   C587    1.409   .     S
C189   H200    1.081   .     S
C189   C584    1.413   1_554 S
C190   C194    1.411   .     A
C191   C195    1.399   .     A
C191   C584    1.409   1_554 S
C191   C588    1.426   1_554 S
C192   C193    1.398   .     A
C192   C580    1.404   .     S
C192   C587    1.426   .     S
C193   I206    2.118   .     S
C193   C194    1.385   .     A
C194   H204    1.081   .     S
C195   I207    2.154   .     S
C196   H241    1.084   .     S
H198   C580    1.081   .     S
H199   C230    1.083   .     S
H201   C313    1.087   .     S
H202   N209    1.029   .     S
I205   N210    2.067   .     S
N209   N210    1.291   .     D
N209   Zn220   2.025   .     S
N210   Zn219   2.025   .     S
O211   Zn219   1.960   .     S
O211   C221    1.282   .     S
O212   Zn220   1.981   .     S
O213   Zn219   1.954   .     S
O213   C224    1.295   .     S
O214   Zn220   1.915   .     S
O215   Zn219   1.981   .     S
O216   Zn220   1.960   .     S
O217   Zn219   1.915   .     S
O218   Zn220   1.954   .     S
C221   O256    1.290   .     A
C221   C223    1.410   .     S
C222   C224    1.457   .     S
C222   C234    1.408   .     A
C222   C230    1.404   .     A
C223   C313    1.346   .     S
C223   I384    2.158   .     S
C224   O258    1.300   .     A
C225   C226    1.403   .     S
C225   C3      1.346   1_655 S
C226   O259    1.297   .     A
C226   O172    1.275   1_655 S
C227   O261    1.299   .     A
C227   C229    1.436   .     S
C227   O174    1.288   1_655 S
C228   C240    1.385   .     A
C228   C632    1.404   1_554 S
C228   H638    1.081   1_554 S
C229   C240    1.397   .     A
C229   C239    1.386   .     A
C230   C627    1.390   .     S
C231   H247    1.082   .     S
C231   C233    1.392   .     A
C231   C626    1.390   1_554 S
C232   C234    1.402   .     A
C232   C629    1.413   .     S
C232   C631    1.409   .     S
C233   H244    1.081   .     S
C233   C628    1.413   1_554 S
C234   C238    1.411   .     A
C235   C239    1.399   .     A
C235   C628    1.409   1_554 S
C235   C632    1.426   1_554 S
C236   C237    1.398   .     A
C236   C624    1.404   .     S
C236   C631    1.426   .     S
C237   I250    2.118   .     S
C237   C238    1.385   .     A
C238   H248    1.081   .     S
C239   I251    2.154   .     S
C240   H153    1.084   1_655 S
H242   C624    1.081   .     S
H243   C142    1.083   1_655 S
H245   C357    1.087   .     S
H246   N253    1.029   .     S
I249   N254    2.067   .     S
N253   N254    1.291   .     D
N253   Zn264   2.025   .     S
N254   Zn263   2.025   .     S
O255   Zn263   1.960   .     S
O255   C133    1.282   1_655 S
O256   Zn264   1.981   .     S
O257   Zn263   1.954   .     S
O257   C136    1.295   1_655 S
O258   Zn264   1.915   .     S
O259   Zn263   1.981   .     S
O260   Zn264   1.960   .     S
O261   Zn263   1.915   .     S
O262   Zn264   1.954   .     S
C265   O300    1.290   .     A
C265   C267    1.410   .     S
C265   O387    1.282   1_455 S
C266   C268    1.457   .     S
C266   C278    1.408   .     A
C266   C274    1.404   .     A
C267   C93     1.346   1_465 S
C267   I32     2.158   1_565 S
C268   O302    1.300   .     A
C268   O389    1.295   1_455 S
C269   C270    1.403   .     S
C270   O303    1.297   .     A
C270   O348    1.275   .     S
C271   O305    1.299   .     A
C271   C273    1.436   .     S
C271   O350    1.288   .     S
C272   C284    1.385   .     A
C272   C676    1.404   1_554 S
C272   H682    1.081   1_554 S
C273   C284    1.397   .     A
C273   C283    1.386   .     A
C274   C671    1.390   .     S
C274   H375    1.083   1_455 S
C275   H291    1.082   .     S
C275   C277    1.392   .     A
C275   C670    1.390   1_554 S
C276   C278    1.402   .     A
C276   C673    1.413   .     S
C276   C675    1.409   .     S
C277   H288    1.081   .     S
C277   C672    1.413   1_554 S
C278   C282    1.411   .     A
C279   C283    1.399   .     A
C279   C672    1.409   1_554 S
C279   C676    1.426   1_554 S
C280   C281    1.398   .     A
C280   C668    1.404   .     S
C280   C675    1.426   .     S
C281   I294    2.118   .     S
C281   C282    1.385   .     A
C282   H292    1.081   .     S
C283   I295    2.154   .     S
C284   H329    1.084   .     S
H285   C372    1.084   1_455 S
H286   C668    1.081   .     S
H287   C318    1.083   .     S
H289   C5      1.087   1_565 S
H290   N297    1.029   .     S
I293   N298    2.067   .     S
N297   N298    1.291   .     D
N297   Zn308   2.025   .     S
N298   Zn307   2.025   .     S
O299   Zn307   1.960   .     S
O299   C309    1.282   .     S
O300   Zn308   1.981   .     S
O301   Zn307   1.954   .     S
O301   C312    1.295   .     S
O302   Zn308   1.915   .     S
O303   Zn307   1.981   .     S
O304   Zn308   1.960   .     S
O304   C358    1.275   1_455 S
O305   Zn307   1.915   .     S
O306   Zn308   1.954   .     S
O306   C359    1.288   1_455 S
C309   O344    1.290   .     A
C309   C311    1.410   .     S
C310   C312    1.457   .     S
C310   C322    1.408   .     A
C310   C318    1.404   .     A
C311   C5      1.346   1_565 S
C311   I76     2.158   1_565 S
C312   O346    1.300   .     A
C313   C314    1.403   .     S
C314   O347    1.297   .     A
C314   O392    1.275   .     S
C315   O349    1.299   .     A
C315   C317    1.436   .     S
C315   O394    1.288   .     S
C316   C328    1.385   .     A
C316   C720    1.404   1_554 S
C316   H726    1.081   1_554 S
C317   C328    1.397   .     A
C317   C327    1.386   .     A
C318   C715    1.390   .     S
C319   H335    1.082   .     S
C319   C321    1.392   .     A
C319   C714    1.390   1_554 S
C320   C322    1.402   .     A
C320   C717    1.413   .     S
C320   C719    1.409   .     S
C321   H332    1.081   .     S
C321   C716    1.413   1_554 S
C322   C326    1.411   .     A
C323   C327    1.399   .     A
C323   C716    1.409   1_554 S
C323   C720    1.426   1_554 S
C324   C325    1.398   .     A
C324   C712    1.404   .     S
C324   C719    1.426   .     S
C325   I338    2.118   .     S
C325   C326    1.385   .     A
C326   H336    1.081   .     S
C327   I339    2.154   .     S
C328   H373    1.084   .     S
H330   C712    1.081   .     S
H331   C362    1.083   .     S
H333   C49     1.087   1_565 S
H334   N341    1.029   .     S
I337   N342    2.067   .     S
N341   N342    1.291   .     D
N341   Zn352   2.025   .     S
N342   Zn351   2.025   .     S
O343   Zn351   1.960   .     S
O343   C353    1.282   .     S
O344   Zn352   1.981   .     S
O345   Zn351   1.954   .     S
O345   C356    1.295   .     S
O346   Zn352   1.915   .     S
O347   Zn351   1.981   .     S
O348   Zn352   1.960   .     S
O349   Zn351   1.915   .     S
O350   Zn352   1.954   .     S
C353   O388    1.290   .     A
C353   C355    1.410   .     S
C354   C356    1.457   .     S
C354   C366    1.408   .     A
C354   C362    1.404   .     A
C355   C49     1.346   1_565 S
C355   I120    2.158   1_565 S
C356   O390    1.300   .     A
C357   C358    1.403   .     S
C357   C135    1.346   1_655 S
C358   O391    1.297   .     A
C358   O304    1.275   1_655 S
C359   O393    1.299   .     A
C359   C361    1.436   .     S
C359   O306    1.288   1_655 S
C360   C372    1.385   .     A
C360   C764    1.404   1_554 S
C360   H770    1.081   1_554 S
C361   C372    1.397   .     A
C361   C371    1.386   .     A
C362   C759    1.390   .     S
C363   H379    1.082   .     S
C363   C365    1.392   .     A
C363   C758    1.390   1_554 S
C364   C366    1.402   .     A
C364   C761    1.413   .     S
C364   C763    1.409   .     S
C365   H376    1.081   .     S
C365   C760    1.413   1_554 S
C366   C370    1.411   .     A
C367   C371    1.399   .     A
C367   C760    1.409   1_554 S
C367   C764    1.426   1_554 S
C368   C369    1.398   .     A
C368   C756    1.404   .     S
C368   C763    1.426   .     S
C369   I382    2.118   .     S
C369   C370    1.385   .     A
C370   H380    1.081   .     S
C371   I383    2.154   .     S
C372   H285    1.084   1_655 S
H374   C756    1.081   .     S
H375   C274    1.083   1_655 S
H377   C93     1.087   1_565 S
H378   N385    1.029   .     S
I381   N386    2.067   .     S
N385   N386    1.291   .     D
N385   Zn396   2.025   .     S
N386   Zn395   2.025   .     S
O387   Zn395   1.960   .     S
O387   C265    1.282   1_655 S
O388   Zn396   1.981   .     S
O389   Zn395   1.954   .     S
O389   C268    1.295   1_655 S
O390   Zn396   1.915   .     S
O391   Zn395   1.981   .     S
O392   Zn396   1.960   .     S
O393   Zn395   1.915   .     S
O394   Zn396   1.954   .     S
C397   O432    1.290   .     A
C397   C399    1.410   .     S
C397   O519    1.282   1_455 S
C398   C400    1.457   .     S
C398   C410    1.408   .     A
C398   C406    1.404   .     A
C399   C621    1.346   1_455 S
C399   I560    2.158   .     S
C400   O434    1.300   .     A
C400   O521    1.295   1_455 S
C401   C402    1.403   .     S
C401   C707    1.346   1_545 S
C401   H685    1.087   1_545 S
C402   O435    1.297   .     A
C402   O480    1.275   .     S
C403   O437    1.299   .     A
C403   C405    1.436   .     S
C403   O482    1.288   .     S
C404   C416    1.385   .     A
C405   C416    1.397   .     A
C405   C415    1.386   .     A
C406   C11     1.390   1_556 S
C406   H507    1.083   1_455 S
C407   H423    1.082   .     S
C407   C409    1.392   .     A
C408   C410    1.402   .     A
C408   C13     1.413   1_556 S
C408   C15     1.409   1_556 S
C409   H420    1.081   .     S
C410   C414    1.411   .     A
C411   C415    1.399   .     A
C412   C413    1.398   .     A
C412   C8      1.404   1_556 S
C412   C15     1.426   1_556 S
C413   I426    2.118   .     S
C413   C414    1.385   .     A
C414   H424    1.081   .     S
C415   I427    2.154   .     S
C416   H461    1.084   .     S
H417   C504    1.084   1_455 S
H418   C8      1.081   1_556 S
H419   C450    1.083   .     S
H421   C533    1.087   .     S
H422   N429    1.029   .     S
I425   N430    2.067   .     S
I428   C663    2.158   1_545 S
N429   N430    1.291   .     D
N429   Zn440   2.025   .     S
N430   Zn439   2.025   .     S
O431   Zn439   1.960   .     S
O431   C441    1.282   .     S
O432   Zn440   1.981   .     S
O433   Zn439   1.954   .     S
O433   C444    1.295   .     S
O434   Zn440   1.915   .     S
O435   Zn439   1.981   .     S
O436   Zn440   1.960   .     S
O436   C490    1.275   1_455 S
O437   Zn439   1.915   .     S
O438   Zn440   1.954   .     S
O438   C491    1.288   1_455 S
C441   O476    1.290   .     A
C441   C443    1.410   .     S
C442   C444    1.457   .     S
C442   C454    1.408   .     A
C442   C450    1.404   .     A
C443   C533    1.346   .     S
C443   I604    2.158   .     S
C444   O478    1.300   .     A
C445   C446    1.403   .     S
C445   C751    1.346   1_545 S
C445   H729    1.087   1_545 S
C446   O479    1.297   .     A
C446   O524    1.275   .     S
C447   O481    1.299   .     A
C447   C449    1.436   .     S
C447   O526    1.288   .     S
C448   C460    1.385   .     A
C449   C460    1.397   .     A
C449   C459    1.386   .     A
C450   C55     1.390   1_556 S
C451   H467    1.082   .     S
C451   C453    1.392   .     A
C452   C454    1.402   .     A
C452   C57     1.413   1_556 S
C452   C59     1.409   1_556 S
C453   H464    1.081   .     S
C454   C458    1.411   .     A
C455   C459    1.399   .     A
C456   C457    1.398   .     A
C456   C52     1.404   1_556 S
C456   C59     1.426   1_556 S
C457   I470    2.118   .     S
C457   C458    1.385   .     A
C458   H468    1.081   .     S
C459   I471    2.154   .     S
C460   H505    1.084   .     S
H462   C52     1.081   1_556 S
H463   C494    1.083   .     S
H465   C577    1.087   .     S
H466   N473    1.029   .     S
I469   N474    2.067   .     S
I472   C707    2.158   1_545 S
N473   N474    1.291   .     D
N473   Zn484   2.025   .     S
N474   Zn483   2.025   .     S
O475   Zn483   1.960   .     S
O475   C485    1.282   .     S
O476   Zn484   1.981   .     S
O477   Zn483   1.954   .     S
O477   C488    1.295   .     S
O478   Zn484   1.915   .     S
O479   Zn483   1.981   .     S
O480   Zn484   1.960   .     S
O481   Zn483   1.915   .     S
O482   Zn484   1.954   .     S
C485   O520    1.290   .     A
C485   C487    1.410   .     S
C486   C488    1.457   .     S
C486   C498    1.408   .     A
C486   C494    1.404   .     A
C487   C577    1.346   .     S
C487   I648    2.158   .     S
C488   O522    1.300   .     A
C489   C490    1.403   .     S
C489   C663    1.346   1_645 S
C489   H773    1.087   1_545 S
C490   O523    1.297   .     A
C490   O436    1.275   1_655 S
C491   O525    1.299   .     A
C491   C493    1.436   .     S
C491   O438    1.288   1_655 S
C492   C504    1.385   .     A
C493   C504    1.397   .     A
C493   C503    1.386   .     A
C494   C99     1.390   1_556 S
C495   H511    1.082   .     S
C495   C497    1.392   .     A
C496   C498    1.402   .     A
C496   C101    1.413   1_556 S
C496   C103    1.409   1_556 S
C497   H508    1.081   .     S
C498   C502    1.411   .     A
C499   C503    1.399   .     A
C500   C501    1.398   .     A
C500   C96     1.404   1_556 S
C500   C103    1.426   1_556 S
C501   I514    2.118   .     S
C501   C502    1.385   .     A
C502   H512    1.081   .     S
C503   I515    2.154   .     S
C504   H417    1.084   1_655 S
H506   C96     1.081   1_556 S
H507   C406    1.083   1_655 S
H509   C621    1.087   .     S
H510   N517    1.029   .     S
I513   N518    2.067   .     S
I516   C751    2.158   1_545 S
N517   N518    1.291   .     D
N517   Zn528   2.025   .     S
N518   Zn527   2.025   .     S
O519   Zn527   1.960   .     S
O519   C397    1.282   1_655 S
O520   Zn528   1.981   .     S
O521   Zn527   1.954   .     S
O521   C400    1.295   1_655 S
O522   Zn528   1.915   .     S
O523   Zn527   1.981   .     S
O524   Zn528   1.960   .     S
O525   Zn527   1.915   .     S
O526   Zn528   1.954   .     S
C529   O564    1.290   .     A
C529   C531    1.410   .     S
C529   O651    1.282   1_455 S
C530   C532    1.457   .     S
C530   C542    1.408   .     A
C530   C538    1.404   .     A
C531   C753    1.346   1_455 S
C531   I692    2.158   .     S
C532   O566    1.300   .     A
C532   O653    1.295   1_455 S
C533   C534    1.403   .     S
C534   O567    1.297   .     A
C534   O612    1.275   .     S
C535   O569    1.299   .     A
C535   C537    1.436   .     S
C535   O614    1.288   .     S
C536   C548    1.385   .     A
C537   C548    1.397   .     A
C537   C547    1.386   .     A
C538   C143    1.390   1_556 S
C538   H639    1.083   1_455 S
C539   H555    1.082   .     S
C539   C541    1.392   .     A
C540   C542    1.402   .     A
C540   C145    1.413   1_556 S
C540   C147    1.409   1_556 S
C541   H552    1.081   .     S
C542   C546    1.411   .     A
C543   C547    1.399   .     A
C544   C545    1.398   .     A
C544   C140    1.404   1_556 S
C544   C147    1.426   1_556 S
C545   I558    2.118   .     S
C545   C546    1.385   .     A
C546   H556    1.081   .     S
C547   I559    2.154   .     S
C548   H593    1.084   .     S
H549   C636    1.084   1_455 S
H550   C140    1.081   1_556 S
H551   C582    1.083   .     S
H553   C665    1.087   .     S
H554   N561    1.029   .     S
I557   N562    2.067   .     S
N561   N562    1.291   .     D
N561   Zn572   2.025   .     S
N562   Zn571   2.025   .     S
O563   Zn571   1.960   .     S
O563   C573    1.282   .     S
O564   Zn572   1.981   .     S
O565   Zn571   1.954   .     S
O565   C576    1.295   .     S
O566   Zn572   1.915   .     S
O567   Zn571   1.981   .     S
O568   Zn572   1.960   .     S
O568   C622    1.275   1_455 S
O569   Zn571   1.915   .     S
O570   Zn572   1.954   .     S
O570   C623    1.288   1_455 S
C573   O608    1.290   .     A
C573   C575    1.410   .     S
C574   C576    1.457   .     S
C574   C586    1.408   .     A
C574   C582    1.404   .     A
C575   C665    1.346   .     S
C575   I736    2.158   .     S
C576   O610    1.300   .     A
C577   C578    1.403   .     S
C578   O611    1.297   .     A
C578   O656    1.275   .     S
C579   O613    1.299   .     A
C579   C581    1.436   .     S
C579   O658    1.288   .     S
C580   C592    1.385   .     A
C581   C592    1.397   .     A
C581   C591    1.386   .     A
C582   C187    1.390   1_556 S
C583   H599    1.082   .     S
C583   C585    1.392   .     A
C584   C586    1.402   .     A
C584   C189    1.413   1_556 S
C584   C191    1.409   1_556 S
C585   H596    1.081   .     S
C586   C590    1.411   .     A
C587   C591    1.399   .     A
C588   C589    1.398   .     A
C588   C184    1.404   1_556 S
C588   C191    1.426   1_556 S
C589   I602    2.118   .     S
C589   C590    1.385   .     A
C590   H600    1.081   .     S
C591   I603    2.154   .     S
C592   H637    1.084   .     S
H594   C184    1.081   1_556 S
H595   C626    1.083   .     S
H597   C709    1.087   .     S
H598   N605    1.029   .     S
I601   N606    2.067   .     S
N605   N606    1.291   .     D
N605   Zn616   2.025   .     S
N606   Zn615   2.025   .     S
O607   Zn615   1.960   .     S
O607   C617    1.282   .     S
O608   Zn616   1.981   .     S
O609   Zn615   1.954   .     S
O609   C620    1.295   .     S
O610   Zn616   1.915   .     S
O611   Zn615   1.981   .     S
O612   Zn616   1.960   .     S
O613   Zn615   1.915   .     S
O614   Zn616   1.954   .     S
C617   O652    1.290   .     A
C617   C619    1.410   .     S
C618   C620    1.457   .     S
C618   C630    1.408   .     A
C618   C626    1.404   .     A
C619   C709    1.346   .     S
C619   I780    2.158   .     S
C620   O654    1.300   .     A
C621   C622    1.403   .     S
C621   C399    1.346   1_655 S
C622   O655    1.297   .     A
C622   O568    1.275   1_655 S
C623   O657    1.299   .     A
C623   C625    1.436   .     S
C623   O570    1.288   1_655 S
C624   C636    1.385   .     A
C625   C636    1.397   .     A
C625   C635    1.386   .     A
C626   C231    1.390   1_556 S
C627   H643    1.082   .     S
C627   C629    1.392   .     A
C628   C630    1.402   .     A
C628   C233    1.413   1_556 S
C628   C235    1.409   1_556 S
C629   H640    1.081   .     S
C630   C634    1.411   .     A
C631   C635    1.399   .     A
C632   C633    1.398   .     A
C632   C228    1.404   1_556 S
C632   C235    1.426   1_556 S
C633   I646    2.118   .     S
C633   C634    1.385   .     A
C634   H644    1.081   .     S
C635   I647    2.154   .     S
C636   H549    1.084   1_655 S
H638   C228    1.081   1_556 S
H639   C538    1.083   1_655 S
H641   C753    1.087   .     S
H642   N649    1.029   .     S
I645   N650    2.067   .     S
N649   N650    1.291   .     D
N649   Zn660   2.025   .     S
N650   Zn659   2.025   .     S
O651   Zn659   1.960   .     S
O651   C529    1.282   1_655 S
O652   Zn660   1.981   .     S
O653   Zn659   1.954   .     S
O653   C532    1.295   1_655 S
O654   Zn660   1.915   .     S
O655   Zn659   1.981   .     S
O656   Zn660   1.960   .     S
O657   Zn659   1.915   .     S
O658   Zn660   1.954   .     S
C661   O696    1.290   .     A
C661   C663    1.410   .     S
C661   O783    1.282   1_455 S
C662   C664    1.457   .     S
C662   C674    1.408   .     A
C662   C670    1.404   .     A
C663   C489    1.346   1_465 S
C663   I428    2.158   1_565 S
C664   O698    1.300   .     A
C664   O785    1.295   1_455 S
C665   C666    1.403   .     S
C666   O699    1.297   .     A
C666   O744    1.275   .     S
C667   O701    1.299   .     A
C667   C669    1.436   .     S
C667   O746    1.288   .     S
C668   C680    1.385   .     A
C669   C680    1.397   .     A
C669   C679    1.386   .     A
C670   C275    1.390   1_556 S
C670   H771    1.083   1_455 S
C671   H687    1.082   .     S
C671   C673    1.392   .     A
C672   C674    1.402   .     A
C672   C277    1.413   1_556 S
C672   C279    1.409   1_556 S
C673   H684    1.081   .     S
C674   C678    1.411   .     A
C675   C679    1.399   .     A
C676   C677    1.398   .     A
C676   C272    1.404   1_556 S
C676   C279    1.426   1_556 S
C677   I690    2.118   .     S
C677   C678    1.385   .     A
C678   H688    1.081   .     S
C679   I691    2.154   .     S
C680   H725    1.084   .     S
H681   C768    1.084   1_455 S
H682   C272    1.081   1_556 S
H683   C714    1.083   .     S
H685   C401    1.087   1_565 S
H686   N693    1.029   .     S
I689   N694    2.067   .     S
N693   N694    1.291   .     D
N693   Zn704   2.025   .     S
N694   Zn703   2.025   .     S
O695   Zn703   1.960   .     S
O695   C705    1.282   .     S
O696   Zn704   1.981   .     S
O697   Zn703   1.954   .     S
O697   C708    1.295   .     S
O698   Zn704   1.915   .     S
O699   Zn703   1.981   .     S
O700   Zn704   1.960   .     S
O700   C754    1.275   1_455 S
O701   Zn703   1.915   .     S
O702   Zn704   1.954   .     S
O702   C755    1.288   1_455 S
C705   O740    1.290   .     A
C705   C707    1.410   .     S
C706   C708    1.457   .     S
C706   C718    1.408   .     A
C706   C714    1.404   .     A
C707   C401    1.346   1_565 S
C707   I472    2.158   1_565 S
C708   O742    1.300   .     A
C709   C710    1.403   .     S
C710   O743    1.297   .     A
C710   O788    1.275   .     S
C711   O745    1.299   .     A
C711   C713    1.436   .     S
C711   O790    1.288   .     S
C712   C724    1.385   .     A
C713   C724    1.397   .     A
C713   C723    1.386   .     A
C714   C319    1.390   1_556 S
C715   H731    1.082   .     S
C715   C717    1.392   .     A
C716   C718    1.402   .     A
C716   C321    1.413   1_556 S
C716   C323    1.409   1_556 S
C717   H728    1.081   .     S
C718   C722    1.411   .     A
C719   C723    1.399   .     A
C720   C721    1.398   .     A
C720   C316    1.404   1_556 S
C720   C323    1.426   1_556 S
C721   I734    2.118   .     S
C721   C722    1.385   .     A
C722   H732    1.081   .     S
C723   I735    2.154   .     S
C724   H769    1.084   .     S
H726   C316    1.081   1_556 S
H727   C758    1.083   .     S
H729   C445    1.087   1_565 S
H730   N737    1.029   .     S
I733   N738    2.067   .     S
N737   N738    1.291   .     D
N737   Zn748   2.025   .     S
N738   Zn747   2.025   .     S
O739   Zn747   1.960   .     S
O739   C749    1.282   .     S
O740   Zn748   1.981   .     S
O741   Zn747   1.954   .     S
O741   C752    1.295   .     S
O742   Zn748   1.915   .     S
O743   Zn747   1.981   .     S
O744   Zn748   1.960   .     S
O745   Zn747   1.915   .     S
O746   Zn748   1.954   .     S
C749   O784    1.290   .     A
C749   C751    1.410   .     S
C750   C752    1.457   .     S
C750   C762    1.408   .     A
C750   C758    1.404   .     A
C751   C445    1.346   1_565 S
C751   I516    2.158   1_565 S
C752   O786    1.300   .     A
C753   C754    1.403   .     S
C753   C531    1.346   1_655 S
C754   O787    1.297   .     A
C754   O700    1.275   1_655 S
C755   O789    1.299   .     A
C755   C757    1.436   .     S
C755   O702    1.288   1_655 S
C756   C768    1.385   .     A
C757   C768    1.397   .     A
C757   C767    1.386   .     A
C758   C363    1.390   1_556 S
C759   H775    1.082   .     S
C759   C761    1.392   .     A
C760   C762    1.402   .     A
C760   C365    1.413   1_556 S
C760   C367    1.409   1_556 S
C761   H772    1.081   .     S
C762   C766    1.411   .     A
C763   C767    1.399   .     A
C764   C765    1.398   .     A
C764   C360    1.404   1_556 S
C764   C367    1.426   1_556 S
C765   I778    2.118   .     S
C765   C766    1.385   .     A
C766   H776    1.081   .     S
C767   I779    2.154   .     S
C768   H681    1.084   1_655 S
H770   C360    1.081   1_556 S
H771   C670    1.083   1_655 S
H773   C489    1.087   1_565 S
H774   N781    1.029   .     S
I777   N782    2.067   .     S
N781   N782    1.291   .     D
N781   Zn792   2.025   .     S
N782   Zn791   2.025   .     S
O783   Zn791   1.960   .     S
O783   C661    1.282   1_655 S
O784   Zn792   1.981   .     S
O785   Zn791   1.954   .     S
O785   C664    1.295   1_655 S
O786   Zn792   1.915   .     S
O787   Zn791   1.981   .     S
O788   Zn792   1.960   .     S
O789   Zn791   1.915   .     S
O790   Zn792   1.954   .     S
