data_str_m1_o10_o16_pcu_sym.130
_audit_creation_date              2020-01-03
_audit_creation_method            'Materials Studio'
_symmetry_space_group_name_H-M    'P1'
_symmetry_Int_Tables_number       1
_symmetry_cell_setting            triclinic
loop_
_symmetry_equiv_pos_as_xyz
  x,y,z
_cell_length_a                    32.7105
_cell_length_b                    32.4435
_cell_length_c                    31.1304
_cell_angle_alpha                 96.4116
_cell_angle_beta                  74.6666
_cell_angle_gamma                 98.3905
loop_
_atom_site_label
_atom_site_type_symbol
_atom_site_fract_x
_atom_site_fract_y
_atom_site_fract_z
_atom_site_U_iso_or_equiv
_atom_site_adp_type
_atom_site_occupancy
C1     C     0.05304   0.15988   0.25997   0.00000  Uiso   1.00
C2     C     0.17315   0.16632   0.05909   0.00000  Uiso   1.00
C3     C     0.20943   0.10520   0.05903   0.00000  Uiso   1.00
C4     C     0.28072   0.17388   0.24024   0.00000  Uiso   1.00
C5     C     0.14557   0.19595   0.41858   0.00000  Uiso   1.00
C6     C     0.32659   0.17482   0.23519   0.00000  Uiso   1.00
C7     C     0.00771   0.15767   0.26547   0.00000  Uiso   1.00
C8     C     0.18037   0.32253   0.23653   0.00000  Uiso   1.00
C9     C     0.15194   0.01178   0.26399   0.00000  Uiso   1.00
C10    C     0.15612   0.05593   0.26026   0.00000  Uiso   1.00
C11    C     0.17656   0.27790   0.24019   0.00000  Uiso   1.00
C12    C     0.15282   0.25416   0.47277   0.00000  Uiso   1.00
C13    C     0.18514   0.14820   0.12957   0.00000  Uiso   1.00
C14    C     0.14822   0.18428   0.37092   0.00000  Uiso   1.00
C15    C     0.20514   0.09258   0.01617   0.00000  Uiso   1.00
C16    C     0.19133   0.14111   0.08153   0.00000  Uiso   1.00
C17    C     0.14102   0.23762   0.43418   0.00000  Uiso   1.00
C18    C     0.32631   0.11346   0.32872   0.00000  Uiso   1.00
C19    C     0.18623   0.04673   0.38940   0.00000  Uiso   1.00
C20    C     0.03198   0.23743   0.20162   0.00000  Uiso   1.00
C21    C     0.16830   0.22910   0.49739   0.00000  Uiso   1.00
C22    C     0.16587   0.18508   0.48650   0.00000  Uiso   1.00
C23    C     0.15589   0.16885   0.44577   0.00000  Uiso   1.00
C24    C     0.17610   0.15700   0.01306   0.00000  Uiso   1.00
C25    C     0.18645   0.11683   0.49375   0.00000  Uiso   1.00
C26    C     0.17643   0.10095   0.45334   0.00000  Uiso   1.00
C27    C     0.15765   0.12609   0.43225   0.00000  Uiso   1.00
H28    H     0.20653   0.00379   0.21129   0.00000  Uiso   1.00
H29    H     0.02039   0.12724   0.34257   0.00000  Uiso   1.00
H30    H     0.00193   0.08618   0.30485   0.00000  Uiso   1.00
H31    H     0.16600   0.03629   0.45772   0.00000  Uiso   1.00
H32    H     0.19949   0.01641   0.38066   0.00000  Uiso   1.00
H33    H     0.20832   0.07043   0.36856   0.00000  Uiso   1.00
H34    H     0.15439   0.04279   0.38206   0.00000  Uiso   1.00
H35    H     0.15044   0.20291   0.11259   0.00000  Uiso   1.00
H36    H     0.18910   0.27828   0.03142   0.00000  Uiso   1.00
H37    H     0.04835   0.17740   0.18229   0.00000  Uiso   1.00
H38    H     0.04992   0.24625   0.22768   0.00000  Uiso   1.00
H39    H     0.12546   0.33135   0.28943   0.00000  Uiso   1.00
H40    H     0.00236   0.25285   0.21087   0.00000  Uiso   1.00
H41    H     0.05209   0.24873   0.16945   0.00000  Uiso   1.00
H42    H     0.21626   0.06328   0.00076   0.00000  Uiso   1.00
H43    H     0.13272   0.25872   0.41408   0.00000  Uiso   1.00
H44    H     0.15299   0.28744   0.48154   0.00000  Uiso   1.00
H45    H     0.14474   0.11210   0.40479   0.00000  Uiso   1.00
H46    H     0.23463   0.09443   0.10638   0.00000  Uiso   1.00
H47    H     0.30020   0.16848   0.32807   0.00000  Uiso   1.00
H48    H     0.29934   0.10242   0.35662   0.00000  Uiso   1.00
N49    N     0.31319   0.14440   0.30670   0.00000  Uiso   1.00
N50    N     0.18233   0.05876   0.43640   0.00000  Uiso   1.00
N51    N     0.02184   0.19253   0.19667   0.00000  Uiso   1.00
O52    O     0.16667   0.16667   0.25000   0.00000  Uiso   1.00
O53    O     0.15451   0.12637   0.15458   0.00000  Uiso   1.00
O54    O     0.12940   0.20391   0.34968   0.00000  Uiso   1.00
O55    O     0.20824   0.17759   0.14606   0.00000  Uiso   1.00
O56    O     0.17451   0.15880   0.34968   0.00000  Uiso   1.00
O57    O     0.22861   0.07982   0.07866   0.00000  Uiso   1.00
O58    O     0.14679   0.19572   0.08204   0.00000  Uiso   1.00
O59    O     0.18985   0.24762   0.02864   0.00000  Uiso   1.00
O60    O     0.17930   0.08019   0.28213   0.00000  Uiso   1.00
O61    O     0.14632   0.26085   0.27013   0.00000  Uiso   1.00
O62    O     0.07412   0.13291   0.23413   0.00000  Uiso   1.00
O63    O     0.26693   0.19272   0.21360   0.00000  Uiso   1.00
O64    O     0.07071   0.18878   0.28213   0.00000  Uiso   1.00
O65    O     0.25491   0.15226   0.27013   0.00000  Uiso   1.00
O66    O     0.13760   0.06944   0.23413   0.00000  Uiso   1.00
O67    O     0.20345   0.25620   0.21360   0.00000  Uiso   1.00
Zn68   Zn    0.19338   0.13994   0.28734   0.00000  Uiso   1.00
Zn69   Zn    0.13379   0.12458   0.21875   0.00000  Uiso   1.00
Zn70   Zn    0.21056   0.19775   0.20657   0.00000  Uiso   1.00
Zn71   Zn    0.12893   0.20439   0.28733   0.00000  Uiso   1.00
C72    C     0.38638   0.15988   0.25997   0.00000  Uiso   1.00
C73    C     0.50648   0.16632   0.05909   0.00000  Uiso   1.00
C74    C     0.54276   0.10520   0.05903   0.00000  Uiso   1.00
C75    C     0.61405   0.17388   0.24024   0.00000  Uiso   1.00
C76    C     0.47890   0.19595   0.41858   0.00000  Uiso   1.00
C77    C     0.65993   0.17482   0.23519   0.00000  Uiso   1.00
C78    C     0.34104   0.15767   0.26547   0.00000  Uiso   1.00
C79    C     0.51370   0.32253   0.23653   0.00000  Uiso   1.00
C80    C     0.48528   0.01178   0.26399   0.00000  Uiso   1.00
C81    C     0.48945   0.05593   0.26026   0.00000  Uiso   1.00
C82    C     0.50990   0.27790   0.24019   0.00000  Uiso   1.00
C83    C     0.48616   0.25416   0.47277   0.00000  Uiso   1.00
C84    C     0.51848   0.14820   0.12957   0.00000  Uiso   1.00
C85    C     0.48156   0.18428   0.37092   0.00000  Uiso   1.00
C86    C     0.53847   0.09258   0.01617   0.00000  Uiso   1.00
C87    C     0.52466   0.14111   0.08153   0.00000  Uiso   1.00
C88    C     0.47436   0.23762   0.43418   0.00000  Uiso   1.00
C89    C     0.65964   0.11346   0.32872   0.00000  Uiso   1.00
C90    C     0.51956   0.04673   0.38940   0.00000  Uiso   1.00
C91    C     0.36531   0.23743   0.20162   0.00000  Uiso   1.00
C92    C     0.50164   0.22910   0.49739   0.00000  Uiso   1.00
C93    C     0.49920   0.18508   0.48650   0.00000  Uiso   1.00
C94    C     0.48922   0.16885   0.44577   0.00000  Uiso   1.00
C95    C     0.50943   0.15700   0.01306   0.00000  Uiso   1.00
C96    C     0.51979   0.11683   0.49375   0.00000  Uiso   1.00
C97    C     0.50976   0.10095   0.45334   0.00000  Uiso   1.00
C98    C     0.49098   0.12609   0.43225   0.00000  Uiso   1.00
H99    H     0.53987   0.00379   0.21129   0.00000  Uiso   1.00
H100   H     0.35373   0.12724   0.34257   0.00000  Uiso   1.00
H101   H     0.33526   0.08618   0.30485   0.00000  Uiso   1.00
H102   H     0.49933   0.03629   0.45772   0.00000  Uiso   1.00
H103   H     0.53282   0.01641   0.38066   0.00000  Uiso   1.00
H104   H     0.54166   0.07043   0.36856   0.00000  Uiso   1.00
H105   H     0.48772   0.04279   0.38206   0.00000  Uiso   1.00
H106   H     0.48377   0.20291   0.11259   0.00000  Uiso   1.00
H107   H     0.52243   0.27828   0.03142   0.00000  Uiso   1.00
H108   H     0.38168   0.17740   0.18229   0.00000  Uiso   1.00
H109   H     0.38325   0.24625   0.22768   0.00000  Uiso   1.00
H110   H     0.45879   0.33135   0.28943   0.00000  Uiso   1.00
H111   H     0.33569   0.25285   0.21087   0.00000  Uiso   1.00
H112   H     0.38542   0.24873   0.16945   0.00000  Uiso   1.00
H113   H     0.54960   0.06328   0.00076   0.00000  Uiso   1.00
H114   H     0.46605   0.25872   0.41408   0.00000  Uiso   1.00
H115   H     0.48632   0.28744   0.48154   0.00000  Uiso   1.00
H116   H     0.47808   0.11210   0.40479   0.00000  Uiso   1.00
H117   H     0.56796   0.09443   0.10638   0.00000  Uiso   1.00
H118   H     0.63353   0.16848   0.32807   0.00000  Uiso   1.00
H119   H     0.63267   0.10242   0.35662   0.00000  Uiso   1.00
N120   N     0.64653   0.14440   0.30670   0.00000  Uiso   1.00
N121   N     0.51566   0.05876   0.43640   0.00000  Uiso   1.00
N122   N     0.35518   0.19253   0.19667   0.00000  Uiso   1.00
O123   O     0.50000   0.16667   0.25000   0.00000  Uiso   1.00
O124   O     0.48784   0.12637   0.15458   0.00000  Uiso   1.00
O125   O     0.46274   0.20391   0.34968   0.00000  Uiso   1.00
O126   O     0.54157   0.17759   0.14606   0.00000  Uiso   1.00
O127   O     0.50785   0.15880   0.34968   0.00000  Uiso   1.00
O128   O     0.56194   0.07982   0.07866   0.00000  Uiso   1.00
O129   O     0.48012   0.19572   0.08204   0.00000  Uiso   1.00
O130   O     0.52318   0.24762   0.02864   0.00000  Uiso   1.00
O131   O     0.51264   0.08019   0.28213   0.00000  Uiso   1.00
O132   O     0.47965   0.26085   0.27013   0.00000  Uiso   1.00
O133   O     0.40745   0.13291   0.23413   0.00000  Uiso   1.00
O134   O     0.60026   0.19272   0.21360   0.00000  Uiso   1.00
O135   O     0.40405   0.18878   0.28213   0.00000  Uiso   1.00
O136   O     0.58824   0.15226   0.27013   0.00000  Uiso   1.00
O137   O     0.47093   0.06944   0.23413   0.00000  Uiso   1.00
O138   O     0.53678   0.25620   0.21360   0.00000  Uiso   1.00
Zn139  Zn    0.52672   0.13994   0.28734   0.00000  Uiso   1.00
Zn140  Zn    0.46713   0.12458   0.21875   0.00000  Uiso   1.00
Zn141  Zn    0.54389   0.19775   0.20657   0.00000  Uiso   1.00
Zn142  Zn    0.46226   0.20439   0.28733   0.00000  Uiso   1.00
C143   C     0.71971   0.15988   0.25997   0.00000  Uiso   1.00
C144   C     0.83981   0.16632   0.05909   0.00000  Uiso   1.00
C145   C     0.87610   0.10520   0.05903   0.00000  Uiso   1.00
C146   C     0.94738   0.17388   0.24024   0.00000  Uiso   1.00
C147   C     0.81223   0.19595   0.41858   0.00000  Uiso   1.00
C148   C     0.99326   0.17482   0.23519   0.00000  Uiso   1.00
C149   C     0.67438   0.15767   0.26547   0.00000  Uiso   1.00
C150   C     0.84704   0.32253   0.23653   0.00000  Uiso   1.00
C151   C     0.81861   0.01178   0.26399   0.00000  Uiso   1.00
C152   C     0.82278   0.05593   0.26026   0.00000  Uiso   1.00
C153   C     0.84323   0.27790   0.24019   0.00000  Uiso   1.00
C154   C     0.81949   0.25416   0.47277   0.00000  Uiso   1.00
C155   C     0.85181   0.14820   0.12957   0.00000  Uiso   1.00
C156   C     0.81489   0.18428   0.37092   0.00000  Uiso   1.00
C157   C     0.87180   0.09258   0.01617   0.00000  Uiso   1.00
C158   C     0.85800   0.14111   0.08153   0.00000  Uiso   1.00
C159   C     0.80769   0.23762   0.43418   0.00000  Uiso   1.00
C160   C     0.99298   0.11346   0.32872   0.00000  Uiso   1.00
C161   C     0.85289   0.04673   0.38940   0.00000  Uiso   1.00
C162   C     0.69865   0.23743   0.20162   0.00000  Uiso   1.00
C163   C     0.83497   0.22910   0.49739   0.00000  Uiso   1.00
C164   C     0.83254   0.18508   0.48650   0.00000  Uiso   1.00
C165   C     0.82255   0.16885   0.44577   0.00000  Uiso   1.00
C166   C     0.84276   0.15700   0.01306   0.00000  Uiso   1.00
C167   C     0.85312   0.11683   0.49375   0.00000  Uiso   1.00
C168   C     0.84309   0.10095   0.45334   0.00000  Uiso   1.00
C169   C     0.82431   0.12609   0.43225   0.00000  Uiso   1.00
H170   H     0.87320   0.00379   0.21129   0.00000  Uiso   1.00
H171   H     0.68706   0.12724   0.34257   0.00000  Uiso   1.00
H172   H     0.66860   0.08618   0.30485   0.00000  Uiso   1.00
H173   H     0.83266   0.03629   0.45772   0.00000  Uiso   1.00
H174   H     0.86616   0.01641   0.38066   0.00000  Uiso   1.00
H175   H     0.87499   0.07043   0.36856   0.00000  Uiso   1.00
H176   H     0.82106   0.04279   0.38206   0.00000  Uiso   1.00
H177   H     0.81711   0.20291   0.11259   0.00000  Uiso   1.00
H178   H     0.85577   0.27828   0.03142   0.00000  Uiso   1.00
H179   H     0.71502   0.17740   0.18229   0.00000  Uiso   1.00
H180   H     0.71659   0.24625   0.22768   0.00000  Uiso   1.00
H181   H     0.79213   0.33135   0.28943   0.00000  Uiso   1.00
H182   H     0.66902   0.25285   0.21087   0.00000  Uiso   1.00
H183   H     0.71875   0.24873   0.16945   0.00000  Uiso   1.00
H184   H     0.88293   0.06328   0.00076   0.00000  Uiso   1.00
H185   H     0.79939   0.25872   0.41408   0.00000  Uiso   1.00
H186   H     0.81965   0.28744   0.48154   0.00000  Uiso   1.00
H187   H     0.81141   0.11210   0.40479   0.00000  Uiso   1.00
H188   H     0.90130   0.09443   0.10638   0.00000  Uiso   1.00
H189   H     0.96687   0.16848   0.32807   0.00000  Uiso   1.00
H190   H     0.96600   0.10242   0.35662   0.00000  Uiso   1.00
N191   N     0.97986   0.14440   0.30670   0.00000  Uiso   1.00
N192   N     0.84899   0.05876   0.43640   0.00000  Uiso   1.00
N193   N     0.68851   0.19253   0.19667   0.00000  Uiso   1.00
O194   O     0.83333   0.16667   0.25000   0.00000  Uiso   1.00
O195   O     0.82118   0.12637   0.15458   0.00000  Uiso   1.00
O196   O     0.79607   0.20391   0.34968   0.00000  Uiso   1.00
O197   O     0.87491   0.17759   0.14606   0.00000  Uiso   1.00
O198   O     0.84118   0.15880   0.34968   0.00000  Uiso   1.00
O199   O     0.89528   0.07982   0.07866   0.00000  Uiso   1.00
O200   O     0.81346   0.19572   0.08204   0.00000  Uiso   1.00
O201   O     0.85651   0.24762   0.02864   0.00000  Uiso   1.00
O202   O     0.84597   0.08019   0.28213   0.00000  Uiso   1.00
O203   O     0.81298   0.26085   0.27013   0.00000  Uiso   1.00
O204   O     0.74078   0.13291   0.23413   0.00000  Uiso   1.00
O205   O     0.93360   0.19272   0.21360   0.00000  Uiso   1.00
O206   O     0.73738   0.18878   0.28213   0.00000  Uiso   1.00
O207   O     0.92158   0.15226   0.27013   0.00000  Uiso   1.00
O208   O     0.80426   0.06944   0.23413   0.00000  Uiso   1.00
O209   O     0.87012   0.25620   0.21360   0.00000  Uiso   1.00
Zn210  Zn    0.86005   0.13994   0.28734   0.00000  Uiso   1.00
Zn211  Zn    0.80046   0.12458   0.21875   0.00000  Uiso   1.00
Zn212  Zn    0.87723   0.19775   0.20657   0.00000  Uiso   1.00
Zn213  Zn    0.79560   0.20439   0.28733   0.00000  Uiso   1.00
C214   C     0.05304   0.49321   0.25997   0.00000  Uiso   1.00
C215   C     0.17315   0.49965   0.05909   0.00000  Uiso   1.00
C216   C     0.20943   0.43854   0.05903   0.00000  Uiso   1.00
C217   C     0.28072   0.50721   0.24024   0.00000  Uiso   1.00
C218   C     0.14557   0.52929   0.41858   0.00000  Uiso   1.00
C219   C     0.32659   0.50815   0.23519   0.00000  Uiso   1.00
C220   C     0.00771   0.49100   0.26547   0.00000  Uiso   1.00
C221   C     0.18037   0.65586   0.23653   0.00000  Uiso   1.00
C222   C     0.15194   0.34512   0.26399   0.00000  Uiso   1.00
C223   C     0.15612   0.38926   0.26026   0.00000  Uiso   1.00
C224   C     0.17656   0.61123   0.24019   0.00000  Uiso   1.00
C225   C     0.15282   0.58750   0.47277   0.00000  Uiso   1.00
C226   C     0.18514   0.48154   0.12957   0.00000  Uiso   1.00
C227   C     0.14822   0.51761   0.37092   0.00000  Uiso   1.00
C228   C     0.20514   0.42592   0.01617   0.00000  Uiso   1.00
C229   C     0.19133   0.47444   0.08153   0.00000  Uiso   1.00
C230   C     0.14102   0.57095   0.43418   0.00000  Uiso   1.00
C231   C     0.32631   0.44679   0.32872   0.00000  Uiso   1.00
C232   C     0.18623   0.38006   0.38940   0.00000  Uiso   1.00
C233   C     0.03198   0.57076   0.20162   0.00000  Uiso   1.00
C234   C     0.16830   0.56243   0.49739   0.00000  Uiso   1.00
C235   C     0.16587   0.51841   0.48650   0.00000  Uiso   1.00
C236   C     0.15589   0.50218   0.44577   0.00000  Uiso   1.00
C237   C     0.17610   0.49033   0.01306   0.00000  Uiso   1.00
C238   C     0.18645   0.45017   0.49375   0.00000  Uiso   1.00
C239   C     0.17643   0.43429   0.45334   0.00000  Uiso   1.00
C240   C     0.15765   0.45943   0.43225   0.00000  Uiso   1.00
H241   H     0.20653   0.33713   0.21129   0.00000  Uiso   1.00
H242   H     0.02039   0.46058   0.34257   0.00000  Uiso   1.00
H243   H     0.00193   0.41952   0.30485   0.00000  Uiso   1.00
H244   H     0.16600   0.36963   0.45772   0.00000  Uiso   1.00
H245   H     0.19949   0.34974   0.38066   0.00000  Uiso   1.00
H246   H     0.20832   0.40376   0.36856   0.00000  Uiso   1.00
H247   H     0.15439   0.37612   0.38206   0.00000  Uiso   1.00
H248   H     0.15044   0.53624   0.11259   0.00000  Uiso   1.00
H249   H     0.18910   0.61161   0.03142   0.00000  Uiso   1.00
H250   H     0.04835   0.51073   0.18229   0.00000  Uiso   1.00
H251   H     0.04992   0.57958   0.22768   0.00000  Uiso   1.00
H252   H     0.12546   0.66468   0.28943   0.00000  Uiso   1.00
H253   H     0.00236   0.58618   0.21087   0.00000  Uiso   1.00
H254   H     0.05209   0.58206   0.16945   0.00000  Uiso   1.00
H255   H     0.21626   0.39661   0.00076   0.00000  Uiso   1.00
H256   H     0.13272   0.59205   0.41408   0.00000  Uiso   1.00
H257   H     0.15299   0.62077   0.48154   0.00000  Uiso   1.00
H258   H     0.14474   0.44543   0.40479   0.00000  Uiso   1.00
H259   H     0.23463   0.42776   0.10638   0.00000  Uiso   1.00
H260   H     0.30020   0.50181   0.32807   0.00000  Uiso   1.00
H261   H     0.29934   0.43575   0.35662   0.00000  Uiso   1.00
N262   N     0.31319   0.47773   0.30670   0.00000  Uiso   1.00
N263   N     0.18233   0.39209   0.43640   0.00000  Uiso   1.00
N264   N     0.02184   0.52587   0.19667   0.00000  Uiso   1.00
O265   O     0.16667   0.50000   0.25000   0.00000  Uiso   1.00
O266   O     0.15451   0.45970   0.15458   0.00000  Uiso   1.00
O267   O     0.12940   0.53724   0.34968   0.00000  Uiso   1.00
O268   O     0.20824   0.51092   0.14606   0.00000  Uiso   1.00
O269   O     0.17451   0.49213   0.34968   0.00000  Uiso   1.00
O270   O     0.22861   0.41316   0.07866   0.00000  Uiso   1.00
O271   O     0.14679   0.52905   0.08204   0.00000  Uiso   1.00
O272   O     0.18985   0.58096   0.02864   0.00000  Uiso   1.00
O273   O     0.17930   0.41352   0.28213   0.00000  Uiso   1.00
O274   O     0.14632   0.59418   0.27013   0.00000  Uiso   1.00
O275   O     0.07412   0.46625   0.23413   0.00000  Uiso   1.00
O276   O     0.26693   0.52605   0.21360   0.00000  Uiso   1.00
O277   O     0.07071   0.52211   0.28213   0.00000  Uiso   1.00
O278   O     0.25491   0.48559   0.27013   0.00000  Uiso   1.00
O279   O     0.13760   0.40277   0.23413   0.00000  Uiso   1.00
O280   O     0.20345   0.58953   0.21360   0.00000  Uiso   1.00
Zn281  Zn    0.19338   0.47327   0.28734   0.00000  Uiso   1.00
Zn282  Zn    0.13379   0.45791   0.21875   0.00000  Uiso   1.00
Zn283  Zn    0.21056   0.53109   0.20657   0.00000  Uiso   1.00
Zn284  Zn    0.12893   0.53773   0.28733   0.00000  Uiso   1.00
C285   C     0.38638   0.49321   0.25997   0.00000  Uiso   1.00
C286   C     0.50648   0.49965   0.05909   0.00000  Uiso   1.00
C287   C     0.54276   0.43854   0.05903   0.00000  Uiso   1.00
C288   C     0.61405   0.50721   0.24024   0.00000  Uiso   1.00
C289   C     0.47890   0.52929   0.41858   0.00000  Uiso   1.00
C290   C     0.65993   0.50815   0.23519   0.00000  Uiso   1.00
C291   C     0.34104   0.49100   0.26547   0.00000  Uiso   1.00
C292   C     0.51370   0.65586   0.23653   0.00000  Uiso   1.00
C293   C     0.48528   0.34512   0.26399   0.00000  Uiso   1.00
C294   C     0.48945   0.38926   0.26026   0.00000  Uiso   1.00
C295   C     0.50990   0.61123   0.24019   0.00000  Uiso   1.00
C296   C     0.48616   0.58750   0.47277   0.00000  Uiso   1.00
C297   C     0.51848   0.48154   0.12957   0.00000  Uiso   1.00
C298   C     0.48156   0.51761   0.37092   0.00000  Uiso   1.00
C299   C     0.53847   0.42592   0.01617   0.00000  Uiso   1.00
C300   C     0.52466   0.47444   0.08153   0.00000  Uiso   1.00
C301   C     0.47436   0.57095   0.43418   0.00000  Uiso   1.00
C302   C     0.65964   0.44679   0.32872   0.00000  Uiso   1.00
C303   C     0.51956   0.38006   0.38940   0.00000  Uiso   1.00
C304   C     0.36531   0.57076   0.20162   0.00000  Uiso   1.00
C305   C     0.50164   0.56243   0.49739   0.00000  Uiso   1.00
C306   C     0.49920   0.51841   0.48650   0.00000  Uiso   1.00
C307   C     0.48922   0.50218   0.44577   0.00000  Uiso   1.00
C308   C     0.50943   0.49033   0.01306   0.00000  Uiso   1.00
C309   C     0.51979   0.45017   0.49375   0.00000  Uiso   1.00
C310   C     0.50976   0.43429   0.45334   0.00000  Uiso   1.00
C311   C     0.49098   0.45943   0.43225   0.00000  Uiso   1.00
H312   H     0.53987   0.33713   0.21129   0.00000  Uiso   1.00
H313   H     0.35373   0.46058   0.34257   0.00000  Uiso   1.00
H314   H     0.33526   0.41952   0.30485   0.00000  Uiso   1.00
H315   H     0.49933   0.36963   0.45772   0.00000  Uiso   1.00
H316   H     0.53282   0.34974   0.38066   0.00000  Uiso   1.00
H317   H     0.54166   0.40376   0.36856   0.00000  Uiso   1.00
H318   H     0.48772   0.37612   0.38206   0.00000  Uiso   1.00
H319   H     0.48377   0.53624   0.11259   0.00000  Uiso   1.00
H320   H     0.52243   0.61161   0.03142   0.00000  Uiso   1.00
H321   H     0.38168   0.51073   0.18229   0.00000  Uiso   1.00
H322   H     0.38325   0.57958   0.22768   0.00000  Uiso   1.00
H323   H     0.45879   0.66468   0.28943   0.00000  Uiso   1.00
H324   H     0.33569   0.58618   0.21087   0.00000  Uiso   1.00
H325   H     0.38542   0.58206   0.16945   0.00000  Uiso   1.00
H326   H     0.54960   0.39661   0.00076   0.00000  Uiso   1.00
H327   H     0.46605   0.59205   0.41408   0.00000  Uiso   1.00
H328   H     0.48632   0.62077   0.48154   0.00000  Uiso   1.00
H329   H     0.47808   0.44543   0.40479   0.00000  Uiso   1.00
H330   H     0.56796   0.42776   0.10638   0.00000  Uiso   1.00
H331   H     0.63353   0.50181   0.32807   0.00000  Uiso   1.00
H332   H     0.63267   0.43575   0.35662   0.00000  Uiso   1.00
N333   N     0.64653   0.47773   0.30670   0.00000  Uiso   1.00
N334   N     0.51566   0.39209   0.43640   0.00000  Uiso   1.00
N335   N     0.35518   0.52587   0.19667   0.00000  Uiso   1.00
O336   O     0.50000   0.50000   0.25000   0.00000  Uiso   1.00
O337   O     0.48784   0.45970   0.15458   0.00000  Uiso   1.00
O338   O     0.46274   0.53724   0.34968   0.00000  Uiso   1.00
O339   O     0.54157   0.51092   0.14606   0.00000  Uiso   1.00
O340   O     0.50785   0.49213   0.34968   0.00000  Uiso   1.00
O341   O     0.56194   0.41316   0.07866   0.00000  Uiso   1.00
O342   O     0.48012   0.52905   0.08204   0.00000  Uiso   1.00
O343   O     0.52318   0.58096   0.02864   0.00000  Uiso   1.00
O344   O     0.51264   0.41352   0.28213   0.00000  Uiso   1.00
O345   O     0.47965   0.59418   0.27013   0.00000  Uiso   1.00
O346   O     0.40745   0.46625   0.23413   0.00000  Uiso   1.00
O347   O     0.60026   0.52605   0.21360   0.00000  Uiso   1.00
O348   O     0.40405   0.52211   0.28213   0.00000  Uiso   1.00
O349   O     0.58824   0.48559   0.27013   0.00000  Uiso   1.00
O350   O     0.47093   0.40277   0.23413   0.00000  Uiso   1.00
O351   O     0.53678   0.58953   0.21360   0.00000  Uiso   1.00
Zn352  Zn    0.52672   0.47327   0.28734   0.00000  Uiso   1.00
Zn353  Zn    0.46713   0.45791   0.21875   0.00000  Uiso   1.00
Zn354  Zn    0.54389   0.53109   0.20657   0.00000  Uiso   1.00
Zn355  Zn    0.46226   0.53773   0.28733   0.00000  Uiso   1.00
C356   C     0.71971   0.49321   0.25997   0.00000  Uiso   1.00
C357   C     0.83981   0.49965   0.05909   0.00000  Uiso   1.00
C358   C     0.87610   0.43854   0.05903   0.00000  Uiso   1.00
C359   C     0.94738   0.50721   0.24024   0.00000  Uiso   1.00
C360   C     0.81223   0.52929   0.41858   0.00000  Uiso   1.00
C361   C     0.99326   0.50815   0.23519   0.00000  Uiso   1.00
C362   C     0.67438   0.49100   0.26547   0.00000  Uiso   1.00
C363   C     0.84704   0.65586   0.23653   0.00000  Uiso   1.00
C364   C     0.81861   0.34512   0.26399   0.00000  Uiso   1.00
C365   C     0.82278   0.38926   0.26026   0.00000  Uiso   1.00
C366   C     0.84323   0.61123   0.24019   0.00000  Uiso   1.00
C367   C     0.81949   0.58750   0.47277   0.00000  Uiso   1.00
C368   C     0.85181   0.48154   0.12957   0.00000  Uiso   1.00
C369   C     0.81489   0.51761   0.37092   0.00000  Uiso   1.00
C370   C     0.87180   0.42592   0.01617   0.00000  Uiso   1.00
C371   C     0.85800   0.47444   0.08153   0.00000  Uiso   1.00
C372   C     0.80769   0.57095   0.43418   0.00000  Uiso   1.00
C373   C     0.99298   0.44679   0.32872   0.00000  Uiso   1.00
C374   C     0.85289   0.38006   0.38940   0.00000  Uiso   1.00
C375   C     0.69865   0.57076   0.20162   0.00000  Uiso   1.00
C376   C     0.83497   0.56243   0.49739   0.00000  Uiso   1.00
C377   C     0.83254   0.51841   0.48650   0.00000  Uiso   1.00
C378   C     0.82255   0.50218   0.44577   0.00000  Uiso   1.00
C379   C     0.84276   0.49033   0.01306   0.00000  Uiso   1.00
C380   C     0.85312   0.45017   0.49375   0.00000  Uiso   1.00
C381   C     0.84309   0.43429   0.45334   0.00000  Uiso   1.00
C382   C     0.82431   0.45943   0.43225   0.00000  Uiso   1.00
H383   H     0.87320   0.33713   0.21129   0.00000  Uiso   1.00
H384   H     0.68706   0.46058   0.34257   0.00000  Uiso   1.00
H385   H     0.66860   0.41952   0.30485   0.00000  Uiso   1.00
H386   H     0.83266   0.36963   0.45772   0.00000  Uiso   1.00
H387   H     0.86616   0.34974   0.38066   0.00000  Uiso   1.00
H388   H     0.87499   0.40376   0.36856   0.00000  Uiso   1.00
H389   H     0.82106   0.37612   0.38206   0.00000  Uiso   1.00
H390   H     0.81711   0.53624   0.11259   0.00000  Uiso   1.00
H391   H     0.85577   0.61161   0.03142   0.00000  Uiso   1.00
H392   H     0.71502   0.51073   0.18229   0.00000  Uiso   1.00
H393   H     0.71659   0.57958   0.22768   0.00000  Uiso   1.00
H394   H     0.79213   0.66468   0.28943   0.00000  Uiso   1.00
H395   H     0.66902   0.58618   0.21087   0.00000  Uiso   1.00
H396   H     0.71875   0.58206   0.16945   0.00000  Uiso   1.00
H397   H     0.88293   0.39661   0.00076   0.00000  Uiso   1.00
H398   H     0.79939   0.59205   0.41408   0.00000  Uiso   1.00
H399   H     0.81965   0.62077   0.48154   0.00000  Uiso   1.00
H400   H     0.81141   0.44543   0.40479   0.00000  Uiso   1.00
H401   H     0.90130   0.42776   0.10638   0.00000  Uiso   1.00
H402   H     0.96687   0.50181   0.32807   0.00000  Uiso   1.00
H403   H     0.96600   0.43575   0.35662   0.00000  Uiso   1.00
N404   N     0.97986   0.47773   0.30670   0.00000  Uiso   1.00
N405   N     0.84899   0.39209   0.43640   0.00000  Uiso   1.00
N406   N     0.68851   0.52587   0.19667   0.00000  Uiso   1.00
O407   O     0.83333   0.50000   0.25000   0.00000  Uiso   1.00
O408   O     0.82118   0.45970   0.15458   0.00000  Uiso   1.00
O409   O     0.79607   0.53724   0.34968   0.00000  Uiso   1.00
O410   O     0.87491   0.51092   0.14606   0.00000  Uiso   1.00
O411   O     0.84118   0.49213   0.34968   0.00000  Uiso   1.00
O412   O     0.89528   0.41316   0.07866   0.00000  Uiso   1.00
O413   O     0.81346   0.52905   0.08204   0.00000  Uiso   1.00
O414   O     0.85651   0.58096   0.02864   0.00000  Uiso   1.00
O415   O     0.84597   0.41352   0.28213   0.00000  Uiso   1.00
O416   O     0.81298   0.59418   0.27013   0.00000  Uiso   1.00
O417   O     0.74078   0.46625   0.23413   0.00000  Uiso   1.00
O418   O     0.93360   0.52605   0.21360   0.00000  Uiso   1.00
O419   O     0.73738   0.52211   0.28213   0.00000  Uiso   1.00
O420   O     0.92158   0.48559   0.27013   0.00000  Uiso   1.00
O421   O     0.80426   0.40277   0.23413   0.00000  Uiso   1.00
O422   O     0.87012   0.58953   0.21360   0.00000  Uiso   1.00
Zn423  Zn    0.86005   0.47327   0.28734   0.00000  Uiso   1.00
Zn424  Zn    0.80046   0.45791   0.21875   0.00000  Uiso   1.00
Zn425  Zn    0.87723   0.53109   0.20657   0.00000  Uiso   1.00
Zn426  Zn    0.79560   0.53773   0.28733   0.00000  Uiso   1.00
C427   C     0.05304   0.82655   0.25997   0.00000  Uiso   1.00
C428   C     0.17315   0.83299   0.05909   0.00000  Uiso   1.00
C429   C     0.20943   0.77187   0.05903   0.00000  Uiso   1.00
C430   C     0.28072   0.84055   0.24024   0.00000  Uiso   1.00
C431   C     0.14557   0.86262   0.41858   0.00000  Uiso   1.00
C432   C     0.32659   0.84149   0.23519   0.00000  Uiso   1.00
C433   C     0.00771   0.82433   0.26547   0.00000  Uiso   1.00
C434   C     0.18037   0.98919   0.23653   0.00000  Uiso   1.00
C435   C     0.15194   0.67845   0.26399   0.00000  Uiso   1.00
C436   C     0.15612   0.72259   0.26026   0.00000  Uiso   1.00
C437   C     0.17656   0.94456   0.24019   0.00000  Uiso   1.00
C438   C     0.15282   0.92083   0.47277   0.00000  Uiso   1.00
C439   C     0.18514   0.81487   0.12957   0.00000  Uiso   1.00
C440   C     0.14822   0.85094   0.37092   0.00000  Uiso   1.00
C441   C     0.20514   0.75925   0.01617   0.00000  Uiso   1.00
C442   C     0.19133   0.80777   0.08153   0.00000  Uiso   1.00
C443   C     0.14102   0.90428   0.43418   0.00000  Uiso   1.00
C444   C     0.32631   0.78013   0.32872   0.00000  Uiso   1.00
C445   C     0.18623   0.71340   0.38940   0.00000  Uiso   1.00
C446   C     0.03198   0.90409   0.20162   0.00000  Uiso   1.00
C447   C     0.16830   0.89576   0.49739   0.00000  Uiso   1.00
C448   C     0.16587   0.85175   0.48650   0.00000  Uiso   1.00
C449   C     0.15589   0.83552   0.44577   0.00000  Uiso   1.00
C450   C     0.17610   0.82366   0.01306   0.00000  Uiso   1.00
C451   C     0.18645   0.78350   0.49375   0.00000  Uiso   1.00
C452   C     0.17643   0.76762   0.45334   0.00000  Uiso   1.00
C453   C     0.15765   0.79276   0.43225   0.00000  Uiso   1.00
H454   H     0.20653   0.67046   0.21129   0.00000  Uiso   1.00
H455   H     0.02039   0.79391   0.34257   0.00000  Uiso   1.00
H456   H     0.00193   0.75285   0.30485   0.00000  Uiso   1.00
H457   H     0.16600   0.70296   0.45772   0.00000  Uiso   1.00
H458   H     0.19949   0.68307   0.38066   0.00000  Uiso   1.00
H459   H     0.20832   0.73710   0.36856   0.00000  Uiso   1.00
H460   H     0.15439   0.70945   0.38206   0.00000  Uiso   1.00
H461   H     0.15044   0.86957   0.11259   0.00000  Uiso   1.00
H462   H     0.18910   0.94495   0.03142   0.00000  Uiso   1.00
H463   H     0.04835   0.84407   0.18229   0.00000  Uiso   1.00
H464   H     0.04992   0.91292   0.22768   0.00000  Uiso   1.00
H465   H     0.12546   0.99801   0.28943   0.00000  Uiso   1.00
H466   H     0.00236   0.91952   0.21087   0.00000  Uiso   1.00
H467   H     0.05209   0.91539   0.16945   0.00000  Uiso   1.00
H468   H     0.21626   0.72995   0.00076   0.00000  Uiso   1.00
H469   H     0.13272   0.92539   0.41408   0.00000  Uiso   1.00
H470   H     0.15299   0.95411   0.48154   0.00000  Uiso   1.00
H471   H     0.14474   0.77876   0.40479   0.00000  Uiso   1.00
H472   H     0.23463   0.76109   0.10638   0.00000  Uiso   1.00
H473   H     0.30020   0.83514   0.32807   0.00000  Uiso   1.00
H474   H     0.29934   0.76909   0.35662   0.00000  Uiso   1.00
N475   N     0.31319   0.81107   0.30670   0.00000  Uiso   1.00
N476   N     0.18233   0.72543   0.43640   0.00000  Uiso   1.00
N477   N     0.02184   0.85920   0.19667   0.00000  Uiso   1.00
O478   O     0.16667   0.83333   0.25000   0.00000  Uiso   1.00
O479   O     0.15451   0.79304   0.15458   0.00000  Uiso   1.00
O480   O     0.12940   0.87058   0.34968   0.00000  Uiso   1.00
O481   O     0.20824   0.84425   0.14606   0.00000  Uiso   1.00
O482   O     0.17451   0.82546   0.34968   0.00000  Uiso   1.00
O483   O     0.22861   0.74649   0.07866   0.00000  Uiso   1.00
O484   O     0.14679   0.86238   0.08204   0.00000  Uiso   1.00
O485   O     0.18985   0.91429   0.02864   0.00000  Uiso   1.00
O486   O     0.17930   0.74686   0.28213   0.00000  Uiso   1.00
O487   O     0.14632   0.92751   0.27013   0.00000  Uiso   1.00
O488   O     0.07412   0.79958   0.23413   0.00000  Uiso   1.00
O489   O     0.26693   0.85939   0.21360   0.00000  Uiso   1.00
O490   O     0.07071   0.85544   0.28213   0.00000  Uiso   1.00
O491   O     0.25491   0.81892   0.27013   0.00000  Uiso   1.00
O492   O     0.13760   0.73610   0.23413   0.00000  Uiso   1.00
O493   O     0.20345   0.92286   0.21360   0.00000  Uiso   1.00
Zn494  Zn    0.19338   0.80661   0.28734   0.00000  Uiso   1.00
Zn495  Zn    0.13379   0.79124   0.21875   0.00000  Uiso   1.00
Zn496  Zn    0.21056   0.86442   0.20657   0.00000  Uiso   1.00
Zn497  Zn    0.12893   0.87106   0.28733   0.00000  Uiso   1.00
C498   C     0.38638   0.82655   0.25997   0.00000  Uiso   1.00
C499   C     0.50648   0.83299   0.05909   0.00000  Uiso   1.00
C500   C     0.54276   0.77187   0.05903   0.00000  Uiso   1.00
C501   C     0.61405   0.84055   0.24024   0.00000  Uiso   1.00
C502   C     0.47890   0.86262   0.41858   0.00000  Uiso   1.00
C503   C     0.65993   0.84149   0.23519   0.00000  Uiso   1.00
C504   C     0.34104   0.82433   0.26547   0.00000  Uiso   1.00
C505   C     0.51370   0.98919   0.23653   0.00000  Uiso   1.00
C506   C     0.48528   0.67845   0.26399   0.00000  Uiso   1.00
C507   C     0.48945   0.72259   0.26026   0.00000  Uiso   1.00
C508   C     0.50990   0.94456   0.24019   0.00000  Uiso   1.00
C509   C     0.48616   0.92083   0.47277   0.00000  Uiso   1.00
C510   C     0.51848   0.81487   0.12957   0.00000  Uiso   1.00
C511   C     0.48156   0.85094   0.37092   0.00000  Uiso   1.00
C512   C     0.53847   0.75925   0.01617   0.00000  Uiso   1.00
C513   C     0.52466   0.80777   0.08153   0.00000  Uiso   1.00
C514   C     0.47436   0.90428   0.43418   0.00000  Uiso   1.00
C515   C     0.65964   0.78013   0.32872   0.00000  Uiso   1.00
C516   C     0.51956   0.71340   0.38940   0.00000  Uiso   1.00
C517   C     0.36531   0.90409   0.20162   0.00000  Uiso   1.00
C518   C     0.50164   0.89576   0.49739   0.00000  Uiso   1.00
C519   C     0.49920   0.85175   0.48650   0.00000  Uiso   1.00
C520   C     0.48922   0.83552   0.44577   0.00000  Uiso   1.00
C521   C     0.50943   0.82366   0.01306   0.00000  Uiso   1.00
C522   C     0.51979   0.78350   0.49375   0.00000  Uiso   1.00
C523   C     0.50976   0.76762   0.45334   0.00000  Uiso   1.00
C524   C     0.49098   0.79276   0.43225   0.00000  Uiso   1.00
H525   H     0.53987   0.67046   0.21129   0.00000  Uiso   1.00
H526   H     0.35373   0.79391   0.34257   0.00000  Uiso   1.00
H527   H     0.33526   0.75285   0.30485   0.00000  Uiso   1.00
H528   H     0.49933   0.70296   0.45772   0.00000  Uiso   1.00
H529   H     0.53282   0.68307   0.38066   0.00000  Uiso   1.00
H530   H     0.54166   0.73710   0.36856   0.00000  Uiso   1.00
H531   H     0.48772   0.70945   0.38206   0.00000  Uiso   1.00
H532   H     0.48377   0.86957   0.11259   0.00000  Uiso   1.00
H533   H     0.52243   0.94495   0.03142   0.00000  Uiso   1.00
H534   H     0.38168   0.84407   0.18229   0.00000  Uiso   1.00
H535   H     0.38325   0.91292   0.22768   0.00000  Uiso   1.00
H536   H     0.45879   0.99801   0.28943   0.00000  Uiso   1.00
H537   H     0.33569   0.91952   0.21087   0.00000  Uiso   1.00
H538   H     0.38542   0.91539   0.16945   0.00000  Uiso   1.00
H539   H     0.54960   0.72995   0.00076   0.00000  Uiso   1.00
H540   H     0.46605   0.92539   0.41408   0.00000  Uiso   1.00
H541   H     0.48632   0.95411   0.48154   0.00000  Uiso   1.00
H542   H     0.47808   0.77876   0.40479   0.00000  Uiso   1.00
H543   H     0.56796   0.76109   0.10638   0.00000  Uiso   1.00
H544   H     0.63353   0.83514   0.32807   0.00000  Uiso   1.00
H545   H     0.63267   0.76909   0.35662   0.00000  Uiso   1.00
N546   N     0.64653   0.81107   0.30670   0.00000  Uiso   1.00
N547   N     0.51566   0.72543   0.43640   0.00000  Uiso   1.00
N548   N     0.35518   0.85920   0.19667   0.00000  Uiso   1.00
O549   O     0.50000   0.83333   0.25000   0.00000  Uiso   1.00
O550   O     0.48784   0.79304   0.15458   0.00000  Uiso   1.00
O551   O     0.46274   0.87058   0.34968   0.00000  Uiso   1.00
O552   O     0.54157   0.84425   0.14606   0.00000  Uiso   1.00
O553   O     0.50785   0.82546   0.34968   0.00000  Uiso   1.00
O554   O     0.56194   0.74649   0.07866   0.00000  Uiso   1.00
O555   O     0.48012   0.86238   0.08204   0.00000  Uiso   1.00
O556   O     0.52318   0.91429   0.02864   0.00000  Uiso   1.00
O557   O     0.51264   0.74686   0.28213   0.00000  Uiso   1.00
O558   O     0.47965   0.92751   0.27013   0.00000  Uiso   1.00
O559   O     0.40745   0.79958   0.23413   0.00000  Uiso   1.00
O560   O     0.60026   0.85939   0.21360   0.00000  Uiso   1.00
O561   O     0.40405   0.85544   0.28213   0.00000  Uiso   1.00
O562   O     0.58824   0.81892   0.27013   0.00000  Uiso   1.00
O563   O     0.47093   0.73610   0.23413   0.00000  Uiso   1.00
O564   O     0.53678   0.92286   0.21360   0.00000  Uiso   1.00
Zn565  Zn    0.52672   0.80661   0.28734   0.00000  Uiso   1.00
Zn566  Zn    0.46713   0.79124   0.21875   0.00000  Uiso   1.00
Zn567  Zn    0.54389   0.86442   0.20657   0.00000  Uiso   1.00
Zn568  Zn    0.46226   0.87106   0.28733   0.00000  Uiso   1.00
C569   C     0.71971   0.82655   0.25997   0.00000  Uiso   1.00
C570   C     0.83981   0.83299   0.05909   0.00000  Uiso   1.00
C571   C     0.87610   0.77187   0.05903   0.00000  Uiso   1.00
C572   C     0.94738   0.84055   0.24024   0.00000  Uiso   1.00
C573   C     0.81223   0.86262   0.41858   0.00000  Uiso   1.00
C574   C     0.99326   0.84149   0.23519   0.00000  Uiso   1.00
C575   C     0.67438   0.82433   0.26547   0.00000  Uiso   1.00
C576   C     0.84704   0.98919   0.23653   0.00000  Uiso   1.00
C577   C     0.81861   0.67845   0.26399   0.00000  Uiso   1.00
C578   C     0.82278   0.72259   0.26026   0.00000  Uiso   1.00
C579   C     0.84323   0.94456   0.24019   0.00000  Uiso   1.00
C580   C     0.81949   0.92083   0.47277   0.00000  Uiso   1.00
C581   C     0.85181   0.81487   0.12957   0.00000  Uiso   1.00
C582   C     0.81489   0.85094   0.37092   0.00000  Uiso   1.00
C583   C     0.87180   0.75925   0.01617   0.00000  Uiso   1.00
C584   C     0.85800   0.80777   0.08153   0.00000  Uiso   1.00
C585   C     0.80769   0.90428   0.43418   0.00000  Uiso   1.00
C586   C     0.99298   0.78013   0.32872   0.00000  Uiso   1.00
C587   C     0.85289   0.71340   0.38940   0.00000  Uiso   1.00
C588   C     0.69865   0.90409   0.20162   0.00000  Uiso   1.00
C589   C     0.83497   0.89576   0.49739   0.00000  Uiso   1.00
C590   C     0.83254   0.85175   0.48650   0.00000  Uiso   1.00
C591   C     0.82255   0.83552   0.44577   0.00000  Uiso   1.00
C592   C     0.84276   0.82366   0.01306   0.00000  Uiso   1.00
C593   C     0.85312   0.78350   0.49375   0.00000  Uiso   1.00
C594   C     0.84309   0.76762   0.45334   0.00000  Uiso   1.00
C595   C     0.82431   0.79276   0.43225   0.00000  Uiso   1.00
H596   H     0.87320   0.67046   0.21129   0.00000  Uiso   1.00
H597   H     0.68706   0.79391   0.34257   0.00000  Uiso   1.00
H598   H     0.66860   0.75285   0.30485   0.00000  Uiso   1.00
H599   H     0.83266   0.70296   0.45772   0.00000  Uiso   1.00
H600   H     0.86616   0.68307   0.38066   0.00000  Uiso   1.00
H601   H     0.87499   0.73710   0.36856   0.00000  Uiso   1.00
H602   H     0.82106   0.70945   0.38206   0.00000  Uiso   1.00
H603   H     0.81711   0.86957   0.11259   0.00000  Uiso   1.00
H604   H     0.85577   0.94495   0.03142   0.00000  Uiso   1.00
H605   H     0.71502   0.84407   0.18229   0.00000  Uiso   1.00
H606   H     0.71659   0.91292   0.22768   0.00000  Uiso   1.00
H607   H     0.79213   0.99801   0.28943   0.00000  Uiso   1.00
H608   H     0.66902   0.91952   0.21087   0.00000  Uiso   1.00
H609   H     0.71875   0.91539   0.16945   0.00000  Uiso   1.00
H610   H     0.88293   0.72995   0.00076   0.00000  Uiso   1.00
H611   H     0.79939   0.92539   0.41408   0.00000  Uiso   1.00
H612   H     0.81965   0.95411   0.48154   0.00000  Uiso   1.00
H613   H     0.81141   0.77876   0.40479   0.00000  Uiso   1.00
H614   H     0.90130   0.76109   0.10638   0.00000  Uiso   1.00
H615   H     0.96687   0.83514   0.32807   0.00000  Uiso   1.00
H616   H     0.96600   0.76909   0.35662   0.00000  Uiso   1.00
N617   N     0.97986   0.81107   0.30670   0.00000  Uiso   1.00
N618   N     0.84899   0.72543   0.43640   0.00000  Uiso   1.00
N619   N     0.68851   0.85920   0.19667   0.00000  Uiso   1.00
O620   O     0.83333   0.83333   0.25000   0.00000  Uiso   1.00
O621   O     0.82118   0.79304   0.15458   0.00000  Uiso   1.00
O622   O     0.79607   0.87058   0.34968   0.00000  Uiso   1.00
O623   O     0.87491   0.84425   0.14606   0.00000  Uiso   1.00
O624   O     0.84118   0.82546   0.34968   0.00000  Uiso   1.00
O625   O     0.89528   0.74649   0.07866   0.00000  Uiso   1.00
O626   O     0.81346   0.86238   0.08204   0.00000  Uiso   1.00
O627   O     0.85651   0.91429   0.02864   0.00000  Uiso   1.00
O628   O     0.84597   0.74686   0.28213   0.00000  Uiso   1.00
O629   O     0.81298   0.92751   0.27013   0.00000  Uiso   1.00
O630   O     0.74078   0.79958   0.23413   0.00000  Uiso   1.00
O631   O     0.93360   0.85939   0.21360   0.00000  Uiso   1.00
O632   O     0.73738   0.85544   0.28213   0.00000  Uiso   1.00
O633   O     0.92158   0.81892   0.27013   0.00000  Uiso   1.00
O634   O     0.80426   0.73610   0.23413   0.00000  Uiso   1.00
O635   O     0.87012   0.92286   0.21360   0.00000  Uiso   1.00
Zn636  Zn    0.86005   0.80661   0.28734   0.00000  Uiso   1.00
Zn637  Zn    0.80046   0.79124   0.21875   0.00000  Uiso   1.00
Zn638  Zn    0.87723   0.86442   0.20657   0.00000  Uiso   1.00
Zn639  Zn    0.79560   0.87106   0.28733   0.00000  Uiso   1.00
C640   C     0.05304   0.15988   0.75997   0.00000  Uiso   1.00
C641   C     0.17315   0.16632   0.55909   0.00000  Uiso   1.00
C642   C     0.20943   0.10520   0.55903   0.00000  Uiso   1.00
C643   C     0.28072   0.17388   0.74024   0.00000  Uiso   1.00
C644   C     0.14557   0.19595   0.91858   0.00000  Uiso   1.00
C645   C     0.32659   0.17482   0.73519   0.00000  Uiso   1.00
C646   C     0.00771   0.15767   0.76547   0.00000  Uiso   1.00
C647   C     0.18037   0.32253   0.73653   0.00000  Uiso   1.00
C648   C     0.15194   0.01178   0.76399   0.00000  Uiso   1.00
C649   C     0.15612   0.05593   0.76026   0.00000  Uiso   1.00
C650   C     0.17656   0.27790   0.74019   0.00000  Uiso   1.00
C651   C     0.15282   0.25416   0.97277   0.00000  Uiso   1.00
C652   C     0.18514   0.14820   0.62957   0.00000  Uiso   1.00
C653   C     0.14822   0.18428   0.87092   0.00000  Uiso   1.00
C654   C     0.20514   0.09258   0.51617   0.00000  Uiso   1.00
C655   C     0.19133   0.14111   0.58153   0.00000  Uiso   1.00
C656   C     0.14102   0.23762   0.93418   0.00000  Uiso   1.00
C657   C     0.32631   0.11346   0.82872   0.00000  Uiso   1.00
C658   C     0.18623   0.04673   0.88940   0.00000  Uiso   1.00
C659   C     0.03198   0.23743   0.70162   0.00000  Uiso   1.00
C660   C     0.16830   0.22910   0.99739   0.00000  Uiso   1.00
C661   C     0.16587   0.18508   0.98650   0.00000  Uiso   1.00
C662   C     0.15589   0.16885   0.94577   0.00000  Uiso   1.00
C663   C     0.17610   0.15700   0.51306   0.00000  Uiso   1.00
C664   C     0.18645   0.11683   0.99375   0.00000  Uiso   1.00
C665   C     0.17643   0.10095   0.95334   0.00000  Uiso   1.00
C666   C     0.15765   0.12609   0.93225   0.00000  Uiso   1.00
H667   H     0.20653   0.00379   0.71129   0.00000  Uiso   1.00
H668   H     0.02039   0.12724   0.84257   0.00000  Uiso   1.00
H669   H     0.00193   0.08618   0.80485   0.00000  Uiso   1.00
H670   H     0.16600   0.03629   0.95772   0.00000  Uiso   1.00
H671   H     0.19949   0.01641   0.88066   0.00000  Uiso   1.00
H672   H     0.20832   0.07043   0.86856   0.00000  Uiso   1.00
H673   H     0.15439   0.04279   0.88206   0.00000  Uiso   1.00
H674   H     0.15044   0.20291   0.61259   0.00000  Uiso   1.00
H675   H     0.18910   0.27828   0.53142   0.00000  Uiso   1.00
H676   H     0.04835   0.17740   0.68229   0.00000  Uiso   1.00
H677   H     0.04992   0.24625   0.72768   0.00000  Uiso   1.00
H678   H     0.12546   0.33135   0.78943   0.00000  Uiso   1.00
H679   H     0.00236   0.25285   0.71087   0.00000  Uiso   1.00
H680   H     0.05209   0.24873   0.66945   0.00000  Uiso   1.00
H681   H     0.21626   0.06328   0.50076   0.00000  Uiso   1.00
H682   H     0.13272   0.25872   0.91408   0.00000  Uiso   1.00
H683   H     0.15299   0.28744   0.98154   0.00000  Uiso   1.00
H684   H     0.14474   0.11210   0.90479   0.00000  Uiso   1.00
H685   H     0.23463   0.09443   0.60638   0.00000  Uiso   1.00
H686   H     0.30020   0.16848   0.82807   0.00000  Uiso   1.00
H687   H     0.29934   0.10242   0.85662   0.00000  Uiso   1.00
N688   N     0.31319   0.14440   0.80670   0.00000  Uiso   1.00
N689   N     0.18233   0.05876   0.93640   0.00000  Uiso   1.00
N690   N     0.02184   0.19253   0.69667   0.00000  Uiso   1.00
O691   O     0.16667   0.16667   0.75000   0.00000  Uiso   1.00
O692   O     0.15451   0.12637   0.65458   0.00000  Uiso   1.00
O693   O     0.12940   0.20391   0.84968   0.00000  Uiso   1.00
O694   O     0.20824   0.17759   0.64606   0.00000  Uiso   1.00
O695   O     0.17451   0.15880   0.84968   0.00000  Uiso   1.00
O696   O     0.22861   0.07982   0.57866   0.00000  Uiso   1.00
O697   O     0.14679   0.19572   0.58204   0.00000  Uiso   1.00
O698   O     0.18985   0.24762   0.52864   0.00000  Uiso   1.00
O699   O     0.17930   0.08019   0.78213   0.00000  Uiso   1.00
O700   O     0.14632   0.26085   0.77013   0.00000  Uiso   1.00
O701   O     0.07412   0.13291   0.73413   0.00000  Uiso   1.00
O702   O     0.26693   0.19272   0.71360   0.00000  Uiso   1.00
O703   O     0.07071   0.18878   0.78213   0.00000  Uiso   1.00
O704   O     0.25491   0.15226   0.77013   0.00000  Uiso   1.00
O705   O     0.13760   0.06944   0.73413   0.00000  Uiso   1.00
O706   O     0.20345   0.25620   0.71360   0.00000  Uiso   1.00
Zn707  Zn    0.19338   0.13994   0.78734   0.00000  Uiso   1.00
Zn708  Zn    0.13379   0.12458   0.71875   0.00000  Uiso   1.00
Zn709  Zn    0.21056   0.19775   0.70657   0.00000  Uiso   1.00
Zn710  Zn    0.12893   0.20439   0.78733   0.00000  Uiso   1.00
C711   C     0.38638   0.15988   0.75997   0.00000  Uiso   1.00
C712   C     0.50648   0.16632   0.55909   0.00000  Uiso   1.00
C713   C     0.54276   0.10520   0.55903   0.00000  Uiso   1.00
C714   C     0.61405   0.17388   0.74024   0.00000  Uiso   1.00
C715   C     0.47890   0.19595   0.91858   0.00000  Uiso   1.00
C716   C     0.65993   0.17482   0.73519   0.00000  Uiso   1.00
C717   C     0.34104   0.15767   0.76547   0.00000  Uiso   1.00
C718   C     0.51370   0.32253   0.73653   0.00000  Uiso   1.00
C719   C     0.48528   0.01178   0.76399   0.00000  Uiso   1.00
C720   C     0.48945   0.05593   0.76026   0.00000  Uiso   1.00
C721   C     0.50990   0.27790   0.74019   0.00000  Uiso   1.00
C722   C     0.48616   0.25416   0.97277   0.00000  Uiso   1.00
C723   C     0.51848   0.14820   0.62957   0.00000  Uiso   1.00
C724   C     0.48156   0.18428   0.87092   0.00000  Uiso   1.00
C725   C     0.53847   0.09258   0.51617   0.00000  Uiso   1.00
C726   C     0.52466   0.14111   0.58153   0.00000  Uiso   1.00
C727   C     0.47436   0.23762   0.93418   0.00000  Uiso   1.00
C728   C     0.65964   0.11346   0.82872   0.00000  Uiso   1.00
C729   C     0.51956   0.04673   0.88940   0.00000  Uiso   1.00
C730   C     0.36531   0.23743   0.70162   0.00000  Uiso   1.00
C731   C     0.50164   0.22910   0.99739   0.00000  Uiso   1.00
C732   C     0.49920   0.18508   0.98650   0.00000  Uiso   1.00
C733   C     0.48922   0.16885   0.94577   0.00000  Uiso   1.00
C734   C     0.50943   0.15700   0.51306   0.00000  Uiso   1.00
C735   C     0.51979   0.11683   0.99375   0.00000  Uiso   1.00
C736   C     0.50976   0.10095   0.95334   0.00000  Uiso   1.00
C737   C     0.49098   0.12609   0.93225   0.00000  Uiso   1.00
H738   H     0.53987   0.00379   0.71129   0.00000  Uiso   1.00
H739   H     0.35373   0.12724   0.84257   0.00000  Uiso   1.00
H740   H     0.33526   0.08618   0.80485   0.00000  Uiso   1.00
H741   H     0.49933   0.03629   0.95772   0.00000  Uiso   1.00
H742   H     0.53282   0.01641   0.88066   0.00000  Uiso   1.00
H743   H     0.54166   0.07043   0.86856   0.00000  Uiso   1.00
H744   H     0.48772   0.04279   0.88206   0.00000  Uiso   1.00
H745   H     0.48377   0.20291   0.61259   0.00000  Uiso   1.00
H746   H     0.52243   0.27828   0.53142   0.00000  Uiso   1.00
H747   H     0.38168   0.17740   0.68229   0.00000  Uiso   1.00
H748   H     0.38325   0.24625   0.72768   0.00000  Uiso   1.00
H749   H     0.45879   0.33135   0.78943   0.00000  Uiso   1.00
H750   H     0.33569   0.25285   0.71087   0.00000  Uiso   1.00
H751   H     0.38542   0.24873   0.66945   0.00000  Uiso   1.00
H752   H     0.54960   0.06328   0.50076   0.00000  Uiso   1.00
H753   H     0.46605   0.25872   0.91408   0.00000  Uiso   1.00
H754   H     0.48632   0.28744   0.98154   0.00000  Uiso   1.00
H755   H     0.47808   0.11210   0.90479   0.00000  Uiso   1.00
H756   H     0.56796   0.09443   0.60638   0.00000  Uiso   1.00
H757   H     0.63353   0.16848   0.82807   0.00000  Uiso   1.00
H758   H     0.63267   0.10242   0.85662   0.00000  Uiso   1.00
N759   N     0.64653   0.14440   0.80670   0.00000  Uiso   1.00
N760   N     0.51566   0.05876   0.93640   0.00000  Uiso   1.00
N761   N     0.35518   0.19253   0.69667   0.00000  Uiso   1.00
O762   O     0.50000   0.16667   0.75000   0.00000  Uiso   1.00
O763   O     0.48784   0.12637   0.65458   0.00000  Uiso   1.00
O764   O     0.46274   0.20391   0.84968   0.00000  Uiso   1.00
O765   O     0.54157   0.17759   0.64606   0.00000  Uiso   1.00
O766   O     0.50785   0.15880   0.84968   0.00000  Uiso   1.00
O767   O     0.56194   0.07982   0.57866   0.00000  Uiso   1.00
O768   O     0.48012   0.19572   0.58204   0.00000  Uiso   1.00
O769   O     0.52318   0.24762   0.52864   0.00000  Uiso   1.00
O770   O     0.51264   0.08019   0.78213   0.00000  Uiso   1.00
O771   O     0.47965   0.26085   0.77013   0.00000  Uiso   1.00
O772   O     0.40745   0.13291   0.73413   0.00000  Uiso   1.00
O773   O     0.60026   0.19272   0.71360   0.00000  Uiso   1.00
O774   O     0.40405   0.18878   0.78213   0.00000  Uiso   1.00
O775   O     0.58824   0.15226   0.77013   0.00000  Uiso   1.00
O776   O     0.47093   0.06944   0.73413   0.00000  Uiso   1.00
O777   O     0.53678   0.25620   0.71360   0.00000  Uiso   1.00
Zn778  Zn    0.52672   0.13994   0.78734   0.00000  Uiso   1.00
Zn779  Zn    0.46713   0.12458   0.71875   0.00000  Uiso   1.00
Zn780  Zn    0.54389   0.19775   0.70657   0.00000  Uiso   1.00
Zn781  Zn    0.46226   0.20439   0.78733   0.00000  Uiso   1.00
C782   C     0.71971   0.15988   0.75997   0.00000  Uiso   1.00
C783   C     0.83981   0.16632   0.55909   0.00000  Uiso   1.00
C784   C     0.87610   0.10520   0.55903   0.00000  Uiso   1.00
C785   C     0.94738   0.17388   0.74024   0.00000  Uiso   1.00
C786   C     0.81223   0.19595   0.91858   0.00000  Uiso   1.00
C787   C     0.99326   0.17482   0.73519   0.00000  Uiso   1.00
C788   C     0.67438   0.15767   0.76547   0.00000  Uiso   1.00
C789   C     0.84704   0.32253   0.73653   0.00000  Uiso   1.00
C790   C     0.81861   0.01178   0.76399   0.00000  Uiso   1.00
C791   C     0.82278   0.05593   0.76026   0.00000  Uiso   1.00
C792   C     0.84323   0.27790   0.74019   0.00000  Uiso   1.00
C793   C     0.81949   0.25416   0.97277   0.00000  Uiso   1.00
C794   C     0.85181   0.14820   0.62957   0.00000  Uiso   1.00
C795   C     0.81489   0.18428   0.87092   0.00000  Uiso   1.00
C796   C     0.87180   0.09258   0.51617   0.00000  Uiso   1.00
C797   C     0.85800   0.14111   0.58153   0.00000  Uiso   1.00
C798   C     0.80769   0.23762   0.93418   0.00000  Uiso   1.00
C799   C     0.99298   0.11346   0.82872   0.00000  Uiso   1.00
C800   C     0.85289   0.04673   0.88940   0.00000  Uiso   1.00
C801   C     0.69865   0.23743   0.70162   0.00000  Uiso   1.00
C802   C     0.83497   0.22910   0.99739   0.00000  Uiso   1.00
C803   C     0.83254   0.18508   0.98650   0.00000  Uiso   1.00
C804   C     0.82255   0.16885   0.94577   0.00000  Uiso   1.00
C805   C     0.84276   0.15700   0.51306   0.00000  Uiso   1.00
C806   C     0.85312   0.11683   0.99375   0.00000  Uiso   1.00
C807   C     0.84309   0.10095   0.95334   0.00000  Uiso   1.00
C808   C     0.82431   0.12609   0.93225   0.00000  Uiso   1.00
H809   H     0.87320   0.00379   0.71129   0.00000  Uiso   1.00
H810   H     0.68706   0.12724   0.84257   0.00000  Uiso   1.00
H811   H     0.66860   0.08618   0.80485   0.00000  Uiso   1.00
H812   H     0.83266   0.03629   0.95772   0.00000  Uiso   1.00
H813   H     0.86616   0.01641   0.88066   0.00000  Uiso   1.00
H814   H     0.87499   0.07043   0.86856   0.00000  Uiso   1.00
H815   H     0.82106   0.04279   0.88206   0.00000  Uiso   1.00
H816   H     0.81711   0.20291   0.61259   0.00000  Uiso   1.00
H817   H     0.85577   0.27828   0.53142   0.00000  Uiso   1.00
H818   H     0.71502   0.17740   0.68229   0.00000  Uiso   1.00
H819   H     0.71659   0.24625   0.72768   0.00000  Uiso   1.00
H820   H     0.79213   0.33135   0.78943   0.00000  Uiso   1.00
H821   H     0.66902   0.25285   0.71087   0.00000  Uiso   1.00
H822   H     0.71875   0.24873   0.66945   0.00000  Uiso   1.00
H823   H     0.88293   0.06328   0.50076   0.00000  Uiso   1.00
H824   H     0.79939   0.25872   0.91408   0.00000  Uiso   1.00
H825   H     0.81965   0.28744   0.98154   0.00000  Uiso   1.00
H826   H     0.81141   0.11210   0.90479   0.00000  Uiso   1.00
H827   H     0.90130   0.09443   0.60638   0.00000  Uiso   1.00
H828   H     0.96687   0.16848   0.82807   0.00000  Uiso   1.00
H829   H     0.96600   0.10242   0.85662   0.00000  Uiso   1.00
N830   N     0.97986   0.14440   0.80670   0.00000  Uiso   1.00
N831   N     0.84899   0.05876   0.93640   0.00000  Uiso   1.00
N832   N     0.68851   0.19253   0.69667   0.00000  Uiso   1.00
O833   O     0.83333   0.16667   0.75000   0.00000  Uiso   1.00
O834   O     0.82118   0.12637   0.65458   0.00000  Uiso   1.00
O835   O     0.79607   0.20391   0.84968   0.00000  Uiso   1.00
O836   O     0.87491   0.17759   0.64606   0.00000  Uiso   1.00
O837   O     0.84118   0.15880   0.84968   0.00000  Uiso   1.00
O838   O     0.89528   0.07982   0.57866   0.00000  Uiso   1.00
O839   O     0.81346   0.19572   0.58204   0.00000  Uiso   1.00
O840   O     0.85651   0.24762   0.52864   0.00000  Uiso   1.00
O841   O     0.84597   0.08019   0.78213   0.00000  Uiso   1.00
O842   O     0.81298   0.26085   0.77013   0.00000  Uiso   1.00
O843   O     0.74078   0.13291   0.73413   0.00000  Uiso   1.00
O844   O     0.93360   0.19272   0.71360   0.00000  Uiso   1.00
O845   O     0.73738   0.18878   0.78213   0.00000  Uiso   1.00
O846   O     0.92158   0.15226   0.77013   0.00000  Uiso   1.00
O847   O     0.80426   0.06944   0.73413   0.00000  Uiso   1.00
O848   O     0.87012   0.25620   0.71360   0.00000  Uiso   1.00
Zn849  Zn    0.86005   0.13994   0.78734   0.00000  Uiso   1.00
Zn850  Zn    0.80046   0.12458   0.71875   0.00000  Uiso   1.00
Zn851  Zn    0.87723   0.19775   0.70657   0.00000  Uiso   1.00
Zn852  Zn    0.79560   0.20439   0.78733   0.00000  Uiso   1.00
C853   C     0.05304   0.49321   0.75997   0.00000  Uiso   1.00
C854   C     0.17315   0.49965   0.55909   0.00000  Uiso   1.00
C855   C     0.20943   0.43854   0.55903   0.00000  Uiso   1.00
C856   C     0.28072   0.50721   0.74024   0.00000  Uiso   1.00
C857   C     0.14557   0.52929   0.91858   0.00000  Uiso   1.00
C858   C     0.32659   0.50815   0.73519   0.00000  Uiso   1.00
C859   C     0.00771   0.49100   0.76547   0.00000  Uiso   1.00
C860   C     0.18037   0.65586   0.73653   0.00000  Uiso   1.00
C861   C     0.15194   0.34512   0.76399   0.00000  Uiso   1.00
C862   C     0.15612   0.38926   0.76026   0.00000  Uiso   1.00
C863   C     0.17656   0.61123   0.74019   0.00000  Uiso   1.00
C864   C     0.15282   0.58750   0.97277   0.00000  Uiso   1.00
C865   C     0.18514   0.48154   0.62957   0.00000  Uiso   1.00
C866   C     0.14822   0.51761   0.87092   0.00000  Uiso   1.00
C867   C     0.20514   0.42592   0.51617   0.00000  Uiso   1.00
C868   C     0.19133   0.47444   0.58153   0.00000  Uiso   1.00
C869   C     0.14102   0.57095   0.93418   0.00000  Uiso   1.00
C870   C     0.32631   0.44679   0.82872   0.00000  Uiso   1.00
C871   C     0.18623   0.38006   0.88940   0.00000  Uiso   1.00
C872   C     0.03198   0.57076   0.70162   0.00000  Uiso   1.00
C873   C     0.16830   0.56243   0.99739   0.00000  Uiso   1.00
C874   C     0.16587   0.51841   0.98650   0.00000  Uiso   1.00
C875   C     0.15589   0.50218   0.94577   0.00000  Uiso   1.00
C876   C     0.17610   0.49033   0.51306   0.00000  Uiso   1.00
C877   C     0.18645   0.45017   0.99375   0.00000  Uiso   1.00
C878   C     0.17643   0.43429   0.95334   0.00000  Uiso   1.00
C879   C     0.15765   0.45943   0.93225   0.00000  Uiso   1.00
H880   H     0.20653   0.33713   0.71129   0.00000  Uiso   1.00
H881   H     0.02039   0.46058   0.84257   0.00000  Uiso   1.00
H882   H     0.00193   0.41952   0.80485   0.00000  Uiso   1.00
H883   H     0.16600   0.36963   0.95772   0.00000  Uiso   1.00
H884   H     0.19949   0.34974   0.88066   0.00000  Uiso   1.00
H885   H     0.20832   0.40376   0.86856   0.00000  Uiso   1.00
H886   H     0.15439   0.37612   0.88206   0.00000  Uiso   1.00
H887   H     0.15044   0.53624   0.61259   0.00000  Uiso   1.00
H888   H     0.18910   0.61161   0.53142   0.00000  Uiso   1.00
H889   H     0.04835   0.51073   0.68229   0.00000  Uiso   1.00
H890   H     0.04992   0.57958   0.72768   0.00000  Uiso   1.00
H891   H     0.12546   0.66468   0.78943   0.00000  Uiso   1.00
H892   H     0.00236   0.58618   0.71087   0.00000  Uiso   1.00
H893   H     0.05209   0.58206   0.66945   0.00000  Uiso   1.00
H894   H     0.21626   0.39661   0.50076   0.00000  Uiso   1.00
H895   H     0.13272   0.59205   0.91408   0.00000  Uiso   1.00
H896   H     0.15299   0.62077   0.98154   0.00000  Uiso   1.00
H897   H     0.14474   0.44543   0.90479   0.00000  Uiso   1.00
H898   H     0.23463   0.42776   0.60638   0.00000  Uiso   1.00
H899   H     0.30020   0.50181   0.82807   0.00000  Uiso   1.00
H900   H     0.29934   0.43575   0.85662   0.00000  Uiso   1.00
N901   N     0.31319   0.47773   0.80670   0.00000  Uiso   1.00
N902   N     0.18233   0.39209   0.93640   0.00000  Uiso   1.00
N903   N     0.02184   0.52587   0.69667   0.00000  Uiso   1.00
O904   O     0.16667   0.50000   0.75000   0.00000  Uiso   1.00
O905   O     0.15451   0.45970   0.65458   0.00000  Uiso   1.00
O906   O     0.12940   0.53724   0.84968   0.00000  Uiso   1.00
O907   O     0.20824   0.51092   0.64606   0.00000  Uiso   1.00
O908   O     0.17451   0.49213   0.84968   0.00000  Uiso   1.00
O909   O     0.22861   0.41316   0.57866   0.00000  Uiso   1.00
O910   O     0.14679   0.52905   0.58204   0.00000  Uiso   1.00
O911   O     0.18985   0.58096   0.52864   0.00000  Uiso   1.00
O912   O     0.17930   0.41352   0.78213   0.00000  Uiso   1.00
O913   O     0.14632   0.59418   0.77013   0.00000  Uiso   1.00
O914   O     0.07412   0.46625   0.73413   0.00000  Uiso   1.00
O915   O     0.26693   0.52605   0.71360   0.00000  Uiso   1.00
O916   O     0.07071   0.52211   0.78213   0.00000  Uiso   1.00
O917   O     0.25491   0.48559   0.77013   0.00000  Uiso   1.00
O918   O     0.13760   0.40277   0.73413   0.00000  Uiso   1.00
O919   O     0.20345   0.58953   0.71360   0.00000  Uiso   1.00
Zn920  Zn    0.19338   0.47327   0.78734   0.00000  Uiso   1.00
Zn921  Zn    0.13379   0.45791   0.71875   0.00000  Uiso   1.00
Zn922  Zn    0.21056   0.53109   0.70657   0.00000  Uiso   1.00
Zn923  Zn    0.12893   0.53773   0.78733   0.00000  Uiso   1.00
C924   C     0.38638   0.49321   0.75997   0.00000  Uiso   1.00
C925   C     0.50648   0.49965   0.55909   0.00000  Uiso   1.00
C926   C     0.54276   0.43854   0.55903   0.00000  Uiso   1.00
C927   C     0.61405   0.50721   0.74024   0.00000  Uiso   1.00
C928   C     0.47890   0.52929   0.91858   0.00000  Uiso   1.00
C929   C     0.65993   0.50815   0.73519   0.00000  Uiso   1.00
C930   C     0.34104   0.49100   0.76547   0.00000  Uiso   1.00
C931   C     0.51370   0.65586   0.73653   0.00000  Uiso   1.00
C932   C     0.48528   0.34512   0.76399   0.00000  Uiso   1.00
C933   C     0.48945   0.38926   0.76026   0.00000  Uiso   1.00
C934   C     0.50990   0.61123   0.74019   0.00000  Uiso   1.00
C935   C     0.48616   0.58750   0.97277   0.00000  Uiso   1.00
C936   C     0.51848   0.48154   0.62957   0.00000  Uiso   1.00
C937   C     0.48156   0.51761   0.87092   0.00000  Uiso   1.00
C938   C     0.53847   0.42592   0.51617   0.00000  Uiso   1.00
C939   C     0.52466   0.47444   0.58153   0.00000  Uiso   1.00
C940   C     0.47436   0.57095   0.93418   0.00000  Uiso   1.00
C941   C     0.65964   0.44679   0.82872   0.00000  Uiso   1.00
C942   C     0.51956   0.38006   0.88940   0.00000  Uiso   1.00
C943   C     0.36531   0.57076   0.70162   0.00000  Uiso   1.00
C944   C     0.50164   0.56243   0.99739   0.00000  Uiso   1.00
C945   C     0.49920   0.51841   0.98650   0.00000  Uiso   1.00
C946   C     0.48922   0.50218   0.94577   0.00000  Uiso   1.00
C947   C     0.50943   0.49033   0.51306   0.00000  Uiso   1.00
C948   C     0.51979   0.45017   0.99375   0.00000  Uiso   1.00
C949   C     0.50976   0.43429   0.95334   0.00000  Uiso   1.00
C950   C     0.49098   0.45943   0.93225   0.00000  Uiso   1.00
H951   H     0.53987   0.33713   0.71129   0.00000  Uiso   1.00
H952   H     0.35373   0.46058   0.84257   0.00000  Uiso   1.00
H953   H     0.33526   0.41952   0.80485   0.00000  Uiso   1.00
H954   H     0.49933   0.36963   0.95772   0.00000  Uiso   1.00
H955   H     0.53282   0.34974   0.88066   0.00000  Uiso   1.00
H956   H     0.54166   0.40376   0.86856   0.00000  Uiso   1.00
H957   H     0.48772   0.37612   0.88206   0.00000  Uiso   1.00
H958   H     0.48377   0.53624   0.61259   0.00000  Uiso   1.00
H959   H     0.52243   0.61161   0.53142   0.00000  Uiso   1.00
H960   H     0.38168   0.51073   0.68229   0.00000  Uiso   1.00
H961   H     0.38325   0.57958   0.72768   0.00000  Uiso   1.00
H962   H     0.45879   0.66468   0.78943   0.00000  Uiso   1.00
H963   H     0.33569   0.58618   0.71087   0.00000  Uiso   1.00
H964   H     0.38542   0.58206   0.66945   0.00000  Uiso   1.00
H965   H     0.54960   0.39661   0.50076   0.00000  Uiso   1.00
H966   H     0.46605   0.59205   0.91408   0.00000  Uiso   1.00
H967   H     0.48632   0.62077   0.98154   0.00000  Uiso   1.00
H968   H     0.47808   0.44543   0.90479   0.00000  Uiso   1.00
H969   H     0.56796   0.42776   0.60638   0.00000  Uiso   1.00
H970   H     0.63353   0.50181   0.82807   0.00000  Uiso   1.00
H971   H     0.63267   0.43575   0.85662   0.00000  Uiso   1.00
N972   N     0.64653   0.47773   0.80670   0.00000  Uiso   1.00
N973   N     0.51566   0.39209   0.93640   0.00000  Uiso   1.00
N974   N     0.35518   0.52587   0.69667   0.00000  Uiso   1.00
O975   O     0.50000   0.50000   0.75000   0.00000  Uiso   1.00
O976   O     0.48784   0.45970   0.65458   0.00000  Uiso   1.00
O977   O     0.46274   0.53724   0.84968   0.00000  Uiso   1.00
O978   O     0.54157   0.51092   0.64606   0.00000  Uiso   1.00
O979   O     0.50785   0.49213   0.84968   0.00000  Uiso   1.00
O980   O     0.56194   0.41316   0.57866   0.00000  Uiso   1.00
O981   O     0.48012   0.52905   0.58204   0.00000  Uiso   1.00
O982   O     0.52318   0.58096   0.52864   0.00000  Uiso   1.00
O983   O     0.51264   0.41352   0.78213   0.00000  Uiso   1.00
O984   O     0.47965   0.59418   0.77013   0.00000  Uiso   1.00
O985   O     0.40745   0.46625   0.73413   0.00000  Uiso   1.00
O986   O     0.60026   0.52605   0.71360   0.00000  Uiso   1.00
O987   O     0.40405   0.52211   0.78213   0.00000  Uiso   1.00
O988   O     0.58824   0.48559   0.77013   0.00000  Uiso   1.00
O989   O     0.47093   0.40277   0.73413   0.00000  Uiso   1.00
O990   O     0.53678   0.58953   0.71360   0.00000  Uiso   1.00
Zn991  Zn    0.52672   0.47327   0.78734   0.00000  Uiso   1.00
Zn992  Zn    0.46713   0.45791   0.71875   0.00000  Uiso   1.00
Zn993  Zn    0.54389   0.53109   0.70657   0.00000  Uiso   1.00
Zn994  Zn    0.46226   0.53773   0.78733   0.00000  Uiso   1.00
C995   C     0.71971   0.49321   0.75997   0.00000  Uiso   1.00
C996   C     0.83981   0.49965   0.55909   0.00000  Uiso   1.00
C997   C     0.87610   0.43854   0.55903   0.00000  Uiso   1.00
C998   C     0.94738   0.50721   0.74024   0.00000  Uiso   1.00
C999   C     0.81223   0.52929   0.91858   0.00000  Uiso   1.00
C1000  C     0.99326   0.50815   0.73519   0.00000  Uiso   1.00
C1001  C     0.67438   0.49100   0.76547   0.00000  Uiso   1.00
C1002  C     0.84704   0.65586   0.73653   0.00000  Uiso   1.00
C1003  C     0.81861   0.34512   0.76399   0.00000  Uiso   1.00
C1004  C     0.82278   0.38926   0.76026   0.00000  Uiso   1.00
C1005  C     0.84323   0.61123   0.74019   0.00000  Uiso   1.00
C1006  C     0.81949   0.58750   0.97277   0.00000  Uiso   1.00
C1007  C     0.85181   0.48154   0.62957   0.00000  Uiso   1.00
C1008  C     0.81489   0.51761   0.87092   0.00000  Uiso   1.00
C1009  C     0.87180   0.42592   0.51617   0.00000  Uiso   1.00
C1010  C     0.85800   0.47444   0.58153   0.00000  Uiso   1.00
C1011  C     0.80769   0.57095   0.93418   0.00000  Uiso   1.00
C1012  C     0.99298   0.44679   0.82872   0.00000  Uiso   1.00
C1013  C     0.85289   0.38006   0.88940   0.00000  Uiso   1.00
C1014  C     0.69865   0.57076   0.70162   0.00000  Uiso   1.00
C1015  C     0.83497   0.56243   0.99739   0.00000  Uiso   1.00
C1016  C     0.83254   0.51841   0.98650   0.00000  Uiso   1.00
C1017  C     0.82255   0.50218   0.94577   0.00000  Uiso   1.00
C1018  C     0.84276   0.49033   0.51306   0.00000  Uiso   1.00
C1019  C     0.85312   0.45017   0.99375   0.00000  Uiso   1.00
C1020  C     0.84309   0.43429   0.95334   0.00000  Uiso   1.00
C1021  C     0.82431   0.45943   0.93225   0.00000  Uiso   1.00
H1022  H     0.87320   0.33713   0.71129   0.00000  Uiso   1.00
H1023  H     0.68706   0.46058   0.84257   0.00000  Uiso   1.00
H1024  H     0.66860   0.41952   0.80485   0.00000  Uiso   1.00
H1025  H     0.83266   0.36963   0.95772   0.00000  Uiso   1.00
H1026  H     0.86616   0.34974   0.88066   0.00000  Uiso   1.00
H1027  H     0.87499   0.40376   0.86856   0.00000  Uiso   1.00
H1028  H     0.82106   0.37612   0.88206   0.00000  Uiso   1.00
H1029  H     0.81711   0.53624   0.61259   0.00000  Uiso   1.00
H1030  H     0.85577   0.61161   0.53142   0.00000  Uiso   1.00
H1031  H     0.71502   0.51073   0.68229   0.00000  Uiso   1.00
H1032  H     0.71659   0.57958   0.72768   0.00000  Uiso   1.00
H1033  H     0.79213   0.66468   0.78943   0.00000  Uiso   1.00
H1034  H     0.66902   0.58618   0.71087   0.00000  Uiso   1.00
H1035  H     0.71875   0.58206   0.66945   0.00000  Uiso   1.00
H1036  H     0.88293   0.39661   0.50076   0.00000  Uiso   1.00
H1037  H     0.79939   0.59205   0.91408   0.00000  Uiso   1.00
H1038  H     0.81965   0.62077   0.98154   0.00000  Uiso   1.00
H1039  H     0.81141   0.44543   0.90479   0.00000  Uiso   1.00
H1040  H     0.90130   0.42776   0.60638   0.00000  Uiso   1.00
H1041  H     0.96687   0.50181   0.82807   0.00000  Uiso   1.00
H1042  H     0.96600   0.43575   0.85662   0.00000  Uiso   1.00
N1043  N     0.97986   0.47773   0.80670   0.00000  Uiso   1.00
N1044  N     0.84899   0.39209   0.93640   0.00000  Uiso   1.00
N1045  N     0.68851   0.52587   0.69667   0.00000  Uiso   1.00
O1046  O     0.83333   0.50000   0.75000   0.00000  Uiso   1.00
O1047  O     0.82118   0.45970   0.65458   0.00000  Uiso   1.00
O1048  O     0.79607   0.53724   0.84968   0.00000  Uiso   1.00
O1049  O     0.87491   0.51092   0.64606   0.00000  Uiso   1.00
O1050  O     0.84118   0.49213   0.84968   0.00000  Uiso   1.00
O1051  O     0.89528   0.41316   0.57866   0.00000  Uiso   1.00
O1052  O     0.81346   0.52905   0.58204   0.00000  Uiso   1.00
O1053  O     0.85651   0.58096   0.52864   0.00000  Uiso   1.00
O1054  O     0.84597   0.41352   0.78213   0.00000  Uiso   1.00
O1055  O     0.81298   0.59418   0.77013   0.00000  Uiso   1.00
O1056  O     0.74078   0.46625   0.73413   0.00000  Uiso   1.00
O1057  O     0.93360   0.52605   0.71360   0.00000  Uiso   1.00
O1058  O     0.73738   0.52211   0.78213   0.00000  Uiso   1.00
O1059  O     0.92158   0.48559   0.77013   0.00000  Uiso   1.00
O1060  O     0.80426   0.40277   0.73413   0.00000  Uiso   1.00
O1061  O     0.87012   0.58953   0.71360   0.00000  Uiso   1.00
Zn1062 Zn    0.86005   0.47327   0.78734   0.00000  Uiso   1.00
Zn1063 Zn    0.80046   0.45791   0.71875   0.00000  Uiso   1.00
Zn1064 Zn    0.87723   0.53109   0.70657   0.00000  Uiso   1.00
Zn1065 Zn    0.79560   0.53773   0.78733   0.00000  Uiso   1.00
C1066  C     0.05304   0.82655   0.75997   0.00000  Uiso   1.00
C1067  C     0.17315   0.83299   0.55909   0.00000  Uiso   1.00
C1068  C     0.20943   0.77187   0.55903   0.00000  Uiso   1.00
C1069  C     0.28072   0.84055   0.74024   0.00000  Uiso   1.00
C1070  C     0.14557   0.86262   0.91858   0.00000  Uiso   1.00
C1071  C     0.32659   0.84149   0.73519   0.00000  Uiso   1.00
C1072  C     0.00771   0.82433   0.76547   0.00000  Uiso   1.00
C1073  C     0.18037   0.98919   0.73653   0.00000  Uiso   1.00
C1074  C     0.15194   0.67845   0.76399   0.00000  Uiso   1.00
C1075  C     0.15612   0.72259   0.76026   0.00000  Uiso   1.00
C1076  C     0.17656   0.94456   0.74019   0.00000  Uiso   1.00
C1077  C     0.15282   0.92083   0.97277   0.00000  Uiso   1.00
C1078  C     0.18514   0.81487   0.62957   0.00000  Uiso   1.00
C1079  C     0.14822   0.85094   0.87092   0.00000  Uiso   1.00
C1080  C     0.20514   0.75925   0.51617   0.00000  Uiso   1.00
C1081  C     0.19133   0.80777   0.58153   0.00000  Uiso   1.00
C1082  C     0.14102   0.90428   0.93418   0.00000  Uiso   1.00
C1083  C     0.32631   0.78013   0.82872   0.00000  Uiso   1.00
C1084  C     0.18623   0.71340   0.88940   0.00000  Uiso   1.00
C1085  C     0.03198   0.90409   0.70162   0.00000  Uiso   1.00
C1086  C     0.16830   0.89576   0.99739   0.00000  Uiso   1.00
C1087  C     0.16587   0.85175   0.98650   0.00000  Uiso   1.00
C1088  C     0.15589   0.83552   0.94577   0.00000  Uiso   1.00
C1089  C     0.17610   0.82366   0.51306   0.00000  Uiso   1.00
C1090  C     0.18645   0.78350   0.99375   0.00000  Uiso   1.00
C1091  C     0.17643   0.76762   0.95334   0.00000  Uiso   1.00
C1092  C     0.15765   0.79276   0.93225   0.00000  Uiso   1.00
H1093  H     0.20653   0.67046   0.71129   0.00000  Uiso   1.00
H1094  H     0.02039   0.79391   0.84257   0.00000  Uiso   1.00
H1095  H     0.00193   0.75285   0.80485   0.00000  Uiso   1.00
H1096  H     0.16600   0.70296   0.95772   0.00000  Uiso   1.00
H1097  H     0.19949   0.68307   0.88066   0.00000  Uiso   1.00
H1098  H     0.20832   0.73710   0.86856   0.00000  Uiso   1.00
H1099  H     0.15439   0.70945   0.88206   0.00000  Uiso   1.00
H1100  H     0.15044   0.86957   0.61259   0.00000  Uiso   1.00
H1101  H     0.18910   0.94495   0.53142   0.00000  Uiso   1.00
H1102  H     0.04835   0.84407   0.68229   0.00000  Uiso   1.00
H1103  H     0.04992   0.91292   0.72768   0.00000  Uiso   1.00
H1104  H     0.12546   0.99801   0.78943   0.00000  Uiso   1.00
H1105  H     0.00236   0.91952   0.71087   0.00000  Uiso   1.00
H1106  H     0.05209   0.91539   0.66945   0.00000  Uiso   1.00
H1107  H     0.21626   0.72995   0.50076   0.00000  Uiso   1.00
H1108  H     0.13272   0.92539   0.91408   0.00000  Uiso   1.00
H1109  H     0.15299   0.95411   0.98154   0.00000  Uiso   1.00
H1110  H     0.14474   0.77876   0.90479   0.00000  Uiso   1.00
H1111  H     0.23463   0.76109   0.60638   0.00000  Uiso   1.00
H1112  H     0.30020   0.83514   0.82807   0.00000  Uiso   1.00
H1113  H     0.29934   0.76909   0.85662   0.00000  Uiso   1.00
N1114  N     0.31319   0.81107   0.80670   0.00000  Uiso   1.00
N1115  N     0.18233   0.72543   0.93640   0.00000  Uiso   1.00
N1116  N     0.02184   0.85920   0.69667   0.00000  Uiso   1.00
O1117  O     0.16667   0.83333   0.75000   0.00000  Uiso   1.00
O1118  O     0.15451   0.79304   0.65458   0.00000  Uiso   1.00
O1119  O     0.12940   0.87058   0.84968   0.00000  Uiso   1.00
O1120  O     0.20824   0.84425   0.64606   0.00000  Uiso   1.00
O1121  O     0.17451   0.82546   0.84968   0.00000  Uiso   1.00
O1122  O     0.22861   0.74649   0.57866   0.00000  Uiso   1.00
O1123  O     0.14679   0.86238   0.58204   0.00000  Uiso   1.00
O1124  O     0.18985   0.91429   0.52864   0.00000  Uiso   1.00
O1125  O     0.17930   0.74686   0.78213   0.00000  Uiso   1.00
O1126  O     0.14632   0.92751   0.77013   0.00000  Uiso   1.00
O1127  O     0.07412   0.79958   0.73413   0.00000  Uiso   1.00
O1128  O     0.26693   0.85939   0.71360   0.00000  Uiso   1.00
O1129  O     0.07071   0.85544   0.78213   0.00000  Uiso   1.00
O1130  O     0.25491   0.81892   0.77013   0.00000  Uiso   1.00
O1131  O     0.13760   0.73610   0.73413   0.00000  Uiso   1.00
O1132  O     0.20345   0.92286   0.71360   0.00000  Uiso   1.00
Zn1133 Zn    0.19338   0.80661   0.78734   0.00000  Uiso   1.00
Zn1134 Zn    0.13379   0.79124   0.71875   0.00000  Uiso   1.00
Zn1135 Zn    0.21056   0.86442   0.70657   0.00000  Uiso   1.00
Zn1136 Zn    0.12893   0.87106   0.78733   0.00000  Uiso   1.00
C1137  C     0.38638   0.82655   0.75997   0.00000  Uiso   1.00
C1138  C     0.50648   0.83299   0.55909   0.00000  Uiso   1.00
C1139  C     0.54276   0.77187   0.55903   0.00000  Uiso   1.00
C1140  C     0.61405   0.84055   0.74024   0.00000  Uiso   1.00
C1141  C     0.47890   0.86262   0.91858   0.00000  Uiso   1.00
C1142  C     0.65993   0.84149   0.73519   0.00000  Uiso   1.00
C1143  C     0.34104   0.82433   0.76547   0.00000  Uiso   1.00
C1144  C     0.51370   0.98919   0.73653   0.00000  Uiso   1.00
C1145  C     0.48528   0.67845   0.76399   0.00000  Uiso   1.00
C1146  C     0.48945   0.72259   0.76026   0.00000  Uiso   1.00
C1147  C     0.50990   0.94456   0.74019   0.00000  Uiso   1.00
C1148  C     0.48616   0.92083   0.97277   0.00000  Uiso   1.00
C1149  C     0.51848   0.81487   0.62957   0.00000  Uiso   1.00
C1150  C     0.48156   0.85094   0.87092   0.00000  Uiso   1.00
C1151  C     0.53847   0.75925   0.51617   0.00000  Uiso   1.00
C1152  C     0.52466   0.80777   0.58153   0.00000  Uiso   1.00
C1153  C     0.47436   0.90428   0.93418   0.00000  Uiso   1.00
C1154  C     0.65964   0.78013   0.82872   0.00000  Uiso   1.00
C1155  C     0.51956   0.71340   0.88940   0.00000  Uiso   1.00
C1156  C     0.36531   0.90409   0.70162   0.00000  Uiso   1.00
C1157  C     0.50164   0.89576   0.99739   0.00000  Uiso   1.00
C1158  C     0.49920   0.85175   0.98650   0.00000  Uiso   1.00
C1159  C     0.48922   0.83552   0.94577   0.00000  Uiso   1.00
C1160  C     0.50943   0.82366   0.51306   0.00000  Uiso   1.00
C1161  C     0.51979   0.78350   0.99375   0.00000  Uiso   1.00
C1162  C     0.50976   0.76762   0.95334   0.00000  Uiso   1.00
C1163  C     0.49098   0.79276   0.93225   0.00000  Uiso   1.00
H1164  H     0.53987   0.67046   0.71129   0.00000  Uiso   1.00
H1165  H     0.35373   0.79391   0.84257   0.00000  Uiso   1.00
H1166  H     0.33526   0.75285   0.80485   0.00000  Uiso   1.00
H1167  H     0.49933   0.70296   0.95772   0.00000  Uiso   1.00
H1168  H     0.53282   0.68307   0.88066   0.00000  Uiso   1.00
H1169  H     0.54166   0.73710   0.86856   0.00000  Uiso   1.00
H1170  H     0.48772   0.70945   0.88206   0.00000  Uiso   1.00
H1171  H     0.48377   0.86957   0.61259   0.00000  Uiso   1.00
H1172  H     0.52243   0.94495   0.53142   0.00000  Uiso   1.00
H1173  H     0.38168   0.84407   0.68229   0.00000  Uiso   1.00
H1174  H     0.38325   0.91292   0.72768   0.00000  Uiso   1.00
H1175  H     0.45879   0.99801   0.78943   0.00000  Uiso   1.00
H1176  H     0.33569   0.91952   0.71087   0.00000  Uiso   1.00
H1177  H     0.38542   0.91539   0.66945   0.00000  Uiso   1.00
H1178  H     0.54960   0.72995   0.50076   0.00000  Uiso   1.00
H1179  H     0.46605   0.92539   0.91408   0.00000  Uiso   1.00
H1180  H     0.48632   0.95411   0.98154   0.00000  Uiso   1.00
H1181  H     0.47808   0.77876   0.90479   0.00000  Uiso   1.00
H1182  H     0.56796   0.76109   0.60638   0.00000  Uiso   1.00
H1183  H     0.63353   0.83514   0.82807   0.00000  Uiso   1.00
H1184  H     0.63267   0.76909   0.85662   0.00000  Uiso   1.00
N1185  N     0.64653   0.81107   0.80670   0.00000  Uiso   1.00
N1186  N     0.51566   0.72543   0.93640   0.00000  Uiso   1.00
N1187  N     0.35518   0.85920   0.69667   0.00000  Uiso   1.00
O1188  O     0.50000   0.83333   0.75000   0.00000  Uiso   1.00
O1189  O     0.48784   0.79304   0.65458   0.00000  Uiso   1.00
O1190  O     0.46274   0.87058   0.84968   0.00000  Uiso   1.00
O1191  O     0.54157   0.84425   0.64606   0.00000  Uiso   1.00
O1192  O     0.50785   0.82546   0.84968   0.00000  Uiso   1.00
O1193  O     0.56194   0.74649   0.57866   0.00000  Uiso   1.00
O1194  O     0.48012   0.86238   0.58204   0.00000  Uiso   1.00
O1195  O     0.52318   0.91429   0.52864   0.00000  Uiso   1.00
O1196  O     0.51264   0.74686   0.78213   0.00000  Uiso   1.00
O1197  O     0.47965   0.92751   0.77013   0.00000  Uiso   1.00
O1198  O     0.40745   0.79958   0.73413   0.00000  Uiso   1.00
O1199  O     0.60026   0.85939   0.71360   0.00000  Uiso   1.00
O1200  O     0.40405   0.85544   0.78213   0.00000  Uiso   1.00
O1201  O     0.58824   0.81892   0.77013   0.00000  Uiso   1.00
O1202  O     0.47093   0.73610   0.73413   0.00000  Uiso   1.00
O1203  O     0.53678   0.92286   0.71360   0.00000  Uiso   1.00
Zn1204 Zn    0.52672   0.80661   0.78734   0.00000  Uiso   1.00
Zn1205 Zn    0.46713   0.79124   0.71875   0.00000  Uiso   1.00
Zn1206 Zn    0.54389   0.86442   0.70657   0.00000  Uiso   1.00
Zn1207 Zn    0.46226   0.87106   0.78733   0.00000  Uiso   1.00
C1208  C     0.71971   0.82655   0.75997   0.00000  Uiso   1.00
C1209  C     0.83981   0.83299   0.55909   0.00000  Uiso   1.00
C1210  C     0.87610   0.77187   0.55903   0.00000  Uiso   1.00
C1211  C     0.94738   0.84055   0.74024   0.00000  Uiso   1.00
C1212  C     0.81223   0.86262   0.91858   0.00000  Uiso   1.00
C1213  C     0.99326   0.84149   0.73519   0.00000  Uiso   1.00
C1214  C     0.67438   0.82433   0.76547   0.00000  Uiso   1.00
C1215  C     0.84704   0.98919   0.73653   0.00000  Uiso   1.00
C1216  C     0.81861   0.67845   0.76399   0.00000  Uiso   1.00
C1217  C     0.82278   0.72259   0.76026   0.00000  Uiso   1.00
C1218  C     0.84323   0.94456   0.74019   0.00000  Uiso   1.00
C1219  C     0.81949   0.92083   0.97277   0.00000  Uiso   1.00
C1220  C     0.85181   0.81487   0.62957   0.00000  Uiso   1.00
C1221  C     0.81489   0.85094   0.87092   0.00000  Uiso   1.00
C1222  C     0.87180   0.75925   0.51617   0.00000  Uiso   1.00
C1223  C     0.85800   0.80777   0.58153   0.00000  Uiso   1.00
C1224  C     0.80769   0.90428   0.93418   0.00000  Uiso   1.00
C1225  C     0.99298   0.78013   0.82872   0.00000  Uiso   1.00
C1226  C     0.85289   0.71340   0.88940   0.00000  Uiso   1.00
C1227  C     0.69865   0.90409   0.70162   0.00000  Uiso   1.00
C1228  C     0.83497   0.89576   0.99739   0.00000  Uiso   1.00
C1229  C     0.83254   0.85175   0.98650   0.00000  Uiso   1.00
C1230  C     0.82255   0.83552   0.94577   0.00000  Uiso   1.00
C1231  C     0.84276   0.82366   0.51306   0.00000  Uiso   1.00
C1232  C     0.85312   0.78350   0.99375   0.00000  Uiso   1.00
C1233  C     0.84309   0.76762   0.95334   0.00000  Uiso   1.00
C1234  C     0.82431   0.79276   0.93225   0.00000  Uiso   1.00
H1235  H     0.87320   0.67046   0.71129   0.00000  Uiso   1.00
H1236  H     0.68706   0.79391   0.84257   0.00000  Uiso   1.00
H1237  H     0.66860   0.75285   0.80485   0.00000  Uiso   1.00
H1238  H     0.83266   0.70296   0.95772   0.00000  Uiso   1.00
H1239  H     0.86616   0.68307   0.88066   0.00000  Uiso   1.00
H1240  H     0.87499   0.73710   0.86856   0.00000  Uiso   1.00
H1241  H     0.82106   0.70945   0.88206   0.00000  Uiso   1.00
H1242  H     0.81711   0.86957   0.61259   0.00000  Uiso   1.00
H1243  H     0.85577   0.94495   0.53142   0.00000  Uiso   1.00
H1244  H     0.71502   0.84407   0.68229   0.00000  Uiso   1.00
H1245  H     0.71659   0.91292   0.72768   0.00000  Uiso   1.00
H1246  H     0.79213   0.99801   0.78943   0.00000  Uiso   1.00
H1247  H     0.66902   0.91952   0.71087   0.00000  Uiso   1.00
H1248  H     0.71875   0.91539   0.66945   0.00000  Uiso   1.00
H1249  H     0.88293   0.72995   0.50076   0.00000  Uiso   1.00
H1250  H     0.79939   0.92539   0.91408   0.00000  Uiso   1.00
H1251  H     0.81965   0.95411   0.98154   0.00000  Uiso   1.00
H1252  H     0.81141   0.77876   0.90479   0.00000  Uiso   1.00
H1253  H     0.90130   0.76109   0.60638   0.00000  Uiso   1.00
H1254  H     0.96687   0.83514   0.82807   0.00000  Uiso   1.00
H1255  H     0.96600   0.76909   0.85662   0.00000  Uiso   1.00
N1256  N     0.97986   0.81107   0.80670   0.00000  Uiso   1.00
N1257  N     0.84899   0.72543   0.93640   0.00000  Uiso   1.00
N1258  N     0.68851   0.85920   0.69667   0.00000  Uiso   1.00
O1259  O     0.83333   0.83333   0.75000   0.00000  Uiso   1.00
O1260  O     0.82118   0.79304   0.65458   0.00000  Uiso   1.00
O1261  O     0.79607   0.87058   0.84968   0.00000  Uiso   1.00
O1262  O     0.87491   0.84425   0.64606   0.00000  Uiso   1.00
O1263  O     0.84118   0.82546   0.84968   0.00000  Uiso   1.00
O1264  O     0.89528   0.74649   0.57866   0.00000  Uiso   1.00
O1265  O     0.81346   0.86238   0.58204   0.00000  Uiso   1.00
O1266  O     0.85651   0.91429   0.52864   0.00000  Uiso   1.00
O1267  O     0.84597   0.74686   0.78213   0.00000  Uiso   1.00
O1268  O     0.81298   0.92751   0.77013   0.00000  Uiso   1.00
O1269  O     0.74078   0.79958   0.73413   0.00000  Uiso   1.00
O1270  O     0.93360   0.85939   0.71360   0.00000  Uiso   1.00
O1271  O     0.73738   0.85544   0.78213   0.00000  Uiso   1.00
O1272  O     0.92158   0.81892   0.77013   0.00000  Uiso   1.00
O1273  O     0.80426   0.73610   0.73413   0.00000  Uiso   1.00
O1274  O     0.87012   0.92286   0.71360   0.00000  Uiso   1.00
Zn1275 Zn    0.86005   0.80661   0.78734   0.00000  Uiso   1.00
Zn1276 Zn    0.80046   0.79124   0.71875   0.00000  Uiso   1.00
Zn1277 Zn    0.87723   0.86442   0.70657   0.00000  Uiso   1.00
Zn1278 Zn    0.79560   0.87106   0.78733   0.00000  Uiso   1.00
loop_
_geom_bond_atom_site_label_1
_geom_bond_atom_site_label_2
_geom_bond_distance
_geom_bond_site_symmetry_2
_ccdc_geom_bond_type
C1     O62     1.270   .     A
C1     O64     1.264   .     A
C1     C7      1.439   .     S
C2     O58     1.388   .     S
C2     C24     1.412   .     A
C2     C16     1.414   .     A
C3     C15     1.389   .     A
C3     O57     1.382   .     S
C3     C16     1.413   .     A
C4     O63     1.287   .     A
C4     O65     1.276   .     A
C4     C6      1.463   .     S
C5     C23     1.417   .     A
C5     C14     1.472   .     S
C5     C17     1.400   .     A
C6     C78     1.360   .     S
C6     N122    1.431   .     S
C7     C148    1.360   1_455 S
C7     N191    1.433   1_455 S
C8     C11     1.450   .     S
C8     C222    1.331   .     S
C8     H241    1.088   .     S
C9     C10     1.434   .     S
C9     C434    1.331   1_545 S
C9     H465    1.086   1_545 S
C10    O60     1.280   .     A
C10    O66     1.280   .     A
C11    O67     1.273   .     A
C11    O61     1.273   .     A
C12    C17     1.386   .     A
C12    H44     1.083   .     S
C12    C21     1.404   .     A
C13    C16     1.451   .     S
C13    O53     1.271   .     A
C13    O55     1.276   .     A
C14    O56     1.283   .     A
C14    O54     1.283   .     A
C15    H42     1.083   .     S
C15    C664    1.403   1_554 S
C17    H43     1.084   .     S
C18    N49     1.448   .     S
C18    H48     1.110   .     S
C18    H100    1.111   .     S
C18    H101    1.111   .     S
C19    H32     1.110   .     S
C19    N50     1.448   .     S
C19    H33     1.112   .     S
C19    H34     1.111   .     S
C20    H38     1.111   .     S
C20    H41     1.110   .     S
C20    N51     1.446   .     S
C20    H40     1.111   .     S
C21    C22     1.426   .     A
C21    O698    1.383   .     S
C22    C23     1.418   .     A
C22    C663    1.425   .     S
C23    C27     1.409   .     A
C24    C661    1.425   1_554 S
C24    C664    1.421   1_554 S
C25    C26     1.407   .     A
C25    C663    1.421   .     S
C25    C654    1.403   .     S
C26    N50     1.432   .     S
C26    C27     1.397   .     A
C27    H45     1.079   .     S
H28    C434    1.088   1_545 S
H29    C160    1.111   1_455 S
H30    C160    1.111   1_455 S
H31    N50     1.031   .     S
H35    O58     0.988   .     S
H36    O59     0.992   .     S
H37    N51     1.031   .     S
H39    C222    1.086   .     S
H46    O57     0.990   .     S
H47    N49     1.032   .     S
N49    C78     1.433   .     S
N51    C148    1.431   1_455 S
O52    Zn70    1.940   .     S
O52    Zn71    1.933   .     S
O52    Zn69    1.948   .     S
O52    Zn68    1.962   .     S
O53    Zn69    1.937   .     S
O54    Zn71    1.947   .     S
O55    Zn70    1.941   .     S
O56    Zn68    1.932   .     S
O59    C660    1.383   1_554 S
O60    Zn68    1.925   .     S
O61    Zn71    1.928   .     S
O62    Zn69    1.935   .     S
O63    Zn70    1.945   .     S
O64    Zn71    1.942   .     S
O65    Zn68    1.934   .     S
O66    Zn69    1.932   .     S
O67    Zn70    1.925   .     S
C72    O133    1.270   .     A
C72    O135    1.264   .     A
C72    C78     1.439   .     S
C73    O129    1.388   .     S
C73    C95     1.412   .     A
C73    C87     1.414   .     A
C74    C86     1.389   .     A
C74    O128    1.382   .     S
C74    C87     1.413   .     A
C75    O134    1.287   .     A
C75    O136    1.276   .     A
C75    C77     1.463   .     S
C76    C94     1.417   .     A
C76    C85     1.472   .     S
C76    C88     1.400   .     A
C77    C149    1.360   .     S
C77    N193    1.431   .     S
C79    C82     1.450   .     S
C79    C293    1.331   .     S
C79    H312    1.088   .     S
C80    C81     1.434   .     S
C80    C505    1.331   1_545 S
C80    H536    1.086   1_545 S
C81    O131    1.280   .     A
C81    O137    1.280   .     A
C82    O138    1.273   .     A
C82    O132    1.273   .     A
C83    C88     1.386   .     A
C83    H115    1.083   .     S
C83    C92     1.404   .     A
C84    C87     1.451   .     S
C84    O124    1.271   .     A
C84    O126    1.276   .     A
C85    O127    1.283   .     A
C85    O125    1.283   .     A
C86    H113    1.083   .     S
C86    C735    1.403   1_554 S
C88    H114    1.084   .     S
C89    N120    1.448   .     S
C89    H119    1.110   .     S
C89    H171    1.111   .     S
C89    H172    1.111   .     S
C90    H103    1.110   .     S
C90    N121    1.448   .     S
C90    H104    1.112   .     S
C90    H105    1.111   .     S
C91    H109    1.111   .     S
C91    H112    1.110   .     S
C91    N122    1.446   .     S
C91    H111    1.111   .     S
C92    C93     1.426   .     A
C92    O769    1.383   .     S
C93    C94     1.418   .     A
C93    C734    1.425   .     S
C94    C98     1.409   .     A
C95    C732    1.425   1_554 S
C95    C735    1.421   1_554 S
C96    C97     1.407   .     A
C96    C734    1.421   .     S
C96    C725    1.403   .     S
C97    N121    1.432   .     S
C97    C98     1.397   .     A
C98    H116    1.079   .     S
H99    C505    1.088   1_545 S
H102   N121    1.031   .     S
H106   O129    0.988   .     S
H107   O130    0.992   .     S
H108   N122    1.031   .     S
H110   C293    1.086   .     S
H117   O128    0.990   .     S
H118   N120    1.032   .     S
N120   C149    1.433   .     S
O123   Zn141   1.940   .     S
O123   Zn142   1.933   .     S
O123   Zn140   1.948   .     S
O123   Zn139   1.962   .     S
O124   Zn140   1.937   .     S
O125   Zn142   1.947   .     S
O126   Zn141   1.941   .     S
O127   Zn139   1.932   .     S
O130   C731    1.383   1_554 S
O131   Zn139   1.925   .     S
O132   Zn142   1.928   .     S
O133   Zn140   1.935   .     S
O134   Zn141   1.945   .     S
O135   Zn142   1.942   .     S
O136   Zn139   1.934   .     S
O137   Zn140   1.932   .     S
O138   Zn141   1.925   .     S
C143   O204    1.270   .     A
C143   O206    1.264   .     A
C143   C149    1.439   .     S
C144   O200    1.388   .     S
C144   C166    1.412   .     A
C144   C158    1.414   .     A
C145   C157    1.389   .     A
C145   O199    1.382   .     S
C145   C158    1.413   .     A
C146   O205    1.287   .     A
C146   O207    1.276   .     A
C146   C148    1.463   .     S
C147   C165    1.417   .     A
C147   C156    1.472   .     S
C147   C159    1.400   .     A
C148   C7      1.360   1_655 S
C148   N51     1.431   1_655 S
C150   C153    1.450   .     S
C150   C364    1.331   .     S
C150   H383    1.088   .     S
C151   C152    1.434   .     S
C151   C576    1.331   1_545 S
C151   H607    1.086   1_545 S
C152   O202    1.280   .     A
C152   O208    1.280   .     A
C153   O209    1.273   .     A
C153   O203    1.273   .     A
C154   C159    1.386   .     A
C154   H186    1.083   .     S
C154   C163    1.404   .     A
C155   C158    1.451   .     S
C155   O195    1.271   .     A
C155   O197    1.276   .     A
C156   O198    1.283   .     A
C156   O196    1.283   .     A
C157   H184    1.083   .     S
C157   C806    1.403   1_554 S
C159   H185    1.084   .     S
C160   N191    1.448   .     S
C160   H190    1.110   .     S
C160   H29     1.111   1_655 S
C160   H30     1.111   1_655 S
C161   H174    1.110   .     S
C161   N192    1.448   .     S
C161   H175    1.112   .     S
C161   H176    1.111   .     S
C162   H180    1.111   .     S
C162   H183    1.110   .     S
C162   N193    1.446   .     S
C162   H182    1.111   .     S
C163   C164    1.426   .     A
C163   O840    1.383   .     S
C164   C165    1.418   .     A
C164   C805    1.425   .     S
C165   C169    1.409   .     A
C166   C803    1.425   1_554 S
C166   C806    1.421   1_554 S
C167   C168    1.407   .     A
C167   C805    1.421   .     S
C167   C796    1.403   .     S
C168   N192    1.432   .     S
C168   C169    1.397   .     A
C169   H187    1.079   .     S
H170   C576    1.088   1_545 S
H173   N192    1.031   .     S
H177   O200    0.988   .     S
H178   O201    0.992   .     S
H179   N193    1.031   .     S
H181   C364    1.086   .     S
H188   O199    0.990   .     S
H189   N191    1.032   .     S
N191   C7      1.433   1_655 S
O194   Zn212   1.940   .     S
O194   Zn213   1.933   .     S
O194   Zn211   1.948   .     S
O194   Zn210   1.962   .     S
O195   Zn211   1.937   .     S
O196   Zn213   1.947   .     S
O197   Zn212   1.941   .     S
O198   Zn210   1.932   .     S
O201   C802    1.383   1_554 S
O202   Zn210   1.925   .     S
O203   Zn213   1.928   .     S
O204   Zn211   1.935   .     S
O205   Zn212   1.945   .     S
O206   Zn213   1.942   .     S
O207   Zn210   1.934   .     S
O208   Zn211   1.932   .     S
O209   Zn212   1.925   .     S
C214   O275    1.270   .     A
C214   O277    1.264   .     A
C214   C220    1.439   .     S
C215   O271    1.388   .     S
C215   C237    1.412   .     A
C215   C229    1.414   .     A
C216   C228    1.389   .     A
C216   O270    1.382   .     S
C216   C229    1.413   .     A
C217   O276    1.287   .     A
C217   O278    1.276   .     A
C217   C219    1.463   .     S
C218   C236    1.417   .     A
C218   C227    1.472   .     S
C218   C230    1.400   .     A
C219   C291    1.360   .     S
C219   N335    1.431   .     S
C220   C361    1.360   1_455 S
C220   N404    1.433   1_455 S
C221   C224    1.450   .     S
C221   C435    1.331   .     S
C221   H454    1.088   .     S
C222   C223    1.434   .     S
C223   O273    1.280   .     A
C223   O279    1.280   .     A
C224   O280    1.273   .     A
C224   O274    1.273   .     A
C225   C230    1.386   .     A
C225   H257    1.083   .     S
C225   C234    1.404   .     A
C226   C229    1.451   .     S
C226   O266    1.271   .     A
C226   O268    1.276   .     A
C227   O269    1.283   .     A
C227   O267    1.283   .     A
C228   H255    1.083   .     S
C228   C877    1.403   1_554 S
C230   H256    1.084   .     S
C231   N262    1.448   .     S
C231   H261    1.110   .     S
C231   H313    1.111   .     S
C231   H314    1.111   .     S
C232   H245    1.110   .     S
C232   N263    1.448   .     S
C232   H246    1.112   .     S
C232   H247    1.111   .     S
C233   H251    1.111   .     S
C233   H254    1.110   .     S
C233   N264    1.446   .     S
C233   H253    1.111   .     S
C234   C235    1.426   .     A
C234   O911    1.383   .     S
C235   C236    1.418   .     A
C235   C876    1.425   .     S
C236   C240    1.409   .     A
C237   C874    1.425   1_554 S
C237   C877    1.421   1_554 S
C238   C239    1.407   .     A
C238   C876    1.421   .     S
C238   C867    1.403   .     S
C239   N263    1.432   .     S
C239   C240    1.397   .     A
C240   H258    1.079   .     S
H242   C373    1.111   1_455 S
H243   C373    1.111   1_455 S
H244   N263    1.031   .     S
H248   O271    0.988   .     S
H249   O272    0.992   .     S
H250   N264    1.031   .     S
H252   C435    1.086   .     S
H259   O270    0.990   .     S
H260   N262    1.032   .     S
N262   C291    1.433   .     S
N264   C361    1.431   1_455 S
O265   Zn283   1.940   .     S
O265   Zn284   1.933   .     S
O265   Zn282   1.948   .     S
O265   Zn281   1.962   .     S
O266   Zn282   1.937   .     S
O267   Zn284   1.947   .     S
O268   Zn283   1.941   .     S
O269   Zn281   1.932   .     S
O272   C873    1.383   1_554 S
O273   Zn281   1.925   .     S
O274   Zn284   1.928   .     S
O275   Zn282   1.935   .     S
O276   Zn283   1.945   .     S
O277   Zn284   1.942   .     S
O278   Zn281   1.934   .     S
O279   Zn282   1.932   .     S
O280   Zn283   1.925   .     S
C285   O346    1.270   .     A
C285   O348    1.264   .     A
C285   C291    1.439   .     S
C286   O342    1.388   .     S
C286   C308    1.412   .     A
C286   C300    1.414   .     A
C287   C299    1.389   .     A
C287   O341    1.382   .     S
C287   C300    1.413   .     A
C288   O347    1.287   .     A
C288   O349    1.276   .     A
C288   C290    1.463   .     S
C289   C307    1.417   .     A
C289   C298    1.472   .     S
C289   C301    1.400   .     A
C290   C362    1.360   .     S
C290   N406    1.431   .     S
C292   C295    1.450   .     S
C292   C506    1.331   .     S
C292   H525    1.088   .     S
C293   C294    1.434   .     S
C294   O344    1.280   .     A
C294   O350    1.280   .     A
C295   O351    1.273   .     A
C295   O345    1.273   .     A
C296   C301    1.386   .     A
C296   H328    1.083   .     S
C296   C305    1.404   .     A
C297   C300    1.451   .     S
C297   O337    1.271   .     A
C297   O339    1.276   .     A
C298   O340    1.283   .     A
C298   O338    1.283   .     A
C299   H326    1.083   .     S
C299   C948    1.403   1_554 S
C301   H327    1.084   .     S
C302   N333    1.448   .     S
C302   H332    1.110   .     S
C302   H384    1.111   .     S
C302   H385    1.111   .     S
C303   H316    1.110   .     S
C303   N334    1.448   .     S
C303   H317    1.112   .     S
C303   H318    1.111   .     S
C304   H322    1.111   .     S
C304   H325    1.110   .     S
C304   N335    1.446   .     S
C304   H324    1.111   .     S
C305   C306    1.426   .     A
C305   O982    1.383   .     S
C306   C307    1.418   .     A
C306   C947    1.425   .     S
C307   C311    1.409   .     A
C308   C945    1.425   1_554 S
C308   C948    1.421   1_554 S
C309   C310    1.407   .     A
C309   C947    1.421   .     S
C309   C938    1.403   .     S
C310   N334    1.432   .     S
C310   C311    1.397   .     A
C311   H329    1.079   .     S
H315   N334    1.031   .     S
H319   O342    0.988   .     S
H320   O343    0.992   .     S
H321   N335    1.031   .     S
H323   C506    1.086   .     S
H330   O341    0.990   .     S
H331   N333    1.032   .     S
N333   C362    1.433   .     S
O336   Zn354   1.940   .     S
O336   Zn355   1.933   .     S
O336   Zn353   1.948   .     S
O336   Zn352   1.962   .     S
O337   Zn353   1.937   .     S
O338   Zn355   1.947   .     S
O339   Zn354   1.941   .     S
O340   Zn352   1.932   .     S
O343   C944    1.383   1_554 S
O344   Zn352   1.925   .     S
O345   Zn355   1.928   .     S
O346   Zn353   1.935   .     S
O347   Zn354   1.945   .     S
O348   Zn355   1.942   .     S
O349   Zn352   1.934   .     S
O350   Zn353   1.932   .     S
O351   Zn354   1.925   .     S
C356   O417    1.270   .     A
C356   O419    1.264   .     A
C356   C362    1.439   .     S
C357   O413    1.388   .     S
C357   C379    1.412   .     A
C357   C371    1.414   .     A
C358   C370    1.389   .     A
C358   O412    1.382   .     S
C358   C371    1.413   .     A
C359   O418    1.287   .     A
C359   O420    1.276   .     A
C359   C361    1.463   .     S
C360   C378    1.417   .     A
C360   C369    1.472   .     S
C360   C372    1.400   .     A
C361   C220    1.360   1_655 S
C361   N264    1.431   1_655 S
C363   C366    1.450   .     S
C363   C577    1.331   .     S
C363   H596    1.088   .     S
C364   C365    1.434   .     S
C365   O415    1.280   .     A
C365   O421    1.280   .     A
C366   O422    1.273   .     A
C366   O416    1.273   .     A
C367   C372    1.386   .     A
C367   H399    1.083   .     S
C367   C376    1.404   .     A
C368   C371    1.451   .     S
C368   O408    1.271   .     A
C368   O410    1.276   .     A
C369   O411    1.283   .     A
C369   O409    1.283   .     A
C370   H397    1.083   .     S
C370   C1019   1.403   1_554 S
C372   H398    1.084   .     S
C373   N404    1.448   .     S
C373   H403    1.110   .     S
C373   H242    1.111   1_655 S
C373   H243    1.111   1_655 S
C374   H387    1.110   .     S
C374   N405    1.448   .     S
C374   H388    1.112   .     S
C374   H389    1.111   .     S
C375   H393    1.111   .     S
C375   H396    1.110   .     S
C375   N406    1.446   .     S
C375   H395    1.111   .     S
C376   C377    1.426   .     A
C376   O1053   1.383   .     S
C377   C378    1.418   .     A
C377   C1018   1.425   .     S
C378   C382    1.409   .     A
C379   C1016   1.425   1_554 S
C379   C1019   1.421   1_554 S
C380   C381    1.407   .     A
C380   C1018   1.421   .     S
C380   C1009   1.403   .     S
C381   N405    1.432   .     S
C381   C382    1.397   .     A
C382   H400    1.079   .     S
H386   N405    1.031   .     S
H390   O413    0.988   .     S
H391   O414    0.992   .     S
H392   N406    1.031   .     S
H394   C577    1.086   .     S
H401   O412    0.990   .     S
H402   N404    1.032   .     S
N404   C220    1.433   1_655 S
O407   Zn425   1.940   .     S
O407   Zn426   1.933   .     S
O407   Zn424   1.948   .     S
O407   Zn423   1.962   .     S
O408   Zn424   1.937   .     S
O409   Zn426   1.947   .     S
O410   Zn425   1.941   .     S
O411   Zn423   1.932   .     S
O414   C1015   1.383   1_554 S
O415   Zn423   1.925   .     S
O416   Zn426   1.928   .     S
O417   Zn424   1.935   .     S
O418   Zn425   1.945   .     S
O419   Zn426   1.942   .     S
O420   Zn423   1.934   .     S
O421   Zn424   1.932   .     S
O422   Zn425   1.925   .     S
C427   O488    1.270   .     A
C427   O490    1.264   .     A
C427   C433    1.439   .     S
C428   O484    1.388   .     S
C428   C450    1.412   .     A
C428   C442    1.414   .     A
C429   C441    1.389   .     A
C429   O483    1.382   .     S
C429   C442    1.413   .     A
C430   O489    1.287   .     A
C430   O491    1.276   .     A
C430   C432    1.463   .     S
C431   C449    1.417   .     A
C431   C440    1.472   .     S
C431   C443    1.400   .     A
C432   C504    1.360   .     S
C432   N548    1.431   .     S
C433   C574    1.360   1_455 S
C433   N617    1.433   1_455 S
C434   C437    1.450   .     S
C434   C9      1.331   1_565 S
C434   H28     1.088   1_565 S
C435   C436    1.434   .     S
C436   O486    1.280   .     A
C436   O492    1.280   .     A
C437   O493    1.273   .     A
C437   O487    1.273   .     A
C438   C443    1.386   .     A
C438   H470    1.083   .     S
C438   C447    1.404   .     A
C439   C442    1.451   .     S
C439   O479    1.271   .     A
C439   O481    1.276   .     A
C440   O482    1.283   .     A
C440   O480    1.283   .     A
C441   H468    1.083   .     S
C441   C1090   1.403   1_554 S
C443   H469    1.084   .     S
C444   N475    1.448   .     S
C444   H474    1.110   .     S
C444   H526    1.111   .     S
C444   H527    1.111   .     S
C445   H458    1.110   .     S
C445   N476    1.448   .     S
C445   H459    1.112   .     S
C445   H460    1.111   .     S
C446   H464    1.111   .     S
C446   H467    1.110   .     S
C446   N477    1.446   .     S
C446   H466    1.111   .     S
C447   C448    1.426   .     A
C447   O1124   1.383   .     S
C448   C449    1.418   .     A
C448   C1089   1.425   .     S
C449   C453    1.409   .     A
C450   C1087   1.425   1_554 S
C450   C1090   1.421   1_554 S
C451   C452    1.407   .     A
C451   C1089   1.421   .     S
C451   C1080   1.403   .     S
C452   N476    1.432   .     S
C452   C453    1.397   .     A
C453   H471    1.079   .     S
H455   C586    1.111   1_455 S
H456   C586    1.111   1_455 S
H457   N476    1.031   .     S
H461   O484    0.988   .     S
H462   O485    0.992   .     S
H463   N477    1.031   .     S
H465   C9      1.086   1_565 S
H472   O483    0.990   .     S
H473   N475    1.032   .     S
N475   C504    1.433   .     S
N477   C574    1.431   1_455 S
O478   Zn496   1.940   .     S
O478   Zn497   1.933   .     S
O478   Zn495   1.948   .     S
O478   Zn494   1.962   .     S
O479   Zn495   1.937   .     S
O480   Zn497   1.947   .     S
O481   Zn496   1.941   .     S
O482   Zn494   1.932   .     S
O485   C1086   1.383   1_554 S
O486   Zn494   1.925   .     S
O487   Zn497   1.928   .     S
O488   Zn495   1.935   .     S
O489   Zn496   1.945   .     S
O490   Zn497   1.942   .     S
O491   Zn494   1.934   .     S
O492   Zn495   1.932   .     S
O493   Zn496   1.925   .     S
C498   O559    1.270   .     A
C498   O561    1.264   .     A
C498   C504    1.439   .     S
C499   O555    1.388   .     S
C499   C521    1.412   .     A
C499   C513    1.414   .     A
C500   C512    1.389   .     A
C500   O554    1.382   .     S
C500   C513    1.413   .     A
C501   O560    1.287   .     A
C501   O562    1.276   .     A
C501   C503    1.463   .     S
C502   C520    1.417   .     A
C502   C511    1.472   .     S
C502   C514    1.400   .     A
C503   C575    1.360   .     S
C503   N619    1.431   .     S
C505   C508    1.450   .     S
C505   C80     1.331   1_565 S
C505   H99     1.088   1_565 S
C506   C507    1.434   .     S
C507   O557    1.280   .     A
C507   O563    1.280   .     A
C508   O564    1.273   .     A
C508   O558    1.273   .     A
C509   C514    1.386   .     A
C509   H541    1.083   .     S
C509   C518    1.404   .     A
C510   C513    1.451   .     S
C510   O550    1.271   .     A
C510   O552    1.276   .     A
C511   O553    1.283   .     A
C511   O551    1.283   .     A
C512   H539    1.083   .     S
C512   C1161   1.403   1_554 S
C514   H540    1.084   .     S
C515   N546    1.448   .     S
C515   H545    1.110   .     S
C515   H597    1.111   .     S
C515   H598    1.111   .     S
C516   H529    1.110   .     S
C516   N547    1.448   .     S
C516   H530    1.112   .     S
C516   H531    1.111   .     S
C517   H535    1.111   .     S
C517   H538    1.110   .     S
C517   N548    1.446   .     S
C517   H537    1.111   .     S
C518   C519    1.426   .     A
C518   O1195   1.383   .     S
C519   C520    1.418   .     A
C519   C1160   1.425   .     S
C520   C524    1.409   .     A
C521   C1158   1.425   1_554 S
C521   C1161   1.421   1_554 S
C522   C523    1.407   .     A
C522   C1160   1.421   .     S
C522   C1151   1.403   .     S
C523   N547    1.432   .     S
C523   C524    1.397   .     A
C524   H542    1.079   .     S
H528   N547    1.031   .     S
H532   O555    0.988   .     S
H533   O556    0.992   .     S
H534   N548    1.031   .     S
H536   C80     1.086   1_565 S
H543   O554    0.990   .     S
H544   N546    1.032   .     S
N546   C575    1.433   .     S
O549   Zn567   1.940   .     S
O549   Zn568   1.933   .     S
O549   Zn566   1.948   .     S
O549   Zn565   1.962   .     S
O550   Zn566   1.937   .     S
O551   Zn568   1.947   .     S
O552   Zn567   1.941   .     S
O553   Zn565   1.932   .     S
O556   C1157   1.383   1_554 S
O557   Zn565   1.925   .     S
O558   Zn568   1.928   .     S
O559   Zn566   1.935   .     S
O560   Zn567   1.945   .     S
O561   Zn568   1.942   .     S
O562   Zn565   1.934   .     S
O563   Zn566   1.932   .     S
O564   Zn567   1.925   .     S
C569   O630    1.270   .     A
C569   O632    1.264   .     A
C569   C575    1.439   .     S
C570   O626    1.388   .     S
C570   C592    1.412   .     A
C570   C584    1.414   .     A
C571   C583    1.389   .     A
C571   O625    1.382   .     S
C571   C584    1.413   .     A
C572   O631    1.287   .     A
C572   O633    1.276   .     A
C572   C574    1.463   .     S
C573   C591    1.417   .     A
C573   C582    1.472   .     S
C573   C585    1.400   .     A
C574   C433    1.360   1_655 S
C574   N477    1.431   1_655 S
C576   C579    1.450   .     S
C576   C151    1.331   1_565 S
C576   H170    1.088   1_565 S
C577   C578    1.434   .     S
C578   O628    1.280   .     A
C578   O634    1.280   .     A
C579   O635    1.273   .     A
C579   O629    1.273   .     A
C580   C585    1.386   .     A
C580   H612    1.083   .     S
C580   C589    1.404   .     A
C581   C584    1.451   .     S
C581   O621    1.271   .     A
C581   O623    1.276   .     A
C582   O624    1.283   .     A
C582   O622    1.283   .     A
C583   H610    1.083   .     S
C583   C1232   1.403   1_554 S
C585   H611    1.084   .     S
C586   N617    1.448   .     S
C586   H616    1.110   .     S
C586   H455    1.111   1_655 S
C586   H456    1.111   1_655 S
C587   H600    1.110   .     S
C587   N618    1.448   .     S
C587   H601    1.112   .     S
C587   H602    1.111   .     S
C588   H606    1.111   .     S
C588   H609    1.110   .     S
C588   N619    1.446   .     S
C588   H608    1.111   .     S
C589   C590    1.426   .     A
C589   O1266   1.383   .     S
C590   C591    1.418   .     A
C590   C1231   1.425   .     S
C591   C595    1.409   .     A
C592   C1229   1.425   1_554 S
C592   C1232   1.421   1_554 S
C593   C594    1.407   .     A
C593   C1231   1.421   .     S
C593   C1222   1.403   .     S
C594   N618    1.432   .     S
C594   C595    1.397   .     A
C595   H613    1.079   .     S
H599   N618    1.031   .     S
H603   O626    0.988   .     S
H604   O627    0.992   .     S
H605   N619    1.031   .     S
H607   C151    1.086   1_565 S
H614   O625    0.990   .     S
H615   N617    1.032   .     S
N617   C433    1.433   1_655 S
O620   Zn638   1.940   .     S
O620   Zn639   1.933   .     S
O620   Zn637   1.948   .     S
O620   Zn636   1.962   .     S
O621   Zn637   1.937   .     S
O622   Zn639   1.947   .     S
O623   Zn638   1.941   .     S
O624   Zn636   1.932   .     S
O627   C1228   1.383   1_554 S
O628   Zn636   1.925   .     S
O629   Zn639   1.928   .     S
O630   Zn637   1.935   .     S
O631   Zn638   1.945   .     S
O632   Zn639   1.942   .     S
O633   Zn636   1.934   .     S
O634   Zn637   1.932   .     S
O635   Zn638   1.925   .     S
C640   O701    1.270   .     A
C640   O703    1.264   .     A
C640   C646    1.439   .     S
C641   O697    1.388   .     S
C641   C663    1.412   .     A
C641   C655    1.414   .     A
C642   C654    1.389   .     A
C642   O696    1.382   .     S
C642   C655    1.413   .     A
C643   O702    1.287   .     A
C643   O704    1.276   .     A
C643   C645    1.463   .     S
C644   C662    1.417   .     A
C644   C653    1.472   .     S
C644   C656    1.400   .     A
C645   C717    1.360   .     S
C645   N761    1.431   .     S
C646   C787    1.360   1_455 S
C646   N830    1.433   1_455 S
C647   C650    1.450   .     S
C647   C861    1.331   .     S
C647   H880    1.088   .     S
C648   C649    1.434   .     S
C648   C1073   1.331   1_545 S
C648   H1104   1.086   1_545 S
C649   O699    1.280   .     A
C649   O705    1.280   .     A
C650   O706    1.273   .     A
C650   O700    1.273   .     A
C651   C656    1.386   .     A
C651   H683    1.083   .     S
C651   C660    1.404   .     A
C652   C655    1.451   .     S
C652   O692    1.271   .     A
C652   O694    1.276   .     A
C653   O695    1.283   .     A
C653   O693    1.283   .     A
C654   H681    1.083   .     S
C656   H682    1.084   .     S
C657   N688    1.448   .     S
C657   H687    1.110   .     S
C657   H739    1.111   .     S
C657   H740    1.111   .     S
C658   H671    1.110   .     S
C658   N689    1.448   .     S
C658   H672    1.112   .     S
C658   H673    1.111   .     S
C659   H677    1.111   .     S
C659   H680    1.110   .     S
C659   N690    1.446   .     S
C659   H679    1.111   .     S
C660   C661    1.426   .     A
C660   O59     1.383   1_556 S
C661   C662    1.418   .     A
C661   C24     1.425   1_556 S
C662   C666    1.409   .     A
C664   C665    1.407   .     A
C664   C24     1.421   1_556 S
C664   C15     1.403   1_556 S
C665   N689    1.432   .     S
C665   C666    1.397   .     A
C666   H684    1.079   .     S
H667   C1073   1.088   1_545 S
H668   C799    1.111   1_455 S
H669   C799    1.111   1_455 S
H670   N689    1.031   .     S
H674   O697    0.988   .     S
H675   O698    0.992   .     S
H676   N690    1.031   .     S
H678   C861    1.086   .     S
H685   O696    0.990   .     S
H686   N688    1.032   .     S
N688   C717    1.433   .     S
N690   C787    1.431   1_455 S
O691   Zn709   1.940   .     S
O691   Zn710   1.933   .     S
O691   Zn708   1.948   .     S
O691   Zn707   1.962   .     S
O692   Zn708   1.937   .     S
O693   Zn710   1.947   .     S
O694   Zn709   1.941   .     S
O695   Zn707   1.932   .     S
O699   Zn707   1.925   .     S
O700   Zn710   1.928   .     S
O701   Zn708   1.935   .     S
O702   Zn709   1.945   .     S
O703   Zn710   1.942   .     S
O704   Zn707   1.934   .     S
O705   Zn708   1.932   .     S
O706   Zn709   1.925   .     S
C711   O772    1.270   .     A
C711   O774    1.264   .     A
C711   C717    1.439   .     S
C712   O768    1.388   .     S
C712   C734    1.412   .     A
C712   C726    1.414   .     A
C713   C725    1.389   .     A
C713   O767    1.382   .     S
C713   C726    1.413   .     A
C714   O773    1.287   .     A
C714   O775    1.276   .     A
C714   C716    1.463   .     S
C715   C733    1.417   .     A
C715   C724    1.472   .     S
C715   C727    1.400   .     A
C716   C788    1.360   .     S
C716   N832    1.431   .     S
C718   C721    1.450   .     S
C718   C932    1.331   .     S
C718   H951    1.088   .     S
C719   C720    1.434   .     S
C719   C1144   1.331   1_545 S
C719   H1175   1.086   1_545 S
C720   O770    1.280   .     A
C720   O776    1.280   .     A
C721   O777    1.273   .     A
C721   O771    1.273   .     A
C722   C727    1.386   .     A
C722   H754    1.083   .     S
C722   C731    1.404   .     A
C723   C726    1.451   .     S
C723   O763    1.271   .     A
C723   O765    1.276   .     A
C724   O766    1.283   .     A
C724   O764    1.283   .     A
C725   H752    1.083   .     S
C727   H753    1.084   .     S
C728   N759    1.448   .     S
C728   H758    1.110   .     S
C728   H810    1.111   .     S
C728   H811    1.111   .     S
C729   H742    1.110   .     S
C729   N760    1.448   .     S
C729   H743    1.112   .     S
C729   H744    1.111   .     S
C730   H748    1.111   .     S
C730   H751    1.110   .     S
C730   N761    1.446   .     S
C730   H750    1.111   .     S
C731   C732    1.426   .     A
C731   O130    1.383   1_556 S
C732   C733    1.418   .     A
C732   C95     1.425   1_556 S
C733   C737    1.409   .     A
C735   C736    1.407   .     A
C735   C95     1.421   1_556 S
C735   C86     1.403   1_556 S
C736   N760    1.432   .     S
C736   C737    1.397   .     A
C737   H755    1.079   .     S
H738   C1144   1.088   1_545 S
H741   N760    1.031   .     S
H745   O768    0.988   .     S
H746   O769    0.992   .     S
H747   N761    1.031   .     S
H749   C932    1.086   .     S
H756   O767    0.990   .     S
H757   N759    1.032   .     S
N759   C788    1.433   .     S
O762   Zn780   1.940   .     S
O762   Zn781   1.933   .     S
O762   Zn779   1.948   .     S
O762   Zn778   1.962   .     S
O763   Zn779   1.937   .     S
O764   Zn781   1.947   .     S
O765   Zn780   1.941   .     S
O766   Zn778   1.932   .     S
O770   Zn778   1.925   .     S
O771   Zn781   1.928   .     S
O772   Zn779   1.935   .     S
O773   Zn780   1.945   .     S
O774   Zn781   1.942   .     S
O775   Zn778   1.934   .     S
O776   Zn779   1.932   .     S
O777   Zn780   1.925   .     S
C782   O843    1.270   .     A
C782   O845    1.264   .     A
C782   C788    1.439   .     S
C783   O839    1.388   .     S
C783   C805    1.412   .     A
C783   C797    1.414   .     A
C784   C796    1.389   .     A
C784   O838    1.382   .     S
C784   C797    1.413   .     A
C785   O844    1.287   .     A
C785   O846    1.276   .     A
C785   C787    1.463   .     S
C786   C804    1.417   .     A
C786   C795    1.472   .     S
C786   C798    1.400   .     A
C787   C646    1.360   1_655 S
C787   N690    1.431   1_655 S
C789   C792    1.450   .     S
C789   C1003   1.331   .     S
C789   H1022   1.088   .     S
C790   C791    1.434   .     S
C790   C1215   1.331   1_545 S
C790   H1246   1.086   1_545 S
C791   O841    1.280   .     A
C791   O847    1.280   .     A
C792   O848    1.273   .     A
C792   O842    1.273   .     A
C793   C798    1.386   .     A
C793   H825    1.083   .     S
C793   C802    1.404   .     A
C794   C797    1.451   .     S
C794   O834    1.271   .     A
C794   O836    1.276   .     A
C795   O837    1.283   .     A
C795   O835    1.283   .     A
C796   H823    1.083   .     S
C798   H824    1.084   .     S
C799   N830    1.448   .     S
C799   H829    1.110   .     S
C799   H668    1.111   1_655 S
C799   H669    1.111   1_655 S
C800   H813    1.110   .     S
C800   N831    1.448   .     S
C800   H814    1.112   .     S
C800   H815    1.111   .     S
C801   H819    1.111   .     S
C801   H822    1.110   .     S
C801   N832    1.446   .     S
C801   H821    1.111   .     S
C802   C803    1.426   .     A
C802   O201    1.383   1_556 S
C803   C804    1.418   .     A
C803   C166    1.425   1_556 S
C804   C808    1.409   .     A
C806   C807    1.407   .     A
C806   C166    1.421   1_556 S
C806   C157    1.403   1_556 S
C807   N831    1.432   .     S
C807   C808    1.397   .     A
C808   H826    1.079   .     S
H809   C1215   1.088   1_545 S
H812   N831    1.031   .     S
H816   O839    0.988   .     S
H817   O840    0.992   .     S
H818   N832    1.031   .     S
H820   C1003   1.086   .     S
H827   O838    0.990   .     S
H828   N830    1.032   .     S
N830   C646    1.433   1_655 S
O833   Zn851   1.940   .     S
O833   Zn852   1.933   .     S
O833   Zn850   1.948   .     S
O833   Zn849   1.962   .     S
O834   Zn850   1.937   .     S
O835   Zn852   1.947   .     S
O836   Zn851   1.941   .     S
O837   Zn849   1.932   .     S
O841   Zn849   1.925   .     S
O842   Zn852   1.928   .     S
O843   Zn850   1.935   .     S
O844   Zn851   1.945   .     S
O845   Zn852   1.942   .     S
O846   Zn849   1.934   .     S
O847   Zn850   1.932   .     S
O848   Zn851   1.925   .     S
C853   O914    1.270   .     A
C853   O916    1.264   .     A
C853   C859    1.439   .     S
C854   O910    1.388   .     S
C854   C876    1.412   .     A
C854   C868    1.414   .     A
C855   C867    1.389   .     A
C855   O909    1.382   .     S
C855   C868    1.413   .     A
C856   O915    1.287   .     A
C856   O917    1.276   .     A
C856   C858    1.463   .     S
C857   C875    1.417   .     A
C857   C866    1.472   .     S
C857   C869    1.400   .     A
C858   C930    1.360   .     S
C858   N974    1.431   .     S
C859   C1000   1.360   1_455 S
C859   N1043   1.433   1_455 S
C860   C863    1.450   .     S
C860   C1074   1.331   .     S
C860   H1093   1.088   .     S
C861   C862    1.434   .     S
C862   O912    1.280   .     A
C862   O918    1.280   .     A
C863   O919    1.273   .     A
C863   O913    1.273   .     A
C864   C869    1.386   .     A
C864   H896    1.083   .     S
C864   C873    1.404   .     A
C865   C868    1.451   .     S
C865   O905    1.271   .     A
C865   O907    1.276   .     A
C866   O908    1.283   .     A
C866   O906    1.283   .     A
C867   H894    1.083   .     S
C869   H895    1.084   .     S
C870   N901    1.448   .     S
C870   H900    1.110   .     S
C870   H952    1.111   .     S
C870   H953    1.111   .     S
C871   H884    1.110   .     S
C871   N902    1.448   .     S
C871   H885    1.112   .     S
C871   H886    1.111   .     S
C872   H890    1.111   .     S
C872   H893    1.110   .     S
C872   N903    1.446   .     S
C872   H892    1.111   .     S
C873   C874    1.426   .     A
C873   O272    1.383   1_556 S
C874   C875    1.418   .     A
C874   C237    1.425   1_556 S
C875   C879    1.409   .     A
C877   C878    1.407   .     A
C877   C237    1.421   1_556 S
C877   C228    1.403   1_556 S
C878   N902    1.432   .     S
C878   C879    1.397   .     A
C879   H897    1.079   .     S
H881   C1012   1.111   1_455 S
H882   C1012   1.111   1_455 S
H883   N902    1.031   .     S
H887   O910    0.988   .     S
H888   O911    0.992   .     S
H889   N903    1.031   .     S
H891   C1074   1.086   .     S
H898   O909    0.990   .     S
H899   N901    1.032   .     S
N901   C930    1.433   .     S
N903   C1000   1.431   1_455 S
O904   Zn922   1.940   .     S
O904   Zn923   1.933   .     S
O904   Zn921   1.948   .     S
O904   Zn920   1.962   .     S
O905   Zn921   1.937   .     S
O906   Zn923   1.947   .     S
O907   Zn922   1.941   .     S
O908   Zn920   1.932   .     S
O912   Zn920   1.925   .     S
O913   Zn923   1.928   .     S
O914   Zn921   1.935   .     S
O915   Zn922   1.945   .     S
O916   Zn923   1.942   .     S
O917   Zn920   1.934   .     S
O918   Zn921   1.932   .     S
O919   Zn922   1.925   .     S
C924   O985    1.270   .     A
C924   O987    1.264   .     A
C924   C930    1.439   .     S
C925   O981    1.388   .     S
C925   C947    1.412   .     A
C925   C939    1.414   .     A
C926   C938    1.389   .     A
C926   O980    1.382   .     S
C926   C939    1.413   .     A
C927   O986    1.287   .     A
C927   O988    1.276   .     A
C927   C929    1.463   .     S
C928   C946    1.417   .     A
C928   C937    1.472   .     S
C928   C940    1.400   .     A
C929   C1001   1.360   .     S
C929   N1045   1.431   .     S
C931   C934    1.450   .     S
C931   C1145   1.331   .     S
C931   H1164   1.088   .     S
C932   C933    1.434   .     S
C933   O983    1.280   .     A
C933   O989    1.280   .     A
C934   O990    1.273   .     A
C934   O984    1.273   .     A
C935   C940    1.386   .     A
C935   H967    1.083   .     S
C935   C944    1.404   .     A
C936   C939    1.451   .     S
C936   O976    1.271   .     A
C936   O978    1.276   .     A
C937   O979    1.283   .     A
C937   O977    1.283   .     A
C938   H965    1.083   .     S
C940   H966    1.084   .     S
C941   N972    1.448   .     S
C941   H971    1.110   .     S
C941   H1023   1.111   .     S
C941   H1024   1.111   .     S
C942   H955    1.110   .     S
C942   N973    1.448   .     S
C942   H956    1.112   .     S
C942   H957    1.111   .     S
C943   H961    1.111   .     S
C943   H964    1.110   .     S
C943   N974    1.446   .     S
C943   H963    1.111   .     S
C944   C945    1.426   .     A
C944   O343    1.383   1_556 S
C945   C946    1.418   .     A
C945   C308    1.425   1_556 S
C946   C950    1.409   .     A
C948   C949    1.407   .     A
C948   C308    1.421   1_556 S
C948   C299    1.403   1_556 S
C949   N973    1.432   .     S
C949   C950    1.397   .     A
C950   H968    1.079   .     S
H954   N973    1.031   .     S
H958   O981    0.988   .     S
H959   O982    0.992   .     S
H960   N974    1.031   .     S
H962   C1145   1.086   .     S
H969   O980    0.990   .     S
H970   N972    1.032   .     S
N972   C1001   1.433   .     S
O975   Zn993   1.940   .     S
O975   Zn994   1.933   .     S
O975   Zn992   1.948   .     S
O975   Zn991   1.962   .     S
O976   Zn992   1.937   .     S
O977   Zn994   1.947   .     S
O978   Zn993   1.941   .     S
O979   Zn991   1.932   .     S
O983   Zn991   1.925   .     S
O984   Zn994   1.928   .     S
O985   Zn992   1.935   .     S
O986   Zn993   1.945   .     S
O987   Zn994   1.942   .     S
O988   Zn991   1.934   .     S
O989   Zn992   1.932   .     S
O990   Zn993   1.925   .     S
C995   O1056   1.270   .     A
C995   O1058   1.264   .     A
C995   C1001   1.439   .     S
C996   O1052   1.388   .     S
C996   C1018   1.412   .     A
C996   C1010   1.414   .     A
C997   C1009   1.389   .     A
C997   O1051   1.382   .     S
C997   C1010   1.413   .     A
C998   O1057   1.287   .     A
C998   O1059   1.276   .     A
C998   C1000   1.463   .     S
C999   C1017   1.417   .     A
C999   C1008   1.472   .     S
C999   C1011   1.400   .     A
C1000  C859    1.360   1_655 S
C1000  N903    1.431   1_655 S
C1002  C1005   1.450   .     S
C1002  C1216   1.331   .     S
C1002  H1235   1.088   .     S
C1003  C1004   1.434   .     S
C1004  O1054   1.280   .     A
C1004  O1060   1.280   .     A
C1005  O1061   1.273   .     A
C1005  O1055   1.273   .     A
C1006  C1011   1.386   .     A
C1006  H1038   1.083   .     S
C1006  C1015   1.404   .     A
C1007  C1010   1.451   .     S
C1007  O1047   1.271   .     A
C1007  O1049   1.276   .     A
C1008  O1050   1.283   .     A
C1008  O1048   1.283   .     A
C1009  H1036   1.083   .     S
C1011  H1037   1.084   .     S
C1012  N1043   1.448   .     S
C1012  H1042   1.110   .     S
C1012  H881    1.111   1_655 S
C1012  H882    1.111   1_655 S
C1013  H1026   1.110   .     S
C1013  N1044   1.448   .     S
C1013  H1027   1.112   .     S
C1013  H1028   1.111   .     S
C1014  H1032   1.111   .     S
C1014  H1035   1.110   .     S
C1014  N1045   1.446   .     S
C1014  H1034   1.111   .     S
C1015  C1016   1.426   .     A
C1015  O414    1.383   1_556 S
C1016  C1017   1.418   .     A
C1016  C379    1.425   1_556 S
C1017  C1021   1.409   .     A
C1019  C1020   1.407   .     A
C1019  C379    1.421   1_556 S
C1019  C370    1.403   1_556 S
C1020  N1044   1.432   .     S
C1020  C1021   1.397   .     A
C1021  H1039   1.079   .     S
H1025  N1044   1.031   .     S
H1029  O1052   0.988   .     S
H1030  O1053   0.992   .     S
H1031  N1045   1.031   .     S
H1033  C1216   1.086   .     S
H1040  O1051   0.990   .     S
H1041  N1043   1.032   .     S
N1043  C859    1.433   1_655 S
O1046  Zn1064  1.940   .     S
O1046  Zn1065  1.933   .     S
O1046  Zn1063  1.948   .     S
O1046  Zn1062  1.962   .     S
O1047  Zn1063  1.937   .     S
O1048  Zn1065  1.947   .     S
O1049  Zn1064  1.941   .     S
O1050  Zn1062  1.932   .     S
O1054  Zn1062  1.925   .     S
O1055  Zn1065  1.928   .     S
O1056  Zn1063  1.935   .     S
O1057  Zn1064  1.945   .     S
O1058  Zn1065  1.942   .     S
O1059  Zn1062  1.934   .     S
O1060  Zn1063  1.932   .     S
O1061  Zn1064  1.925   .     S
C1066  O1127   1.270   .     A
C1066  O1129   1.264   .     A
C1066  C1072   1.439   .     S
C1067  O1123   1.388   .     S
C1067  C1089   1.412   .     A
C1067  C1081   1.414   .     A
C1068  C1080   1.389   .     A
C1068  O1122   1.382   .     S
C1068  C1081   1.413   .     A
C1069  O1128   1.287   .     A
C1069  O1130   1.276   .     A
C1069  C1071   1.463   .     S
C1070  C1088   1.417   .     A
C1070  C1079   1.472   .     S
C1070  C1082   1.400   .     A
C1071  C1143   1.360   .     S
C1071  N1187   1.431   .     S
C1072  C1213   1.360   1_455 S
C1072  N1256   1.433   1_455 S
C1073  C1076   1.450   .     S
C1073  C648    1.331   1_565 S
C1073  H667    1.088   1_565 S
C1074  C1075   1.434   .     S
C1075  O1125   1.280   .     A
C1075  O1131   1.280   .     A
C1076  O1132   1.273   .     A
C1076  O1126   1.273   .     A
C1077  C1082   1.386   .     A
C1077  H1109   1.083   .     S
C1077  C1086   1.404   .     A
C1078  C1081   1.451   .     S
C1078  O1118   1.271   .     A
C1078  O1120   1.276   .     A
C1079  O1121   1.283   .     A
C1079  O1119   1.283   .     A
C1080  H1107   1.083   .     S
C1082  H1108   1.084   .     S
C1083  N1114   1.448   .     S
C1083  H1113   1.110   .     S
C1083  H1165   1.111   .     S
C1083  H1166   1.111   .     S
C1084  H1097   1.110   .     S
C1084  N1115   1.448   .     S
C1084  H1098   1.112   .     S
C1084  H1099   1.111   .     S
C1085  H1103   1.111   .     S
C1085  H1106   1.110   .     S
C1085  N1116   1.446   .     S
C1085  H1105   1.111   .     S
C1086  C1087   1.426   .     A
C1086  O485    1.383   1_556 S
C1087  C1088   1.418   .     A
C1087  C450    1.425   1_556 S
C1088  C1092   1.409   .     A
C1090  C1091   1.407   .     A
C1090  C450    1.421   1_556 S
C1090  C441    1.403   1_556 S
C1091  N1115   1.432   .     S
C1091  C1092   1.397   .     A
C1092  H1110   1.079   .     S
H1094  C1225   1.111   1_455 S
H1095  C1225   1.111   1_455 S
H1096  N1115   1.031   .     S
H1100  O1123   0.988   .     S
H1101  O1124   0.992   .     S
H1102  N1116   1.031   .     S
H1104  C648    1.086   1_565 S
H1111  O1122   0.990   .     S
H1112  N1114   1.032   .     S
N1114  C1143   1.433   .     S
N1116  C1213   1.431   1_455 S
O1117  Zn1135  1.940   .     S
O1117  Zn1136  1.933   .     S
O1117  Zn1134  1.948   .     S
O1117  Zn1133  1.962   .     S
O1118  Zn1134  1.937   .     S
O1119  Zn1136  1.947   .     S
O1120  Zn1135  1.941   .     S
O1121  Zn1133  1.932   .     S
O1125  Zn1133  1.925   .     S
O1126  Zn1136  1.928   .     S
O1127  Zn1134  1.935   .     S
O1128  Zn1135  1.945   .     S
O1129  Zn1136  1.942   .     S
O1130  Zn1133  1.934   .     S
O1131  Zn1134  1.932   .     S
O1132  Zn1135  1.925   .     S
C1137  O1198   1.270   .     A
C1137  O1200   1.264   .     A
C1137  C1143   1.439   .     S
C1138  O1194   1.388   .     S
C1138  C1160   1.412   .     A
C1138  C1152   1.414   .     A
C1139  C1151   1.389   .     A
C1139  O1193   1.382   .     S
C1139  C1152   1.413   .     A
C1140  O1199   1.287   .     A
C1140  O1201   1.276   .     A
C1140  C1142   1.463   .     S
C1141  C1159   1.417   .     A
C1141  C1150   1.472   .     S
C1141  C1153   1.400   .     A
C1142  C1214   1.360   .     S
C1142  N1258   1.431   .     S
C1144  C1147   1.450   .     S
C1144  C719    1.331   1_565 S
C1144  H738    1.088   1_565 S
C1145  C1146   1.434   .     S
C1146  O1196   1.280   .     A
C1146  O1202   1.280   .     A
C1147  O1203   1.273   .     A
C1147  O1197   1.273   .     A
C1148  C1153   1.386   .     A
C1148  H1180   1.083   .     S
C1148  C1157   1.404   .     A
C1149  C1152   1.451   .     S
C1149  O1189   1.271   .     A
C1149  O1191   1.276   .     A
C1150  O1192   1.283   .     A
C1150  O1190   1.283   .     A
C1151  H1178   1.083   .     S
C1153  H1179   1.084   .     S
C1154  N1185   1.448   .     S
C1154  H1184   1.110   .     S
C1154  H1236   1.111   .     S
C1154  H1237   1.111   .     S
C1155  H1168   1.110   .     S
C1155  N1186   1.448   .     S
C1155  H1169   1.112   .     S
C1155  H1170   1.111   .     S
C1156  H1174   1.111   .     S
C1156  H1177   1.110   .     S
C1156  N1187   1.446   .     S
C1156  H1176   1.111   .     S
C1157  C1158   1.426   .     A
C1157  O556    1.383   1_556 S
C1158  C1159   1.418   .     A
C1158  C521    1.425   1_556 S
C1159  C1163   1.409   .     A
C1161  C1162   1.407   .     A
C1161  C521    1.421   1_556 S
C1161  C512    1.403   1_556 S
C1162  N1186   1.432   .     S
C1162  C1163   1.397   .     A
C1163  H1181   1.079   .     S
H1167  N1186   1.031   .     S
H1171  O1194   0.988   .     S
H1172  O1195   0.992   .     S
H1173  N1187   1.031   .     S
H1175  C719    1.086   1_565 S
H1182  O1193   0.990   .     S
H1183  N1185   1.032   .     S
N1185  C1214   1.433   .     S
O1188  Zn1206  1.940   .     S
O1188  Zn1207  1.933   .     S
O1188  Zn1205  1.948   .     S
O1188  Zn1204  1.962   .     S
O1189  Zn1205  1.937   .     S
O1190  Zn1207  1.947   .     S
O1191  Zn1206  1.941   .     S
O1192  Zn1204  1.932   .     S
O1196  Zn1204  1.925   .     S
O1197  Zn1207  1.928   .     S
O1198  Zn1205  1.935   .     S
O1199  Zn1206  1.945   .     S
O1200  Zn1207  1.942   .     S
O1201  Zn1204  1.934   .     S
O1202  Zn1205  1.932   .     S
O1203  Zn1206  1.925   .     S
C1208  O1269   1.270   .     A
C1208  O1271   1.264   .     A
C1208  C1214   1.439   .     S
C1209  O1265   1.388   .     S
C1209  C1231   1.412   .     A
C1209  C1223   1.414   .     A
C1210  C1222   1.389   .     A
C1210  O1264   1.382   .     S
C1210  C1223   1.413   .     A
C1211  O1270   1.287   .     A
C1211  O1272   1.276   .     A
C1211  C1213   1.463   .     S
C1212  C1230   1.417   .     A
C1212  C1221   1.472   .     S
C1212  C1224   1.400   .     A
C1213  C1072   1.360   1_655 S
C1213  N1116   1.431   1_655 S
C1215  C1218   1.450   .     S
C1215  C790    1.331   1_565 S
C1215  H809    1.088   1_565 S
C1216  C1217   1.434   .     S
C1217  O1267   1.280   .     A
C1217  O1273   1.280   .     A
C1218  O1274   1.273   .     A
C1218  O1268   1.273   .     A
C1219  C1224   1.386   .     A
C1219  H1251   1.083   .     S
C1219  C1228   1.404   .     A
C1220  C1223   1.451   .     S
C1220  O1260   1.271   .     A
C1220  O1262   1.276   .     A
C1221  O1263   1.283   .     A
C1221  O1261   1.283   .     A
C1222  H1249   1.083   .     S
C1224  H1250   1.084   .     S
C1225  N1256   1.448   .     S
C1225  H1255   1.110   .     S
C1225  H1094   1.111   1_655 S
C1225  H1095   1.111   1_655 S
C1226  H1239   1.110   .     S
C1226  N1257   1.448   .     S
C1226  H1240   1.112   .     S
C1226  H1241   1.111   .     S
C1227  H1245   1.111   .     S
C1227  H1248   1.110   .     S
C1227  N1258   1.446   .     S
C1227  H1247   1.111   .     S
C1228  C1229   1.426   .     A
C1228  O627    1.383   1_556 S
C1229  C1230   1.418   .     A
C1229  C592    1.425   1_556 S
C1230  C1234   1.409   .     A
C1232  C1233   1.407   .     A
C1232  C592    1.421   1_556 S
C1232  C583    1.403   1_556 S
C1233  N1257   1.432   .     S
C1233  C1234   1.397   .     A
C1234  H1252   1.079   .     S
H1238  N1257   1.031   .     S
H1242  O1265   0.988   .     S
H1243  O1266   0.992   .     S
H1244  N1258   1.031   .     S
H1246  C790    1.086   1_565 S
H1253  O1264   0.990   .     S
H1254  N1256   1.032   .     S
N1256  C1072   1.433   1_655 S
O1259  Zn1277  1.940   .     S
O1259  Zn1278  1.933   .     S
O1259  Zn1276  1.948   .     S
O1259  Zn1275  1.962   .     S
O1260  Zn1276  1.937   .     S
O1261  Zn1278  1.947   .     S
O1262  Zn1277  1.941   .     S
O1263  Zn1275  1.932   .     S
O1267  Zn1275  1.925   .     S
O1268  Zn1278  1.928   .     S
O1269  Zn1276  1.935   .     S
O1270  Zn1277  1.945   .     S
O1271  Zn1278  1.942   .     S
O1272  Zn1275  1.934   .     S
O1273  Zn1276  1.932   .     S
O1274  Zn1277  1.925   .     S
