data_str_m3_o2_o5_pcu_sym.73
_audit_creation_date              2020-01-03
_audit_creation_method            'Materials Studio'
_symmetry_space_group_name_H-M    'P1'
_symmetry_Int_Tables_number       1
_symmetry_cell_setting            triclinic
loop_
_symmetry_equiv_pos_as_xyz
  x,y,z
_cell_length_a                    29.9048
_cell_length_b                    28.6574
_cell_length_c                    26.6661
_cell_angle_alpha                 89.9989
_cell_angle_beta                  91.4870
_cell_angle_gamma                 89.9949
loop_
_atom_site_label
_atom_site_type_symbol
_atom_site_fract_x
_atom_site_fract_y
_atom_site_fract_z
_atom_site_U_iso_or_equiv
_atom_site_adp_type
_atom_site_occupancy
Br1    Br    0.17871   0.13286   0.09221   0.00000  Uiso   1.00
Br2    Br    0.31218   0.36798   0.25087   0.00000  Uiso   1.00
Br3    Br    0.32129   0.13285   0.24112   0.00000  Uiso   1.00
Br4    Br    0.18785   0.36800   0.08243   0.00000  Uiso   1.00
C5     C     0.16421   0.24993   0.16648   0.00000  Uiso   1.00
C6     C     0.22558   0.44738   0.13050   0.00000  Uiso   1.00
C7     C     0.24993   0.25000   0.07298   0.00000  Uiso   1.00
C8     C     0.25007   0.25000   0.26035   0.00000  Uiso   1.00
C9     C     0.25000   0.02676   0.16667   0.00000  Uiso   1.00
C10    C     0.25000   0.47346   0.16667   0.00000  Uiso   1.00
C11    C     0.24997   0.25000   0.02183   0.00000  Uiso   1.00
C12    C     0.25003   0.25000   0.31151   0.00000  Uiso   1.00
C13    C     0.04575   0.26201   0.12439   0.00000  Uiso   1.00
C14    C     0.45130   0.22931   0.12476   0.00000  Uiso   1.00
C15    C     0.45423   0.26186   0.20904   0.00000  Uiso   1.00
C16    C     0.33579   0.24992   0.16686   0.00000  Uiso   1.00
C17    C     0.04871   0.22920   0.20856   0.00000  Uiso   1.00
C18    C     0.09204   0.26391   0.12424   0.00000  Uiso   1.00
C19    C     0.40485   0.23167   0.12401   0.00000  Uiso   1.00
C20    C     0.40794   0.26377   0.20918   0.00000  Uiso   1.00
C21    C     0.09515   0.23156   0.20930   0.00000  Uiso   1.00
C22    C     0.11643   0.24930   0.16698   0.00000  Uiso   1.00
C23    C     0.38357   0.24929   0.16637   0.00000  Uiso   1.00
C24    C     0.02419   0.24486   0.16645   0.00000  Uiso   1.00
C25    C     0.47581   0.24485   0.16692   0.00000  Uiso   1.00
C26    C     0.22022   0.10191   0.13671   0.00000  Uiso   1.00
C27    C     0.27486   0.39828   0.20173   0.00000  Uiso   1.00
C28    C     0.27978   0.10191   0.19662   0.00000  Uiso   1.00
C29    C     0.22515   0.39829   0.13161   0.00000  Uiso   1.00
C30    C     0.21922   0.05283   0.13710   0.00000  Uiso   1.00
C31    C     0.27442   0.44737   0.20284   0.00000  Uiso   1.00
C32    C     0.28078   0.05283   0.19625   0.00000  Uiso   1.00
H33    H     0.02672   0.27434   0.09188   0.00000  Uiso   1.00
H34    H     0.10541   0.25690   0.05083   0.00000  Uiso   1.00
H35    H     0.36383   0.24585   0.06467   0.00000  Uiso   1.00
H36    H     0.40001   0.20262   0.05362   0.00000  Uiso   1.00
H37    H     0.39454   0.25655   0.28256   0.00000  Uiso   1.00
H38    H     0.39788   0.31226   0.26257   0.00000  Uiso   1.00
H39    H     0.13620   0.24556   0.26866   0.00000  Uiso   1.00
H40    H     0.10002   0.20231   0.27959   0.00000  Uiso   1.00
H41    H     0.46836   0.21555   0.09259   0.00000  Uiso   1.00
H42    H     0.47325   0.27410   0.24160   0.00000  Uiso   1.00
H43    H     0.03165   0.21534   0.24068   0.00000  Uiso   1.00
H44    H     0.19383   0.03600   0.11406   0.00000  Uiso   1.00
H45    H     0.29338   0.46423   0.23263   0.00000  Uiso   1.00
H46    H     0.30617   0.03599   0.21928   0.00000  Uiso   1.00
H47    H     0.20663   0.46424   0.10071   0.00000  Uiso   1.00
H48    H     0.10207   0.31255   0.07101   0.00000  Uiso   1.00
N49    N     0.25000   0.12623   0.16667   0.00000  Uiso   1.00
N50    N     0.25000   0.37376   0.16667   0.00000  Uiso   1.00
N51    N     0.11429   0.27940   0.08031   0.00000  Uiso   1.00
N52    N     0.37909   0.21640   0.08073   0.00000  Uiso   1.00
N53    N     0.38567   0.27913   0.25315   0.00000  Uiso   1.00
N54    N     0.12093   0.21616   0.25252   0.00000  Uiso   1.00
O55    O     0.18453   0.28974   0.16667   0.00000  Uiso   1.00
O56    O     0.31547   0.21026   0.16666   0.00000  Uiso   1.00
O57    O     0.31547   0.28974   0.16666   0.00000  Uiso   1.00
O58    O     0.18453   0.21026   0.16667   0.00000  Uiso   1.00
O59    O     0.25000   0.28973   0.09511   0.00000  Uiso   1.00
O60    O     0.25000   0.21027   0.23822   0.00000  Uiso   1.00
O61    O     0.25000   0.28973   0.23822   0.00000  Uiso   1.00
O62    O     0.25000   0.21027   0.09511   0.00000  Uiso   1.00
Zn63   Zn    0.25000   0.30307   0.16667   0.00000  Uiso   1.00
Zn64   Zn    0.25000   0.19693   0.16667   0.00000  Uiso   1.00
Br65   Br    0.67871   0.13286   0.09221   0.00000  Uiso   1.00
Br66   Br    0.81218   0.36798   0.25087   0.00000  Uiso   1.00
Br67   Br    0.82129   0.13285   0.24112   0.00000  Uiso   1.00
Br68   Br    0.68785   0.36800   0.08243   0.00000  Uiso   1.00
C69    C     0.66421   0.24993   0.16648   0.00000  Uiso   1.00
C70    C     0.72558   0.44738   0.13050   0.00000  Uiso   1.00
C71    C     0.74993   0.25000   0.07298   0.00000  Uiso   1.00
C72    C     0.75007   0.25000   0.26035   0.00000  Uiso   1.00
C73    C     0.75000   0.02676   0.16667   0.00000  Uiso   1.00
C74    C     0.75000   0.47346   0.16667   0.00000  Uiso   1.00
C75    C     0.74997   0.25000   0.02183   0.00000  Uiso   1.00
C76    C     0.75003   0.25000   0.31151   0.00000  Uiso   1.00
C77    C     0.54575   0.26201   0.12439   0.00000  Uiso   1.00
C78    C     0.95130   0.22931   0.12476   0.00000  Uiso   1.00
C79    C     0.95423   0.26186   0.20904   0.00000  Uiso   1.00
C80    C     0.83579   0.24992   0.16686   0.00000  Uiso   1.00
C81    C     0.54871   0.22920   0.20856   0.00000  Uiso   1.00
C82    C     0.59204   0.26391   0.12424   0.00000  Uiso   1.00
C83    C     0.90485   0.23167   0.12401   0.00000  Uiso   1.00
C84    C     0.90794   0.26377   0.20918   0.00000  Uiso   1.00
C85    C     0.59515   0.23156   0.20930   0.00000  Uiso   1.00
C86    C     0.61643   0.24930   0.16698   0.00000  Uiso   1.00
C87    C     0.88357   0.24929   0.16637   0.00000  Uiso   1.00
C88    C     0.52419   0.24486   0.16645   0.00000  Uiso   1.00
C89    C     0.97581   0.24485   0.16692   0.00000  Uiso   1.00
C90    C     0.72022   0.10191   0.13671   0.00000  Uiso   1.00
C91    C     0.77486   0.39828   0.20173   0.00000  Uiso   1.00
C92    C     0.77978   0.10191   0.19662   0.00000  Uiso   1.00
C93    C     0.72515   0.39829   0.13161   0.00000  Uiso   1.00
C94    C     0.71922   0.05283   0.13710   0.00000  Uiso   1.00
C95    C     0.77442   0.44737   0.20284   0.00000  Uiso   1.00
C96    C     0.78078   0.05283   0.19625   0.00000  Uiso   1.00
H97    H     0.52672   0.27434   0.09188   0.00000  Uiso   1.00
H98    H     0.60541   0.25690   0.05083   0.00000  Uiso   1.00
H99    H     0.86383   0.24585   0.06467   0.00000  Uiso   1.00
H100   H     0.90001   0.20262   0.05362   0.00000  Uiso   1.00
H101   H     0.89454   0.25655   0.28256   0.00000  Uiso   1.00
H102   H     0.89788   0.31226   0.26257   0.00000  Uiso   1.00
H103   H     0.63620   0.24556   0.26866   0.00000  Uiso   1.00
H104   H     0.60002   0.20231   0.27959   0.00000  Uiso   1.00
H105   H     0.96836   0.21555   0.09259   0.00000  Uiso   1.00
H106   H     0.97325   0.27410   0.24160   0.00000  Uiso   1.00
H107   H     0.53165   0.21534   0.24068   0.00000  Uiso   1.00
H108   H     0.69383   0.03600   0.11406   0.00000  Uiso   1.00
H109   H     0.79338   0.46423   0.23263   0.00000  Uiso   1.00
H110   H     0.80617   0.03599   0.21928   0.00000  Uiso   1.00
H111   H     0.70663   0.46424   0.10071   0.00000  Uiso   1.00
H112   H     0.60207   0.31255   0.07101   0.00000  Uiso   1.00
N113   N     0.75000   0.12623   0.16667   0.00000  Uiso   1.00
N114   N     0.75000   0.37376   0.16667   0.00000  Uiso   1.00
N115   N     0.61429   0.27940   0.08031   0.00000  Uiso   1.00
N116   N     0.87909   0.21640   0.08073   0.00000  Uiso   1.00
N117   N     0.88567   0.27913   0.25315   0.00000  Uiso   1.00
N118   N     0.62093   0.21616   0.25252   0.00000  Uiso   1.00
O119   O     0.68453   0.28974   0.16667   0.00000  Uiso   1.00
O120   O     0.81547   0.21026   0.16666   0.00000  Uiso   1.00
O121   O     0.81547   0.28974   0.16666   0.00000  Uiso   1.00
O122   O     0.68453   0.21026   0.16667   0.00000  Uiso   1.00
O123   O     0.75000   0.28973   0.09511   0.00000  Uiso   1.00
O124   O     0.75000   0.21027   0.23822   0.00000  Uiso   1.00
O125   O     0.75000   0.28973   0.23822   0.00000  Uiso   1.00
O126   O     0.75000   0.21027   0.09511   0.00000  Uiso   1.00
Zn127  Zn    0.75000   0.30307   0.16667   0.00000  Uiso   1.00
Zn128  Zn    0.75000   0.19693   0.16667   0.00000  Uiso   1.00
Br129  Br    0.17871   0.63286   0.09221   0.00000  Uiso   1.00
Br130  Br    0.31218   0.86798   0.25087   0.00000  Uiso   1.00
Br131  Br    0.32129   0.63285   0.24112   0.00000  Uiso   1.00
Br132  Br    0.18785   0.86800   0.08243   0.00000  Uiso   1.00
C133   C     0.16421   0.74993   0.16648   0.00000  Uiso   1.00
C134   C     0.22558   0.94738   0.13050   0.00000  Uiso   1.00
C135   C     0.24993   0.75000   0.07298   0.00000  Uiso   1.00
C136   C     0.25007   0.75000   0.26035   0.00000  Uiso   1.00
C137   C     0.25000   0.52676   0.16667   0.00000  Uiso   1.00
C138   C     0.25000   0.97346   0.16667   0.00000  Uiso   1.00
C139   C     0.24997   0.75000   0.02183   0.00000  Uiso   1.00
C140   C     0.25003   0.75000   0.31151   0.00000  Uiso   1.00
C141   C     0.04575   0.76201   0.12439   0.00000  Uiso   1.00
C142   C     0.45130   0.72931   0.12476   0.00000  Uiso   1.00
C143   C     0.45423   0.76186   0.20904   0.00000  Uiso   1.00
C144   C     0.33579   0.74992   0.16686   0.00000  Uiso   1.00
C145   C     0.04871   0.72920   0.20856   0.00000  Uiso   1.00
C146   C     0.09204   0.76391   0.12424   0.00000  Uiso   1.00
C147   C     0.40485   0.73167   0.12401   0.00000  Uiso   1.00
C148   C     0.40794   0.76377   0.20918   0.00000  Uiso   1.00
C149   C     0.09515   0.73156   0.20930   0.00000  Uiso   1.00
C150   C     0.11643   0.74930   0.16698   0.00000  Uiso   1.00
C151   C     0.38357   0.74929   0.16637   0.00000  Uiso   1.00
C152   C     0.02419   0.74486   0.16645   0.00000  Uiso   1.00
C153   C     0.47581   0.74485   0.16692   0.00000  Uiso   1.00
C154   C     0.22022   0.60191   0.13671   0.00000  Uiso   1.00
C155   C     0.27486   0.89828   0.20173   0.00000  Uiso   1.00
C156   C     0.27978   0.60191   0.19662   0.00000  Uiso   1.00
C157   C     0.22515   0.89829   0.13161   0.00000  Uiso   1.00
C158   C     0.21922   0.55283   0.13710   0.00000  Uiso   1.00
C159   C     0.27442   0.94737   0.20284   0.00000  Uiso   1.00
C160   C     0.28078   0.55283   0.19625   0.00000  Uiso   1.00
H161   H     0.02672   0.77434   0.09188   0.00000  Uiso   1.00
H162   H     0.10541   0.75690   0.05083   0.00000  Uiso   1.00
H163   H     0.36383   0.74585   0.06467   0.00000  Uiso   1.00
H164   H     0.40001   0.70262   0.05362   0.00000  Uiso   1.00
H165   H     0.39454   0.75655   0.28256   0.00000  Uiso   1.00
H166   H     0.39788   0.81226   0.26257   0.00000  Uiso   1.00
H167   H     0.13620   0.74556   0.26866   0.00000  Uiso   1.00
H168   H     0.10002   0.70231   0.27959   0.00000  Uiso   1.00
H169   H     0.46836   0.71555   0.09259   0.00000  Uiso   1.00
H170   H     0.47325   0.77410   0.24160   0.00000  Uiso   1.00
H171   H     0.03165   0.71534   0.24068   0.00000  Uiso   1.00
H172   H     0.19383   0.53600   0.11406   0.00000  Uiso   1.00
H173   H     0.29338   0.96423   0.23263   0.00000  Uiso   1.00
H174   H     0.30617   0.53599   0.21928   0.00000  Uiso   1.00
H175   H     0.20663   0.96424   0.10071   0.00000  Uiso   1.00
H176   H     0.10207   0.81255   0.07101   0.00000  Uiso   1.00
N177   N     0.25000   0.62623   0.16667   0.00000  Uiso   1.00
N178   N     0.25000   0.87376   0.16667   0.00000  Uiso   1.00
N179   N     0.11429   0.77940   0.08031   0.00000  Uiso   1.00
N180   N     0.37909   0.71640   0.08073   0.00000  Uiso   1.00
N181   N     0.38567   0.77913   0.25315   0.00000  Uiso   1.00
N182   N     0.12093   0.71616   0.25252   0.00000  Uiso   1.00
O183   O     0.18453   0.78974   0.16667   0.00000  Uiso   1.00
O184   O     0.31547   0.71026   0.16666   0.00000  Uiso   1.00
O185   O     0.31547   0.78974   0.16666   0.00000  Uiso   1.00
O186   O     0.18453   0.71026   0.16667   0.00000  Uiso   1.00
O187   O     0.25000   0.78973   0.09511   0.00000  Uiso   1.00
O188   O     0.25000   0.71027   0.23822   0.00000  Uiso   1.00
O189   O     0.25000   0.78973   0.23822   0.00000  Uiso   1.00
O190   O     0.25000   0.71027   0.09511   0.00000  Uiso   1.00
Zn191  Zn    0.25000   0.80307   0.16667   0.00000  Uiso   1.00
Zn192  Zn    0.25000   0.69693   0.16667   0.00000  Uiso   1.00
Br193  Br    0.67871   0.63286   0.09221   0.00000  Uiso   1.00
Br194  Br    0.81218   0.86798   0.25087   0.00000  Uiso   1.00
Br195  Br    0.82129   0.63285   0.24112   0.00000  Uiso   1.00
Br196  Br    0.68785   0.86800   0.08243   0.00000  Uiso   1.00
C197   C     0.66421   0.74993   0.16648   0.00000  Uiso   1.00
C198   C     0.72558   0.94738   0.13050   0.00000  Uiso   1.00
C199   C     0.74993   0.75000   0.07298   0.00000  Uiso   1.00
C200   C     0.75007   0.75000   0.26035   0.00000  Uiso   1.00
C201   C     0.75000   0.52676   0.16667   0.00000  Uiso   1.00
C202   C     0.75000   0.97346   0.16667   0.00000  Uiso   1.00
C203   C     0.74997   0.75000   0.02183   0.00000  Uiso   1.00
C204   C     0.75003   0.75000   0.31151   0.00000  Uiso   1.00
C205   C     0.54575   0.76201   0.12439   0.00000  Uiso   1.00
C206   C     0.95130   0.72931   0.12476   0.00000  Uiso   1.00
C207   C     0.95423   0.76186   0.20904   0.00000  Uiso   1.00
C208   C     0.83579   0.74992   0.16686   0.00000  Uiso   1.00
C209   C     0.54871   0.72920   0.20856   0.00000  Uiso   1.00
C210   C     0.59204   0.76391   0.12424   0.00000  Uiso   1.00
C211   C     0.90485   0.73167   0.12401   0.00000  Uiso   1.00
C212   C     0.90794   0.76377   0.20918   0.00000  Uiso   1.00
C213   C     0.59515   0.73156   0.20930   0.00000  Uiso   1.00
C214   C     0.61643   0.74930   0.16698   0.00000  Uiso   1.00
C215   C     0.88357   0.74929   0.16637   0.00000  Uiso   1.00
C216   C     0.52419   0.74486   0.16645   0.00000  Uiso   1.00
C217   C     0.97581   0.74485   0.16692   0.00000  Uiso   1.00
C218   C     0.72022   0.60191   0.13671   0.00000  Uiso   1.00
C219   C     0.77486   0.89828   0.20173   0.00000  Uiso   1.00
C220   C     0.77978   0.60191   0.19662   0.00000  Uiso   1.00
C221   C     0.72515   0.89829   0.13161   0.00000  Uiso   1.00
C222   C     0.71922   0.55283   0.13710   0.00000  Uiso   1.00
C223   C     0.77442   0.94737   0.20284   0.00000  Uiso   1.00
C224   C     0.78078   0.55283   0.19625   0.00000  Uiso   1.00
H225   H     0.52672   0.77434   0.09188   0.00000  Uiso   1.00
H226   H     0.60541   0.75690   0.05083   0.00000  Uiso   1.00
H227   H     0.86383   0.74585   0.06467   0.00000  Uiso   1.00
H228   H     0.90001   0.70262   0.05362   0.00000  Uiso   1.00
H229   H     0.89454   0.75655   0.28256   0.00000  Uiso   1.00
H230   H     0.89788   0.81226   0.26257   0.00000  Uiso   1.00
H231   H     0.63620   0.74556   0.26866   0.00000  Uiso   1.00
H232   H     0.60002   0.70231   0.27959   0.00000  Uiso   1.00
H233   H     0.96836   0.71555   0.09259   0.00000  Uiso   1.00
H234   H     0.97325   0.77410   0.24160   0.00000  Uiso   1.00
H235   H     0.53165   0.71534   0.24068   0.00000  Uiso   1.00
H236   H     0.69383   0.53600   0.11406   0.00000  Uiso   1.00
H237   H     0.79338   0.96423   0.23263   0.00000  Uiso   1.00
H238   H     0.80617   0.53599   0.21928   0.00000  Uiso   1.00
H239   H     0.70663   0.96424   0.10071   0.00000  Uiso   1.00
H240   H     0.60207   0.81255   0.07101   0.00000  Uiso   1.00
N241   N     0.75000   0.62623   0.16667   0.00000  Uiso   1.00
N242   N     0.75000   0.87376   0.16667   0.00000  Uiso   1.00
N243   N     0.61429   0.77940   0.08031   0.00000  Uiso   1.00
N244   N     0.87909   0.71640   0.08073   0.00000  Uiso   1.00
N245   N     0.88567   0.77913   0.25315   0.00000  Uiso   1.00
N246   N     0.62093   0.71616   0.25252   0.00000  Uiso   1.00
O247   O     0.68453   0.78974   0.16667   0.00000  Uiso   1.00
O248   O     0.81547   0.71026   0.16666   0.00000  Uiso   1.00
O249   O     0.81547   0.78974   0.16666   0.00000  Uiso   1.00
O250   O     0.68453   0.71026   0.16667   0.00000  Uiso   1.00
O251   O     0.75000   0.78973   0.09511   0.00000  Uiso   1.00
O252   O     0.75000   0.71027   0.23822   0.00000  Uiso   1.00
O253   O     0.75000   0.78973   0.23822   0.00000  Uiso   1.00
O254   O     0.75000   0.71027   0.09511   0.00000  Uiso   1.00
Zn255  Zn    0.75000   0.80307   0.16667   0.00000  Uiso   1.00
Zn256  Zn    0.75000   0.69693   0.16667   0.00000  Uiso   1.00
Br257  Br    0.17871   0.13286   0.42554   0.00000  Uiso   1.00
Br258  Br    0.31218   0.36798   0.58421   0.00000  Uiso   1.00
Br259  Br    0.32129   0.13285   0.57446   0.00000  Uiso   1.00
Br260  Br    0.18785   0.36800   0.41576   0.00000  Uiso   1.00
C261   C     0.16421   0.24993   0.49981   0.00000  Uiso   1.00
C262   C     0.22558   0.44738   0.46383   0.00000  Uiso   1.00
C263   C     0.24993   0.25000   0.40631   0.00000  Uiso   1.00
C264   C     0.25007   0.25000   0.59369   0.00000  Uiso   1.00
C265   C     0.25000   0.02676   0.50000   0.00000  Uiso   1.00
C266   C     0.25000   0.47346   0.50000   0.00000  Uiso   1.00
C267   C     0.24997   0.25000   0.35516   0.00000  Uiso   1.00
C268   C     0.25003   0.25000   0.64484   0.00000  Uiso   1.00
C269   C     0.04575   0.26201   0.45772   0.00000  Uiso   1.00
C270   C     0.45130   0.22931   0.45809   0.00000  Uiso   1.00
C271   C     0.45423   0.26186   0.54237   0.00000  Uiso   1.00
C272   C     0.33579   0.24992   0.50019   0.00000  Uiso   1.00
C273   C     0.04871   0.22920   0.54189   0.00000  Uiso   1.00
C274   C     0.09204   0.26391   0.45757   0.00000  Uiso   1.00
C275   C     0.40485   0.23167   0.45734   0.00000  Uiso   1.00
C276   C     0.40794   0.26377   0.54251   0.00000  Uiso   1.00
C277   C     0.09515   0.23156   0.54263   0.00000  Uiso   1.00
C278   C     0.11643   0.24930   0.50031   0.00000  Uiso   1.00
C279   C     0.38357   0.24929   0.49971   0.00000  Uiso   1.00
C280   C     0.02419   0.24486   0.49979   0.00000  Uiso   1.00
C281   C     0.47581   0.24485   0.50026   0.00000  Uiso   1.00
C282   C     0.22022   0.10191   0.47005   0.00000  Uiso   1.00
C283   C     0.27486   0.39828   0.53506   0.00000  Uiso   1.00
C284   C     0.27978   0.10191   0.52996   0.00000  Uiso   1.00
C285   C     0.22515   0.39829   0.46494   0.00000  Uiso   1.00
C286   C     0.21922   0.05283   0.47043   0.00000  Uiso   1.00
C287   C     0.27442   0.44737   0.53617   0.00000  Uiso   1.00
C288   C     0.28078   0.05283   0.52958   0.00000  Uiso   1.00
H289   H     0.02672   0.27434   0.42521   0.00000  Uiso   1.00
H290   H     0.10541   0.25690   0.38416   0.00000  Uiso   1.00
H291   H     0.36383   0.24585   0.39801   0.00000  Uiso   1.00
H292   H     0.40001   0.20262   0.38695   0.00000  Uiso   1.00
H293   H     0.39454   0.25655   0.61589   0.00000  Uiso   1.00
H294   H     0.39788   0.31226   0.59590   0.00000  Uiso   1.00
H295   H     0.13620   0.24556   0.60199   0.00000  Uiso   1.00
H296   H     0.10002   0.20231   0.61293   0.00000  Uiso   1.00
H297   H     0.46836   0.21555   0.42592   0.00000  Uiso   1.00
H298   H     0.47325   0.27410   0.57493   0.00000  Uiso   1.00
H299   H     0.03165   0.21534   0.57402   0.00000  Uiso   1.00
H300   H     0.19383   0.03600   0.44740   0.00000  Uiso   1.00
H301   H     0.29338   0.46423   0.56596   0.00000  Uiso   1.00
H302   H     0.30617   0.03599   0.55261   0.00000  Uiso   1.00
H303   H     0.20663   0.46424   0.43404   0.00000  Uiso   1.00
H304   H     0.10207   0.31255   0.40434   0.00000  Uiso   1.00
N305   N     0.25000   0.12623   0.50000   0.00000  Uiso   1.00
N306   N     0.25000   0.37376   0.50000   0.00000  Uiso   1.00
N307   N     0.11429   0.27940   0.41364   0.00000  Uiso   1.00
N308   N     0.37909   0.21640   0.41406   0.00000  Uiso   1.00
N309   N     0.38567   0.27913   0.58648   0.00000  Uiso   1.00
N310   N     0.12093   0.21616   0.58585   0.00000  Uiso   1.00
O311   O     0.18453   0.28974   0.50000   0.00000  Uiso   1.00
O312   O     0.31547   0.21026   0.50000   0.00000  Uiso   1.00
O313   O     0.31547   0.28974   0.50000   0.00000  Uiso   1.00
O314   O     0.18453   0.21026   0.50000   0.00000  Uiso   1.00
O315   O     0.25000   0.28973   0.42845   0.00000  Uiso   1.00
O316   O     0.25000   0.21027   0.57155   0.00000  Uiso   1.00
O317   O     0.25000   0.28973   0.57155   0.00000  Uiso   1.00
O318   O     0.25000   0.21027   0.42845   0.00000  Uiso   1.00
Zn319  Zn    0.25000   0.30307   0.50000   0.00000  Uiso   1.00
Zn320  Zn    0.25000   0.19693   0.50000   0.00000  Uiso   1.00
Br321  Br    0.67871   0.13286   0.42554   0.00000  Uiso   1.00
Br322  Br    0.81218   0.36798   0.58421   0.00000  Uiso   1.00
Br323  Br    0.82129   0.13285   0.57446   0.00000  Uiso   1.00
Br324  Br    0.68785   0.36800   0.41576   0.00000  Uiso   1.00
C325   C     0.66421   0.24993   0.49981   0.00000  Uiso   1.00
C326   C     0.72558   0.44738   0.46383   0.00000  Uiso   1.00
C327   C     0.74993   0.25000   0.40631   0.00000  Uiso   1.00
C328   C     0.75007   0.25000   0.59369   0.00000  Uiso   1.00
C329   C     0.75000   0.02676   0.50000   0.00000  Uiso   1.00
C330   C     0.75000   0.47346   0.50000   0.00000  Uiso   1.00
C331   C     0.74997   0.25000   0.35516   0.00000  Uiso   1.00
C332   C     0.75003   0.25000   0.64484   0.00000  Uiso   1.00
C333   C     0.54575   0.26201   0.45772   0.00000  Uiso   1.00
C334   C     0.95130   0.22931   0.45809   0.00000  Uiso   1.00
C335   C     0.95423   0.26186   0.54237   0.00000  Uiso   1.00
C336   C     0.83579   0.24992   0.50019   0.00000  Uiso   1.00
C337   C     0.54871   0.22920   0.54189   0.00000  Uiso   1.00
C338   C     0.59204   0.26391   0.45757   0.00000  Uiso   1.00
C339   C     0.90485   0.23167   0.45734   0.00000  Uiso   1.00
C340   C     0.90794   0.26377   0.54251   0.00000  Uiso   1.00
C341   C     0.59515   0.23156   0.54263   0.00000  Uiso   1.00
C342   C     0.61643   0.24930   0.50031   0.00000  Uiso   1.00
C343   C     0.88357   0.24929   0.49971   0.00000  Uiso   1.00
C344   C     0.52419   0.24486   0.49979   0.00000  Uiso   1.00
C345   C     0.97581   0.24485   0.50026   0.00000  Uiso   1.00
C346   C     0.72022   0.10191   0.47005   0.00000  Uiso   1.00
C347   C     0.77486   0.39828   0.53506   0.00000  Uiso   1.00
C348   C     0.77978   0.10191   0.52996   0.00000  Uiso   1.00
C349   C     0.72515   0.39829   0.46494   0.00000  Uiso   1.00
C350   C     0.71922   0.05283   0.47043   0.00000  Uiso   1.00
C351   C     0.77442   0.44737   0.53617   0.00000  Uiso   1.00
C352   C     0.78078   0.05283   0.52958   0.00000  Uiso   1.00
H353   H     0.52672   0.27434   0.42521   0.00000  Uiso   1.00
H354   H     0.60541   0.25690   0.38416   0.00000  Uiso   1.00
H355   H     0.86383   0.24585   0.39801   0.00000  Uiso   1.00
H356   H     0.90001   0.20262   0.38695   0.00000  Uiso   1.00
H357   H     0.89454   0.25655   0.61589   0.00000  Uiso   1.00
H358   H     0.89788   0.31226   0.59590   0.00000  Uiso   1.00
H359   H     0.63620   0.24556   0.60199   0.00000  Uiso   1.00
H360   H     0.60002   0.20231   0.61293   0.00000  Uiso   1.00
H361   H     0.96836   0.21555   0.42592   0.00000  Uiso   1.00
H362   H     0.97325   0.27410   0.57493   0.00000  Uiso   1.00
H363   H     0.53165   0.21534   0.57402   0.00000  Uiso   1.00
H364   H     0.69383   0.03600   0.44740   0.00000  Uiso   1.00
H365   H     0.79338   0.46423   0.56596   0.00000  Uiso   1.00
H366   H     0.80617   0.03599   0.55261   0.00000  Uiso   1.00
H367   H     0.70663   0.46424   0.43404   0.00000  Uiso   1.00
H368   H     0.60207   0.31255   0.40434   0.00000  Uiso   1.00
N369   N     0.75000   0.12623   0.50000   0.00000  Uiso   1.00
N370   N     0.75000   0.37376   0.50000   0.00000  Uiso   1.00
N371   N     0.61429   0.27940   0.41364   0.00000  Uiso   1.00
N372   N     0.87909   0.21640   0.41406   0.00000  Uiso   1.00
N373   N     0.88567   0.27913   0.58648   0.00000  Uiso   1.00
N374   N     0.62093   0.21616   0.58585   0.00000  Uiso   1.00
O375   O     0.68453   0.28974   0.50000   0.00000  Uiso   1.00
O376   O     0.81547   0.21026   0.50000   0.00000  Uiso   1.00
O377   O     0.81547   0.28974   0.50000   0.00000  Uiso   1.00
O378   O     0.68453   0.21026   0.50000   0.00000  Uiso   1.00
O379   O     0.75000   0.28973   0.42845   0.00000  Uiso   1.00
O380   O     0.75000   0.21027   0.57155   0.00000  Uiso   1.00
O381   O     0.75000   0.28973   0.57155   0.00000  Uiso   1.00
O382   O     0.75000   0.21027   0.42845   0.00000  Uiso   1.00
Zn383  Zn    0.75000   0.30307   0.50000   0.00000  Uiso   1.00
Zn384  Zn    0.75000   0.19693   0.50000   0.00000  Uiso   1.00
Br385  Br    0.17871   0.63286   0.42554   0.00000  Uiso   1.00
Br386  Br    0.31218   0.86798   0.58421   0.00000  Uiso   1.00
Br387  Br    0.32129   0.63285   0.57446   0.00000  Uiso   1.00
Br388  Br    0.18785   0.86800   0.41576   0.00000  Uiso   1.00
C389   C     0.16421   0.74993   0.49981   0.00000  Uiso   1.00
C390   C     0.22558   0.94738   0.46383   0.00000  Uiso   1.00
C391   C     0.24993   0.75000   0.40631   0.00000  Uiso   1.00
C392   C     0.25007   0.75000   0.59369   0.00000  Uiso   1.00
C393   C     0.25000   0.52676   0.50000   0.00000  Uiso   1.00
C394   C     0.25000   0.97346   0.50000   0.00000  Uiso   1.00
C395   C     0.24997   0.75000   0.35516   0.00000  Uiso   1.00
C396   C     0.25003   0.75000   0.64484   0.00000  Uiso   1.00
C397   C     0.04575   0.76201   0.45772   0.00000  Uiso   1.00
C398   C     0.45130   0.72931   0.45809   0.00000  Uiso   1.00
C399   C     0.45423   0.76186   0.54237   0.00000  Uiso   1.00
C400   C     0.33579   0.74992   0.50019   0.00000  Uiso   1.00
C401   C     0.04871   0.72920   0.54189   0.00000  Uiso   1.00
C402   C     0.09204   0.76391   0.45757   0.00000  Uiso   1.00
C403   C     0.40485   0.73167   0.45734   0.00000  Uiso   1.00
C404   C     0.40794   0.76377   0.54251   0.00000  Uiso   1.00
C405   C     0.09515   0.73156   0.54263   0.00000  Uiso   1.00
C406   C     0.11643   0.74930   0.50031   0.00000  Uiso   1.00
C407   C     0.38357   0.74929   0.49971   0.00000  Uiso   1.00
C408   C     0.02419   0.74486   0.49979   0.00000  Uiso   1.00
C409   C     0.47581   0.74485   0.50026   0.00000  Uiso   1.00
C410   C     0.22022   0.60191   0.47005   0.00000  Uiso   1.00
C411   C     0.27486   0.89828   0.53506   0.00000  Uiso   1.00
C412   C     0.27978   0.60191   0.52996   0.00000  Uiso   1.00
C413   C     0.22515   0.89829   0.46494   0.00000  Uiso   1.00
C414   C     0.21922   0.55283   0.47043   0.00000  Uiso   1.00
C415   C     0.27442   0.94737   0.53617   0.00000  Uiso   1.00
C416   C     0.28078   0.55283   0.52958   0.00000  Uiso   1.00
H417   H     0.02672   0.77434   0.42521   0.00000  Uiso   1.00
H418   H     0.10541   0.75690   0.38416   0.00000  Uiso   1.00
H419   H     0.36383   0.74585   0.39801   0.00000  Uiso   1.00
H420   H     0.40001   0.70262   0.38695   0.00000  Uiso   1.00
H421   H     0.39454   0.75655   0.61589   0.00000  Uiso   1.00
H422   H     0.39788   0.81226   0.59590   0.00000  Uiso   1.00
H423   H     0.13620   0.74556   0.60199   0.00000  Uiso   1.00
H424   H     0.10002   0.70231   0.61293   0.00000  Uiso   1.00
H425   H     0.46836   0.71555   0.42592   0.00000  Uiso   1.00
H426   H     0.47325   0.77410   0.57493   0.00000  Uiso   1.00
H427   H     0.03165   0.71534   0.57402   0.00000  Uiso   1.00
H428   H     0.19383   0.53600   0.44740   0.00000  Uiso   1.00
H429   H     0.29338   0.96423   0.56596   0.00000  Uiso   1.00
H430   H     0.30617   0.53599   0.55261   0.00000  Uiso   1.00
H431   H     0.20663   0.96424   0.43404   0.00000  Uiso   1.00
H432   H     0.10207   0.81255   0.40434   0.00000  Uiso   1.00
N433   N     0.25000   0.62623   0.50000   0.00000  Uiso   1.00
N434   N     0.25000   0.87376   0.50000   0.00000  Uiso   1.00
N435   N     0.11429   0.77940   0.41364   0.00000  Uiso   1.00
N436   N     0.37909   0.71640   0.41406   0.00000  Uiso   1.00
N437   N     0.38567   0.77913   0.58648   0.00000  Uiso   1.00
N438   N     0.12093   0.71616   0.58585   0.00000  Uiso   1.00
O439   O     0.18453   0.78974   0.50000   0.00000  Uiso   1.00
O440   O     0.31547   0.71026   0.50000   0.00000  Uiso   1.00
O441   O     0.31547   0.78974   0.50000   0.00000  Uiso   1.00
O442   O     0.18453   0.71026   0.50000   0.00000  Uiso   1.00
O443   O     0.25000   0.78973   0.42845   0.00000  Uiso   1.00
O444   O     0.25000   0.71027   0.57155   0.00000  Uiso   1.00
O445   O     0.25000   0.78973   0.57155   0.00000  Uiso   1.00
O446   O     0.25000   0.71027   0.42845   0.00000  Uiso   1.00
Zn447  Zn    0.25000   0.80307   0.50000   0.00000  Uiso   1.00
Zn448  Zn    0.25000   0.69693   0.50000   0.00000  Uiso   1.00
Br449  Br    0.67871   0.63286   0.42554   0.00000  Uiso   1.00
Br450  Br    0.81218   0.86798   0.58421   0.00000  Uiso   1.00
Br451  Br    0.82129   0.63285   0.57446   0.00000  Uiso   1.00
Br452  Br    0.68785   0.86800   0.41576   0.00000  Uiso   1.00
C453   C     0.66421   0.74993   0.49981   0.00000  Uiso   1.00
C454   C     0.72558   0.94738   0.46383   0.00000  Uiso   1.00
C455   C     0.74993   0.75000   0.40631   0.00000  Uiso   1.00
C456   C     0.75007   0.75000   0.59369   0.00000  Uiso   1.00
C457   C     0.75000   0.52676   0.50000   0.00000  Uiso   1.00
C458   C     0.75000   0.97346   0.50000   0.00000  Uiso   1.00
C459   C     0.74997   0.75000   0.35516   0.00000  Uiso   1.00
C460   C     0.75003   0.75000   0.64484   0.00000  Uiso   1.00
C461   C     0.54575   0.76201   0.45772   0.00000  Uiso   1.00
C462   C     0.95130   0.72931   0.45809   0.00000  Uiso   1.00
C463   C     0.95423   0.76186   0.54237   0.00000  Uiso   1.00
C464   C     0.83579   0.74992   0.50019   0.00000  Uiso   1.00
C465   C     0.54871   0.72920   0.54189   0.00000  Uiso   1.00
C466   C     0.59204   0.76391   0.45757   0.00000  Uiso   1.00
C467   C     0.90485   0.73167   0.45734   0.00000  Uiso   1.00
C468   C     0.90794   0.76377   0.54251   0.00000  Uiso   1.00
C469   C     0.59515   0.73156   0.54263   0.00000  Uiso   1.00
C470   C     0.61643   0.74930   0.50031   0.00000  Uiso   1.00
C471   C     0.88357   0.74929   0.49971   0.00000  Uiso   1.00
C472   C     0.52419   0.74486   0.49979   0.00000  Uiso   1.00
C473   C     0.97581   0.74485   0.50026   0.00000  Uiso   1.00
C474   C     0.72022   0.60191   0.47005   0.00000  Uiso   1.00
C475   C     0.77486   0.89828   0.53506   0.00000  Uiso   1.00
C476   C     0.77978   0.60191   0.52996   0.00000  Uiso   1.00
C477   C     0.72515   0.89829   0.46494   0.00000  Uiso   1.00
C478   C     0.71922   0.55283   0.47043   0.00000  Uiso   1.00
C479   C     0.77442   0.94737   0.53617   0.00000  Uiso   1.00
C480   C     0.78078   0.55283   0.52958   0.00000  Uiso   1.00
H481   H     0.52672   0.77434   0.42521   0.00000  Uiso   1.00
H482   H     0.60541   0.75690   0.38416   0.00000  Uiso   1.00
H483   H     0.86383   0.74585   0.39801   0.00000  Uiso   1.00
H484   H     0.90001   0.70262   0.38695   0.00000  Uiso   1.00
H485   H     0.89454   0.75655   0.61589   0.00000  Uiso   1.00
H486   H     0.89788   0.81226   0.59590   0.00000  Uiso   1.00
H487   H     0.63620   0.74556   0.60199   0.00000  Uiso   1.00
H488   H     0.60002   0.70231   0.61293   0.00000  Uiso   1.00
H489   H     0.96836   0.71555   0.42592   0.00000  Uiso   1.00
H490   H     0.97325   0.77410   0.57493   0.00000  Uiso   1.00
H491   H     0.53165   0.71534   0.57402   0.00000  Uiso   1.00
H492   H     0.69383   0.53600   0.44740   0.00000  Uiso   1.00
H493   H     0.79338   0.96423   0.56596   0.00000  Uiso   1.00
H494   H     0.80617   0.53599   0.55261   0.00000  Uiso   1.00
H495   H     0.70663   0.96424   0.43404   0.00000  Uiso   1.00
H496   H     0.60207   0.81255   0.40434   0.00000  Uiso   1.00
N497   N     0.75000   0.62623   0.50000   0.00000  Uiso   1.00
N498   N     0.75000   0.87376   0.50000   0.00000  Uiso   1.00
N499   N     0.61429   0.77940   0.41364   0.00000  Uiso   1.00
N500   N     0.87909   0.71640   0.41406   0.00000  Uiso   1.00
N501   N     0.88567   0.77913   0.58648   0.00000  Uiso   1.00
N502   N     0.62093   0.71616   0.58585   0.00000  Uiso   1.00
O503   O     0.68453   0.78974   0.50000   0.00000  Uiso   1.00
O504   O     0.81547   0.71026   0.50000   0.00000  Uiso   1.00
O505   O     0.81547   0.78974   0.50000   0.00000  Uiso   1.00
O506   O     0.68453   0.71026   0.50000   0.00000  Uiso   1.00
O507   O     0.75000   0.78973   0.42845   0.00000  Uiso   1.00
O508   O     0.75000   0.71027   0.57155   0.00000  Uiso   1.00
O509   O     0.75000   0.78973   0.57155   0.00000  Uiso   1.00
O510   O     0.75000   0.71027   0.42845   0.00000  Uiso   1.00
Zn511  Zn    0.75000   0.80307   0.50000   0.00000  Uiso   1.00
Zn512  Zn    0.75000   0.69693   0.50000   0.00000  Uiso   1.00
Br513  Br    0.17871   0.13286   0.75887   0.00000  Uiso   1.00
Br514  Br    0.31218   0.36798   0.91754   0.00000  Uiso   1.00
Br515  Br    0.32129   0.13285   0.90779   0.00000  Uiso   1.00
Br516  Br    0.18785   0.36800   0.74909   0.00000  Uiso   1.00
C517   C     0.16421   0.24993   0.83315   0.00000  Uiso   1.00
C518   C     0.22558   0.44738   0.79717   0.00000  Uiso   1.00
C519   C     0.24993   0.25000   0.73965   0.00000  Uiso   1.00
C520   C     0.25007   0.25000   0.92702   0.00000  Uiso   1.00
C521   C     0.25000   0.02676   0.83334   0.00000  Uiso   1.00
C522   C     0.25000   0.47346   0.83334   0.00000  Uiso   1.00
C523   C     0.24997   0.25000   0.68849   0.00000  Uiso   1.00
C524   C     0.25003   0.25000   0.97817   0.00000  Uiso   1.00
C525   C     0.04575   0.26201   0.79106   0.00000  Uiso   1.00
C526   C     0.45130   0.22931   0.79142   0.00000  Uiso   1.00
C527   C     0.45423   0.26186   0.87571   0.00000  Uiso   1.00
C528   C     0.33579   0.24992   0.83352   0.00000  Uiso   1.00
C529   C     0.04871   0.22920   0.87522   0.00000  Uiso   1.00
C530   C     0.09204   0.26391   0.79090   0.00000  Uiso   1.00
C531   C     0.40485   0.23167   0.79067   0.00000  Uiso   1.00
C532   C     0.40794   0.26377   0.87585   0.00000  Uiso   1.00
C533   C     0.09515   0.23156   0.87597   0.00000  Uiso   1.00
C534   C     0.11643   0.24930   0.83365   0.00000  Uiso   1.00
C535   C     0.38357   0.24929   0.83304   0.00000  Uiso   1.00
C536   C     0.02419   0.24486   0.83312   0.00000  Uiso   1.00
C537   C     0.47581   0.24485   0.83359   0.00000  Uiso   1.00
C538   C     0.22022   0.10191   0.80338   0.00000  Uiso   1.00
C539   C     0.27486   0.39828   0.86839   0.00000  Uiso   1.00
C540   C     0.27978   0.10191   0.86329   0.00000  Uiso   1.00
C541   C     0.22515   0.39829   0.79827   0.00000  Uiso   1.00
C542   C     0.21922   0.05283   0.80376   0.00000  Uiso   1.00
C543   C     0.27442   0.44737   0.86950   0.00000  Uiso   1.00
C544   C     0.28078   0.05283   0.86291   0.00000  Uiso   1.00
H545   H     0.02672   0.27434   0.75855   0.00000  Uiso   1.00
H546   H     0.10541   0.25690   0.71749   0.00000  Uiso   1.00
H547   H     0.36383   0.24585   0.73134   0.00000  Uiso   1.00
H548   H     0.40001   0.20262   0.72029   0.00000  Uiso   1.00
H549   H     0.39454   0.25655   0.94923   0.00000  Uiso   1.00
H550   H     0.39788   0.31226   0.92924   0.00000  Uiso   1.00
H551   H     0.13620   0.24556   0.93533   0.00000  Uiso   1.00
H552   H     0.10002   0.20231   0.94626   0.00000  Uiso   1.00
H553   H     0.46836   0.21555   0.75926   0.00000  Uiso   1.00
H554   H     0.47325   0.27410   0.90827   0.00000  Uiso   1.00
H555   H     0.03165   0.21534   0.90735   0.00000  Uiso   1.00
H556   H     0.19383   0.03600   0.78073   0.00000  Uiso   1.00
H557   H     0.29338   0.46423   0.89929   0.00000  Uiso   1.00
H558   H     0.30617   0.03599   0.88595   0.00000  Uiso   1.00
H559   H     0.20663   0.46424   0.76737   0.00000  Uiso   1.00
H560   H     0.10207   0.31255   0.73767   0.00000  Uiso   1.00
N561   N     0.25000   0.12623   0.83333   0.00000  Uiso   1.00
N562   N     0.25000   0.37376   0.83333   0.00000  Uiso   1.00
N563   N     0.11429   0.27940   0.74697   0.00000  Uiso   1.00
N564   N     0.37909   0.21640   0.74740   0.00000  Uiso   1.00
N565   N     0.38567   0.27913   0.91982   0.00000  Uiso   1.00
N566   N     0.12093   0.21616   0.91918   0.00000  Uiso   1.00
O567   O     0.18453   0.28974   0.83334   0.00000  Uiso   1.00
O568   O     0.31547   0.21026   0.83333   0.00000  Uiso   1.00
O569   O     0.31547   0.28974   0.83333   0.00000  Uiso   1.00
O570   O     0.18453   0.21026   0.83334   0.00000  Uiso   1.00
O571   O     0.25000   0.28973   0.76178   0.00000  Uiso   1.00
O572   O     0.25000   0.21027   0.90489   0.00000  Uiso   1.00
O573   O     0.25000   0.28973   0.90489   0.00000  Uiso   1.00
O574   O     0.25000   0.21027   0.76178   0.00000  Uiso   1.00
Zn575  Zn    0.25000   0.30307   0.83333   0.00000  Uiso   1.00
Zn576  Zn    0.25000   0.19693   0.83333   0.00000  Uiso   1.00
Br577  Br    0.67871   0.13286   0.75887   0.00000  Uiso   1.00
Br578  Br    0.81218   0.36798   0.91754   0.00000  Uiso   1.00
Br579  Br    0.82129   0.13285   0.90779   0.00000  Uiso   1.00
Br580  Br    0.68785   0.36800   0.74909   0.00000  Uiso   1.00
C581   C     0.66421   0.24993   0.83315   0.00000  Uiso   1.00
C582   C     0.72558   0.44738   0.79717   0.00000  Uiso   1.00
C583   C     0.74993   0.25000   0.73965   0.00000  Uiso   1.00
C584   C     0.75007   0.25000   0.92702   0.00000  Uiso   1.00
C585   C     0.75000   0.02676   0.83334   0.00000  Uiso   1.00
C586   C     0.75000   0.47346   0.83334   0.00000  Uiso   1.00
C587   C     0.74997   0.25000   0.68849   0.00000  Uiso   1.00
C588   C     0.75003   0.25000   0.97817   0.00000  Uiso   1.00
C589   C     0.54575   0.26201   0.79106   0.00000  Uiso   1.00
C590   C     0.95130   0.22931   0.79142   0.00000  Uiso   1.00
C591   C     0.95423   0.26186   0.87571   0.00000  Uiso   1.00
C592   C     0.83579   0.24992   0.83352   0.00000  Uiso   1.00
C593   C     0.54871   0.22920   0.87522   0.00000  Uiso   1.00
C594   C     0.59204   0.26391   0.79090   0.00000  Uiso   1.00
C595   C     0.90485   0.23167   0.79067   0.00000  Uiso   1.00
C596   C     0.90794   0.26377   0.87585   0.00000  Uiso   1.00
C597   C     0.59515   0.23156   0.87597   0.00000  Uiso   1.00
C598   C     0.61643   0.24930   0.83365   0.00000  Uiso   1.00
C599   C     0.88357   0.24929   0.83304   0.00000  Uiso   1.00
C600   C     0.52419   0.24486   0.83312   0.00000  Uiso   1.00
C601   C     0.97581   0.24485   0.83359   0.00000  Uiso   1.00
C602   C     0.72022   0.10191   0.80338   0.00000  Uiso   1.00
C603   C     0.77486   0.39828   0.86839   0.00000  Uiso   1.00
C604   C     0.77978   0.10191   0.86329   0.00000  Uiso   1.00
C605   C     0.72515   0.39829   0.79827   0.00000  Uiso   1.00
C606   C     0.71922   0.05283   0.80376   0.00000  Uiso   1.00
C607   C     0.77442   0.44737   0.86950   0.00000  Uiso   1.00
C608   C     0.78078   0.05283   0.86291   0.00000  Uiso   1.00
H609   H     0.52672   0.27434   0.75855   0.00000  Uiso   1.00
H610   H     0.60541   0.25690   0.71749   0.00000  Uiso   1.00
H611   H     0.86383   0.24585   0.73134   0.00000  Uiso   1.00
H612   H     0.90001   0.20262   0.72029   0.00000  Uiso   1.00
H613   H     0.89454   0.25655   0.94923   0.00000  Uiso   1.00
H614   H     0.89788   0.31226   0.92924   0.00000  Uiso   1.00
H615   H     0.63620   0.24556   0.93533   0.00000  Uiso   1.00
H616   H     0.60002   0.20231   0.94626   0.00000  Uiso   1.00
H617   H     0.96836   0.21555   0.75926   0.00000  Uiso   1.00
H618   H     0.97325   0.27410   0.90827   0.00000  Uiso   1.00
H619   H     0.53165   0.21534   0.90735   0.00000  Uiso   1.00
H620   H     0.69383   0.03600   0.78073   0.00000  Uiso   1.00
H621   H     0.79338   0.46423   0.89929   0.00000  Uiso   1.00
H622   H     0.80617   0.03599   0.88595   0.00000  Uiso   1.00
H623   H     0.70663   0.46424   0.76737   0.00000  Uiso   1.00
H624   H     0.60207   0.31255   0.73767   0.00000  Uiso   1.00
N625   N     0.75000   0.12623   0.83333   0.00000  Uiso   1.00
N626   N     0.75000   0.37376   0.83333   0.00000  Uiso   1.00
N627   N     0.61429   0.27940   0.74697   0.00000  Uiso   1.00
N628   N     0.87909   0.21640   0.74740   0.00000  Uiso   1.00
N629   N     0.88567   0.27913   0.91982   0.00000  Uiso   1.00
N630   N     0.62093   0.21616   0.91918   0.00000  Uiso   1.00
O631   O     0.68453   0.28974   0.83334   0.00000  Uiso   1.00
O632   O     0.81547   0.21026   0.83333   0.00000  Uiso   1.00
O633   O     0.81547   0.28974   0.83333   0.00000  Uiso   1.00
O634   O     0.68453   0.21026   0.83334   0.00000  Uiso   1.00
O635   O     0.75000   0.28973   0.76178   0.00000  Uiso   1.00
O636   O     0.75000   0.21027   0.90489   0.00000  Uiso   1.00
O637   O     0.75000   0.28973   0.90489   0.00000  Uiso   1.00
O638   O     0.75000   0.21027   0.76178   0.00000  Uiso   1.00
Zn639  Zn    0.75000   0.30307   0.83333   0.00000  Uiso   1.00
Zn640  Zn    0.75000   0.19693   0.83333   0.00000  Uiso   1.00
Br641  Br    0.17871   0.63286   0.75887   0.00000  Uiso   1.00
Br642  Br    0.31218   0.86798   0.91754   0.00000  Uiso   1.00
Br643  Br    0.32129   0.63285   0.90779   0.00000  Uiso   1.00
Br644  Br    0.18785   0.86800   0.74909   0.00000  Uiso   1.00
C645   C     0.16421   0.74993   0.83315   0.00000  Uiso   1.00
C646   C     0.22558   0.94738   0.79717   0.00000  Uiso   1.00
C647   C     0.24993   0.75000   0.73965   0.00000  Uiso   1.00
C648   C     0.25007   0.75000   0.92702   0.00000  Uiso   1.00
C649   C     0.25000   0.52676   0.83334   0.00000  Uiso   1.00
C650   C     0.25000   0.97346   0.83334   0.00000  Uiso   1.00
C651   C     0.24997   0.75000   0.68849   0.00000  Uiso   1.00
C652   C     0.25003   0.75000   0.97817   0.00000  Uiso   1.00
C653   C     0.04575   0.76201   0.79106   0.00000  Uiso   1.00
C654   C     0.45130   0.72931   0.79142   0.00000  Uiso   1.00
C655   C     0.45423   0.76186   0.87571   0.00000  Uiso   1.00
C656   C     0.33579   0.74992   0.83352   0.00000  Uiso   1.00
C657   C     0.04871   0.72920   0.87522   0.00000  Uiso   1.00
C658   C     0.09204   0.76391   0.79090   0.00000  Uiso   1.00
C659   C     0.40485   0.73167   0.79067   0.00000  Uiso   1.00
C660   C     0.40794   0.76377   0.87585   0.00000  Uiso   1.00
C661   C     0.09515   0.73156   0.87597   0.00000  Uiso   1.00
C662   C     0.11643   0.74930   0.83365   0.00000  Uiso   1.00
C663   C     0.38357   0.74929   0.83304   0.00000  Uiso   1.00
C664   C     0.02419   0.74486   0.83312   0.00000  Uiso   1.00
C665   C     0.47581   0.74485   0.83359   0.00000  Uiso   1.00
C666   C     0.22022   0.60191   0.80338   0.00000  Uiso   1.00
C667   C     0.27486   0.89828   0.86839   0.00000  Uiso   1.00
C668   C     0.27978   0.60191   0.86329   0.00000  Uiso   1.00
C669   C     0.22515   0.89829   0.79827   0.00000  Uiso   1.00
C670   C     0.21922   0.55283   0.80376   0.00000  Uiso   1.00
C671   C     0.27442   0.94737   0.86950   0.00000  Uiso   1.00
C672   C     0.28078   0.55283   0.86291   0.00000  Uiso   1.00
H673   H     0.02672   0.77434   0.75855   0.00000  Uiso   1.00
H674   H     0.10541   0.75690   0.71749   0.00000  Uiso   1.00
H675   H     0.36383   0.74585   0.73134   0.00000  Uiso   1.00
H676   H     0.40001   0.70262   0.72029   0.00000  Uiso   1.00
H677   H     0.39454   0.75655   0.94923   0.00000  Uiso   1.00
H678   H     0.39788   0.81226   0.92924   0.00000  Uiso   1.00
H679   H     0.13620   0.74556   0.93533   0.00000  Uiso   1.00
H680   H     0.10002   0.70231   0.94626   0.00000  Uiso   1.00
H681   H     0.46836   0.71555   0.75926   0.00000  Uiso   1.00
H682   H     0.47325   0.77410   0.90827   0.00000  Uiso   1.00
H683   H     0.03165   0.71534   0.90735   0.00000  Uiso   1.00
H684   H     0.19383   0.53600   0.78073   0.00000  Uiso   1.00
H685   H     0.29338   0.96423   0.89929   0.00000  Uiso   1.00
H686   H     0.30617   0.53599   0.88595   0.00000  Uiso   1.00
H687   H     0.20663   0.96424   0.76737   0.00000  Uiso   1.00
H688   H     0.10207   0.81255   0.73767   0.00000  Uiso   1.00
N689   N     0.25000   0.62623   0.83333   0.00000  Uiso   1.00
N690   N     0.25000   0.87376   0.83333   0.00000  Uiso   1.00
N691   N     0.11429   0.77940   0.74697   0.00000  Uiso   1.00
N692   N     0.37909   0.71640   0.74740   0.00000  Uiso   1.00
N693   N     0.38567   0.77913   0.91982   0.00000  Uiso   1.00
N694   N     0.12093   0.71616   0.91918   0.00000  Uiso   1.00
O695   O     0.18453   0.78974   0.83334   0.00000  Uiso   1.00
O696   O     0.31547   0.71026   0.83333   0.00000  Uiso   1.00
O697   O     0.31547   0.78974   0.83333   0.00000  Uiso   1.00
O698   O     0.18453   0.71026   0.83334   0.00000  Uiso   1.00
O699   O     0.25000   0.78973   0.76178   0.00000  Uiso   1.00
O700   O     0.25000   0.71027   0.90489   0.00000  Uiso   1.00
O701   O     0.25000   0.78973   0.90489   0.00000  Uiso   1.00
O702   O     0.25000   0.71027   0.76178   0.00000  Uiso   1.00
Zn703  Zn    0.25000   0.80307   0.83333   0.00000  Uiso   1.00
Zn704  Zn    0.25000   0.69693   0.83333   0.00000  Uiso   1.00
Br705  Br    0.67871   0.63286   0.75887   0.00000  Uiso   1.00
Br706  Br    0.81218   0.86798   0.91754   0.00000  Uiso   1.00
Br707  Br    0.82129   0.63285   0.90779   0.00000  Uiso   1.00
Br708  Br    0.68785   0.86800   0.74909   0.00000  Uiso   1.00
C709   C     0.66421   0.74993   0.83315   0.00000  Uiso   1.00
C710   C     0.72558   0.94738   0.79717   0.00000  Uiso   1.00
C711   C     0.74993   0.75000   0.73965   0.00000  Uiso   1.00
C712   C     0.75007   0.75000   0.92702   0.00000  Uiso   1.00
C713   C     0.75000   0.52676   0.83334   0.00000  Uiso   1.00
C714   C     0.75000   0.97346   0.83334   0.00000  Uiso   1.00
C715   C     0.74997   0.75000   0.68849   0.00000  Uiso   1.00
C716   C     0.75003   0.75000   0.97817   0.00000  Uiso   1.00
C717   C     0.54575   0.76201   0.79106   0.00000  Uiso   1.00
C718   C     0.95130   0.72931   0.79142   0.00000  Uiso   1.00
C719   C     0.95423   0.76186   0.87571   0.00000  Uiso   1.00
C720   C     0.83579   0.74992   0.83352   0.00000  Uiso   1.00
C721   C     0.54871   0.72920   0.87522   0.00000  Uiso   1.00
C722   C     0.59204   0.76391   0.79090   0.00000  Uiso   1.00
C723   C     0.90485   0.73167   0.79067   0.00000  Uiso   1.00
C724   C     0.90794   0.76377   0.87585   0.00000  Uiso   1.00
C725   C     0.59515   0.73156   0.87597   0.00000  Uiso   1.00
C726   C     0.61643   0.74930   0.83365   0.00000  Uiso   1.00
C727   C     0.88357   0.74929   0.83304   0.00000  Uiso   1.00
C728   C     0.52419   0.74486   0.83312   0.00000  Uiso   1.00
C729   C     0.97581   0.74485   0.83359   0.00000  Uiso   1.00
C730   C     0.72022   0.60191   0.80338   0.00000  Uiso   1.00
C731   C     0.77486   0.89828   0.86839   0.00000  Uiso   1.00
C732   C     0.77978   0.60191   0.86329   0.00000  Uiso   1.00
C733   C     0.72515   0.89829   0.79827   0.00000  Uiso   1.00
C734   C     0.71922   0.55283   0.80376   0.00000  Uiso   1.00
C735   C     0.77442   0.94737   0.86950   0.00000  Uiso   1.00
C736   C     0.78078   0.55283   0.86291   0.00000  Uiso   1.00
H737   H     0.52672   0.77434   0.75855   0.00000  Uiso   1.00
H738   H     0.60541   0.75690   0.71749   0.00000  Uiso   1.00
H739   H     0.86383   0.74585   0.73134   0.00000  Uiso   1.00
H740   H     0.90001   0.70262   0.72029   0.00000  Uiso   1.00
H741   H     0.89454   0.75655   0.94923   0.00000  Uiso   1.00
H742   H     0.89788   0.81226   0.92924   0.00000  Uiso   1.00
H743   H     0.63620   0.74556   0.93533   0.00000  Uiso   1.00
H744   H     0.60002   0.70231   0.94626   0.00000  Uiso   1.00
H745   H     0.96836   0.71555   0.75926   0.00000  Uiso   1.00
H746   H     0.97325   0.77410   0.90827   0.00000  Uiso   1.00
H747   H     0.53165   0.71534   0.90735   0.00000  Uiso   1.00
H748   H     0.69383   0.53600   0.78073   0.00000  Uiso   1.00
H749   H     0.79338   0.96423   0.89929   0.00000  Uiso   1.00
H750   H     0.80617   0.53599   0.88595   0.00000  Uiso   1.00
H751   H     0.70663   0.96424   0.76737   0.00000  Uiso   1.00
H752   H     0.60207   0.81255   0.73767   0.00000  Uiso   1.00
N753   N     0.75000   0.62623   0.83333   0.00000  Uiso   1.00
N754   N     0.75000   0.87376   0.83333   0.00000  Uiso   1.00
N755   N     0.61429   0.77940   0.74697   0.00000  Uiso   1.00
N756   N     0.87909   0.71640   0.74740   0.00000  Uiso   1.00
N757   N     0.88567   0.77913   0.91982   0.00000  Uiso   1.00
N758   N     0.62093   0.71616   0.91918   0.00000  Uiso   1.00
O759   O     0.68453   0.78974   0.83334   0.00000  Uiso   1.00
O760   O     0.81547   0.71026   0.83333   0.00000  Uiso   1.00
O761   O     0.81547   0.78974   0.83333   0.00000  Uiso   1.00
O762   O     0.68453   0.71026   0.83334   0.00000  Uiso   1.00
O763   O     0.75000   0.78973   0.76178   0.00000  Uiso   1.00
O764   O     0.75000   0.71027   0.90489   0.00000  Uiso   1.00
O765   O     0.75000   0.78973   0.90489   0.00000  Uiso   1.00
O766   O     0.75000   0.71027   0.76178   0.00000  Uiso   1.00
Zn767  Zn    0.75000   0.80307   0.83333   0.00000  Uiso   1.00
Zn768  Zn    0.75000   0.69693   0.83333   0.00000  Uiso   1.00
loop_
_geom_bond_atom_site_label_1
_geom_bond_atom_site_label_2
_geom_bond_distance
_geom_bond_site_symmetry_2
_ccdc_geom_bond_type
Br1    C26     1.913   .     S
Br2    C27     1.908   .     S
Br3    C28     1.913   .     S
Br4    C29     1.908   .     S
C5     O58     1.289   .     A
C5     O55     1.293   .     A
C5     C22     1.429   .     S
C6     C10     1.409   .     A
C6     H47     1.078   .     S
C6     C29     1.407   .     A
C7     O62     1.282   .     A
C7     C11     1.364   .     S
C7     O59     1.282   .     A
C8     O61     1.282   .     A
C8     C12     1.364   .     S
C8     O60     1.282   .     A
C9     C30     1.411   .     A
C9     C32     1.411   .     A
C9     C138    1.528   1_545 S
C10    C31     1.409   .     A
C10    C137    1.528   .     S
C11    C524    1.164   1_554 S
C12    C267    1.164   .     S
C13    H33     1.084   .     S
C13    C24     1.398   .     A
C13    C18     1.385   .     A
C14    H41     1.084   .     S
C14    C25     1.399   .     A
C14    C19     1.390   .     A
C15    C25     1.398   .     A
C15    H42     1.084   .     S
C15    C20     1.385   .     A
C16    O56     1.289   .     A
C16    C23     1.429   .     S
C16    O57     1.293   .     A
C17    C24     1.399   .     A
C17    H43     1.084   .     S
C17    C21     1.390   .     A
C18    N51     1.433   .     S
C18    C22     1.401   .     A
C19    C23     1.405   .     A
C19    N52     1.439   .     S
C20    C23     1.401   .     A
C20    N53     1.433   .     S
C21    C22     1.405   .     A
C21    N54     1.439   .     S
C24    C89     1.447   1_455 S
C25    C88     1.447   .     S
C26    N49     1.371   .     A
C26    C30     1.407   .     A
C27    C31     1.407   .     A
C27    N50     1.373   .     A
C28    N49     1.371   .     A
C28    C32     1.407   .     A
C29    N50     1.373   .     A
C30    H44     1.078   .     S
C31    H45     1.078   .     S
C32    H46     1.078   .     S
H34    N51     1.046   .     S
H35    N52     1.046   .     S
H36    N52     1.046   .     S
H37    N53     1.046   .     S
H38    N53     1.045   .     S
H39    N54     1.046   .     S
H40    N54     1.046   .     S
H48    N51     1.045   .     S
N49    Zn64    2.026   .     S
N50    Zn63    2.026   .     S
O55    Zn63    1.995   .     S
O56    Zn64    1.995   .     S
O57    Zn63    1.995   .     S
O58    Zn64    1.995   .     S
O59    Zn63    1.946   .     S
O60    Zn64    1.946   .     S
O61    Zn63    1.946   .     S
O62    Zn64    1.946   .     S
Br65   C90     1.913   .     S
Br66   C91     1.908   .     S
Br67   C92     1.913   .     S
Br68   C93     1.908   .     S
C69    O122    1.289   .     A
C69    O119    1.293   .     A
C69    C86     1.429   .     S
C70    C74     1.409   .     A
C70    H111    1.078   .     S
C70    C93     1.407   .     A
C71    O126    1.282   .     A
C71    C75     1.364   .     S
C71    O123    1.282   .     A
C72    O125    1.282   .     A
C72    C76     1.364   .     S
C72    O124    1.282   .     A
C73    C94     1.411   .     A
C73    C96     1.411   .     A
C73    C202    1.528   1_545 S
C74    C95     1.409   .     A
C74    C201    1.528   .     S
C75    C588    1.164   1_554 S
C76    C331    1.164   .     S
C77    H97     1.084   .     S
C77    C88     1.398   .     A
C77    C82     1.385   .     A
C78    H105    1.084   .     S
C78    C89     1.399   .     A
C78    C83     1.390   .     A
C79    C89     1.398   .     A
C79    H106    1.084   .     S
C79    C84     1.385   .     A
C80    O120    1.289   .     A
C80    C87     1.429   .     S
C80    O121    1.293   .     A
C81    C88     1.399   .     A
C81    H107    1.084   .     S
C81    C85     1.390   .     A
C82    N115    1.433   .     S
C82    C86     1.401   .     A
C83    C87     1.405   .     A
C83    N116    1.439   .     S
C84    C87     1.401   .     A
C84    N117    1.433   .     S
C85    C86     1.405   .     A
C85    N118    1.439   .     S
C89    C24     1.447   1_655 S
C90    N113    1.371   .     A
C90    C94     1.407   .     A
C91    C95     1.407   .     A
C91    N114    1.373   .     A
C92    N113    1.371   .     A
C92    C96     1.407   .     A
C93    N114    1.373   .     A
C94    H108    1.078   .     S
C95    H109    1.078   .     S
C96    H110    1.078   .     S
H98    N115    1.046   .     S
H99    N116    1.046   .     S
H100   N116    1.046   .     S
H101   N117    1.046   .     S
H102   N117    1.045   .     S
H103   N118    1.046   .     S
H104   N118    1.046   .     S
H112   N115    1.045   .     S
N113   Zn128   2.026   .     S
N114   Zn127   2.026   .     S
O119   Zn127   1.995   .     S
O120   Zn128   1.995   .     S
O121   Zn127   1.995   .     S
O122   Zn128   1.995   .     S
O123   Zn127   1.946   .     S
O124   Zn128   1.946   .     S
O125   Zn127   1.946   .     S
O126   Zn128   1.946   .     S
Br129  C154    1.913   .     S
Br130  C155    1.908   .     S
Br131  C156    1.913   .     S
Br132  C157    1.908   .     S
C133   O186    1.289   .     A
C133   O183    1.293   .     A
C133   C150    1.429   .     S
C134   C138    1.409   .     A
C134   H175    1.078   .     S
C134   C157    1.407   .     A
C135   O190    1.282   .     A
C135   C139    1.364   .     S
C135   O187    1.282   .     A
C136   O189    1.282   .     A
C136   C140    1.364   .     S
C136   O188    1.282   .     A
C137   C158    1.411   .     A
C137   C160    1.411   .     A
C138   C159    1.409   .     A
C138   C9      1.528   1_565 S
C139   C652    1.164   1_554 S
C140   C395    1.164   .     S
C141   H161    1.084   .     S
C141   C152    1.398   .     A
C141   C146    1.385   .     A
C142   H169    1.084   .     S
C142   C153    1.399   .     A
C142   C147    1.390   .     A
C143   C153    1.398   .     A
C143   H170    1.084   .     S
C143   C148    1.385   .     A
C144   O184    1.289   .     A
C144   C151    1.429   .     S
C144   O185    1.293   .     A
C145   C152    1.399   .     A
C145   H171    1.084   .     S
C145   C149    1.390   .     A
C146   N179    1.433   .     S
C146   C150    1.401   .     A
C147   C151    1.405   .     A
C147   N180    1.439   .     S
C148   C151    1.401   .     A
C148   N181    1.433   .     S
C149   C150    1.405   .     A
C149   N182    1.439   .     S
C152   C217    1.447   1_455 S
C153   C216    1.447   .     S
C154   N177    1.371   .     A
C154   C158    1.407   .     A
C155   C159    1.407   .     A
C155   N178    1.373   .     A
C156   N177    1.371   .     A
C156   C160    1.407   .     A
C157   N178    1.373   .     A
C158   H172    1.078   .     S
C159   H173    1.078   .     S
C160   H174    1.078   .     S
H162   N179    1.046   .     S
H163   N180    1.046   .     S
H164   N180    1.046   .     S
H165   N181    1.046   .     S
H166   N181    1.045   .     S
H167   N182    1.046   .     S
H168   N182    1.046   .     S
H176   N179    1.045   .     S
N177   Zn192   2.026   .     S
N178   Zn191   2.026   .     S
O183   Zn191   1.995   .     S
O184   Zn192   1.995   .     S
O185   Zn191   1.995   .     S
O186   Zn192   1.995   .     S
O187   Zn191   1.946   .     S
O188   Zn192   1.946   .     S
O189   Zn191   1.946   .     S
O190   Zn192   1.946   .     S
Br193  C218    1.913   .     S
Br194  C219    1.908   .     S
Br195  C220    1.913   .     S
Br196  C221    1.908   .     S
C197   O250    1.289   .     A
C197   O247    1.293   .     A
C197   C214    1.429   .     S
C198   C202    1.409   .     A
C198   H239    1.078   .     S
C198   C221    1.407   .     A
C199   O254    1.282   .     A
C199   C203    1.364   .     S
C199   O251    1.282   .     A
C200   O253    1.282   .     A
C200   C204    1.364   .     S
C200   O252    1.282   .     A
C201   C222    1.411   .     A
C201   C224    1.411   .     A
C202   C223    1.409   .     A
C202   C73     1.528   1_565 S
C203   C716    1.164   1_554 S
C204   C459    1.164   .     S
C205   H225    1.084   .     S
C205   C216    1.398   .     A
C205   C210    1.385   .     A
C206   H233    1.084   .     S
C206   C217    1.399   .     A
C206   C211    1.390   .     A
C207   C217    1.398   .     A
C207   H234    1.084   .     S
C207   C212    1.385   .     A
C208   O248    1.289   .     A
C208   C215    1.429   .     S
C208   O249    1.293   .     A
C209   C216    1.399   .     A
C209   H235    1.084   .     S
C209   C213    1.390   .     A
C210   N243    1.433   .     S
C210   C214    1.401   .     A
C211   C215    1.405   .     A
C211   N244    1.439   .     S
C212   C215    1.401   .     A
C212   N245    1.433   .     S
C213   C214    1.405   .     A
C213   N246    1.439   .     S
C217   C152    1.447   1_655 S
C218   N241    1.371   .     A
C218   C222    1.407   .     A
C219   C223    1.407   .     A
C219   N242    1.373   .     A
C220   N241    1.371   .     A
C220   C224    1.407   .     A
C221   N242    1.373   .     A
C222   H236    1.078   .     S
C223   H237    1.078   .     S
C224   H238    1.078   .     S
H226   N243    1.046   .     S
H227   N244    1.046   .     S
H228   N244    1.046   .     S
H229   N245    1.046   .     S
H230   N245    1.045   .     S
H231   N246    1.046   .     S
H232   N246    1.046   .     S
H240   N243    1.045   .     S
N241   Zn256   2.026   .     S
N242   Zn255   2.026   .     S
O247   Zn255   1.995   .     S
O248   Zn256   1.995   .     S
O249   Zn255   1.995   .     S
O250   Zn256   1.995   .     S
O251   Zn255   1.946   .     S
O252   Zn256   1.946   .     S
O253   Zn255   1.946   .     S
O254   Zn256   1.946   .     S
Br257  C282    1.913   .     S
Br258  C283    1.908   .     S
Br259  C284    1.913   .     S
Br260  C285    1.908   .     S
C261   O314    1.289   .     A
C261   O311    1.293   .     A
C261   C278    1.429   .     S
C262   C266    1.409   .     A
C262   H303    1.078   .     S
C262   C285    1.407   .     A
C263   O318    1.282   .     A
C263   C267    1.364   .     S
C263   O315    1.282   .     A
C264   O317    1.282   .     A
C264   C268    1.364   .     S
C264   O316    1.282   .     A
C265   C286    1.411   .     A
C265   C288    1.411   .     A
C265   C394    1.528   1_545 S
C266   C287    1.409   .     A
C266   C393    1.528   .     S
C268   C523    1.164   .     S
C269   H289    1.084   .     S
C269   C280    1.398   .     A
C269   C274    1.385   .     A
C270   H297    1.084   .     S
C270   C281    1.399   .     A
C270   C275    1.390   .     A
C271   C281    1.398   .     A
C271   H298    1.084   .     S
C271   C276    1.385   .     A
C272   O312    1.289   .     A
C272   C279    1.429   .     S
C272   O313    1.293   .     A
C273   C280    1.399   .     A
C273   H299    1.084   .     S
C273   C277    1.390   .     A
C274   N307    1.433   .     S
C274   C278    1.401   .     A
C275   C279    1.405   .     A
C275   N308    1.439   .     S
C276   C279    1.401   .     A
C276   N309    1.433   .     S
C277   C278    1.405   .     A
C277   N310    1.439   .     S
C280   C345    1.447   1_455 S
C281   C344    1.447   .     S
C282   N305    1.371   .     A
C282   C286    1.407   .     A
C283   C287    1.407   .     A
C283   N306    1.373   .     A
C284   N305    1.371   .     A
C284   C288    1.407   .     A
C285   N306    1.373   .     A
C286   H300    1.078   .     S
C287   H301    1.078   .     S
C288   H302    1.078   .     S
H290   N307    1.046   .     S
H291   N308    1.046   .     S
H292   N308    1.046   .     S
H293   N309    1.046   .     S
H294   N309    1.045   .     S
H295   N310    1.046   .     S
H296   N310    1.046   .     S
H304   N307    1.045   .     S
N305   Zn320   2.026   .     S
N306   Zn319   2.026   .     S
O311   Zn319   1.995   .     S
O312   Zn320   1.995   .     S
O313   Zn319   1.995   .     S
O314   Zn320   1.995   .     S
O315   Zn319   1.946   .     S
O316   Zn320   1.946   .     S
O317   Zn319   1.946   .     S
O318   Zn320   1.946   .     S
Br321  C346    1.913   .     S
Br322  C347    1.908   .     S
Br323  C348    1.913   .     S
Br324  C349    1.908   .     S
C325   O378    1.289   .     A
C325   O375    1.293   .     A
C325   C342    1.429   .     S
C326   C330    1.409   .     A
C326   H367    1.078   .     S
C326   C349    1.407   .     A
C327   O382    1.282   .     A
C327   C331    1.364   .     S
C327   O379    1.282   .     A
C328   O381    1.282   .     A
C328   C332    1.364   .     S
C328   O380    1.282   .     A
C329   C350    1.411   .     A
C329   C352    1.411   .     A
C329   C458    1.528   1_545 S
C330   C351    1.409   .     A
C330   C457    1.528   .     S
C332   C587    1.164   .     S
C333   H353    1.084   .     S
C333   C344    1.398   .     A
C333   C338    1.385   .     A
C334   H361    1.084   .     S
C334   C345    1.399   .     A
C334   C339    1.390   .     A
C335   C345    1.398   .     A
C335   H362    1.084   .     S
C335   C340    1.385   .     A
C336   O376    1.289   .     A
C336   C343    1.429   .     S
C336   O377    1.293   .     A
C337   C344    1.399   .     A
C337   H363    1.084   .     S
C337   C341    1.390   .     A
C338   N371    1.433   .     S
C338   C342    1.401   .     A
C339   C343    1.405   .     A
C339   N372    1.439   .     S
C340   C343    1.401   .     A
C340   N373    1.433   .     S
C341   C342    1.405   .     A
C341   N374    1.439   .     S
C345   C280    1.447   1_655 S
C346   N369    1.371   .     A
C346   C350    1.407   .     A
C347   C351    1.407   .     A
C347   N370    1.373   .     A
C348   N369    1.371   .     A
C348   C352    1.407   .     A
C349   N370    1.373   .     A
C350   H364    1.078   .     S
C351   H365    1.078   .     S
C352   H366    1.078   .     S
H354   N371    1.046   .     S
H355   N372    1.046   .     S
H356   N372    1.046   .     S
H357   N373    1.046   .     S
H358   N373    1.045   .     S
H359   N374    1.046   .     S
H360   N374    1.046   .     S
H368   N371    1.045   .     S
N369   Zn384   2.026   .     S
N370   Zn383   2.026   .     S
O375   Zn383   1.995   .     S
O376   Zn384   1.995   .     S
O377   Zn383   1.995   .     S
O378   Zn384   1.995   .     S
O379   Zn383   1.946   .     S
O380   Zn384   1.946   .     S
O381   Zn383   1.946   .     S
O382   Zn384   1.946   .     S
Br385  C410    1.913   .     S
Br386  C411    1.908   .     S
Br387  C412    1.913   .     S
Br388  C413    1.908   .     S
C389   O442    1.289   .     A
C389   O439    1.293   .     A
C389   C406    1.429   .     S
C390   C394    1.409   .     A
C390   H431    1.078   .     S
C390   C413    1.407   .     A
C391   O446    1.282   .     A
C391   C395    1.364   .     S
C391   O443    1.282   .     A
C392   O445    1.282   .     A
C392   C396    1.364   .     S
C392   O444    1.282   .     A
C393   C414    1.411   .     A
C393   C416    1.411   .     A
C394   C415    1.409   .     A
C394   C265    1.528   1_565 S
C396   C651    1.164   .     S
C397   H417    1.084   .     S
C397   C408    1.398   .     A
C397   C402    1.385   .     A
C398   H425    1.084   .     S
C398   C409    1.399   .     A
C398   C403    1.390   .     A
C399   C409    1.398   .     A
C399   H426    1.084   .     S
C399   C404    1.385   .     A
C400   O440    1.289   .     A
C400   C407    1.429   .     S
C400   O441    1.293   .     A
C401   C408    1.399   .     A
C401   H427    1.084   .     S
C401   C405    1.390   .     A
C402   N435    1.433   .     S
C402   C406    1.401   .     A
C403   C407    1.405   .     A
C403   N436    1.439   .     S
C404   C407    1.401   .     A
C404   N437    1.433   .     S
C405   C406    1.405   .     A
C405   N438    1.439   .     S
C408   C473    1.447   1_455 S
C409   C472    1.447   .     S
C410   N433    1.371   .     A
C410   C414    1.407   .     A
C411   C415    1.407   .     A
C411   N434    1.373   .     A
C412   N433    1.371   .     A
C412   C416    1.407   .     A
C413   N434    1.373   .     A
C414   H428    1.078   .     S
C415   H429    1.078   .     S
C416   H430    1.078   .     S
H418   N435    1.046   .     S
H419   N436    1.046   .     S
H420   N436    1.046   .     S
H421   N437    1.046   .     S
H422   N437    1.045   .     S
H423   N438    1.046   .     S
H424   N438    1.046   .     S
H432   N435    1.045   .     S
N433   Zn448   2.026   .     S
N434   Zn447   2.026   .     S
O439   Zn447   1.995   .     S
O440   Zn448   1.995   .     S
O441   Zn447   1.995   .     S
O442   Zn448   1.995   .     S
O443   Zn447   1.946   .     S
O444   Zn448   1.946   .     S
O445   Zn447   1.946   .     S
O446   Zn448   1.946   .     S
Br449  C474    1.913   .     S
Br450  C475    1.908   .     S
Br451  C476    1.913   .     S
Br452  C477    1.908   .     S
C453   O506    1.289   .     A
C453   O503    1.293   .     A
C453   C470    1.429   .     S
C454   C458    1.409   .     A
C454   H495    1.078   .     S
C454   C477    1.407   .     A
C455   O510    1.282   .     A
C455   C459    1.364   .     S
C455   O507    1.282   .     A
C456   O509    1.282   .     A
C456   C460    1.364   .     S
C456   O508    1.282   .     A
C457   C478    1.411   .     A
C457   C480    1.411   .     A
C458   C479    1.409   .     A
C458   C329    1.528   1_565 S
C460   C715    1.164   .     S
C461   H481    1.084   .     S
C461   C472    1.398   .     A
C461   C466    1.385   .     A
C462   H489    1.084   .     S
C462   C473    1.399   .     A
C462   C467    1.390   .     A
C463   C473    1.398   .     A
C463   H490    1.084   .     S
C463   C468    1.385   .     A
C464   O504    1.289   .     A
C464   C471    1.429   .     S
C464   O505    1.293   .     A
C465   C472    1.399   .     A
C465   H491    1.084   .     S
C465   C469    1.390   .     A
C466   N499    1.433   .     S
C466   C470    1.401   .     A
C467   C471    1.405   .     A
C467   N500    1.439   .     S
C468   C471    1.401   .     A
C468   N501    1.433   .     S
C469   C470    1.405   .     A
C469   N502    1.439   .     S
C473   C408    1.447   1_655 S
C474   N497    1.371   .     A
C474   C478    1.407   .     A
C475   C479    1.407   .     A
C475   N498    1.373   .     A
C476   N497    1.371   .     A
C476   C480    1.407   .     A
C477   N498    1.373   .     A
C478   H492    1.078   .     S
C479   H493    1.078   .     S
C480   H494    1.078   .     S
H482   N499    1.046   .     S
H483   N500    1.046   .     S
H484   N500    1.046   .     S
H485   N501    1.046   .     S
H486   N501    1.045   .     S
H487   N502    1.046   .     S
H488   N502    1.046   .     S
H496   N499    1.045   .     S
N497   Zn512   2.026   .     S
N498   Zn511   2.026   .     S
O503   Zn511   1.995   .     S
O504   Zn512   1.995   .     S
O505   Zn511   1.995   .     S
O506   Zn512   1.995   .     S
O507   Zn511   1.946   .     S
O508   Zn512   1.946   .     S
O509   Zn511   1.946   .     S
O510   Zn512   1.946   .     S
Br513  C538    1.913   .     S
Br514  C539    1.908   .     S
Br515  C540    1.913   .     S
Br516  C541    1.908   .     S
C517   O570    1.289   .     A
C517   O567    1.293   .     A
C517   C534    1.429   .     S
C518   C522    1.409   .     A
C518   H559    1.078   .     S
C518   C541    1.407   .     A
C519   O574    1.282   .     A
C519   C523    1.364   .     S
C519   O571    1.282   .     A
C520   O573    1.282   .     A
C520   C524    1.364   .     S
C520   O572    1.282   .     A
C521   C542    1.411   .     A
C521   C544    1.411   .     A
C521   C650    1.528   1_545 S
C522   C543    1.409   .     A
C522   C649    1.528   .     S
C524   C11     1.164   1_556 S
C525   H545    1.084   .     S
C525   C536    1.398   .     A
C525   C530    1.385   .     A
C526   H553    1.084   .     S
C526   C537    1.399   .     A
C526   C531    1.390   .     A
C527   C537    1.398   .     A
C527   H554    1.084   .     S
C527   C532    1.385   .     A
C528   O568    1.289   .     A
C528   C535    1.429   .     S
C528   O569    1.293   .     A
C529   C536    1.399   .     A
C529   H555    1.084   .     S
C529   C533    1.390   .     A
C530   N563    1.433   .     S
C530   C534    1.401   .     A
C531   C535    1.405   .     A
C531   N564    1.439   .     S
C532   C535    1.401   .     A
C532   N565    1.433   .     S
C533   C534    1.405   .     A
C533   N566    1.439   .     S
C536   C601    1.447   1_455 S
C537   C600    1.447   .     S
C538   N561    1.371   .     A
C538   C542    1.407   .     A
C539   C543    1.407   .     A
C539   N562    1.373   .     A
C540   N561    1.371   .     A
C540   C544    1.407   .     A
C541   N562    1.373   .     A
C542   H556    1.078   .     S
C543   H557    1.078   .     S
C544   H558    1.078   .     S
H546   N563    1.046   .     S
H547   N564    1.046   .     S
H548   N564    1.046   .     S
H549   N565    1.046   .     S
H550   N565    1.045   .     S
H551   N566    1.046   .     S
H552   N566    1.046   .     S
H560   N563    1.045   .     S
N561   Zn576   2.026   .     S
N562   Zn575   2.026   .     S
O567   Zn575   1.995   .     S
O568   Zn576   1.995   .     S
O569   Zn575   1.995   .     S
O570   Zn576   1.995   .     S
O571   Zn575   1.946   .     S
O572   Zn576   1.946   .     S
O573   Zn575   1.946   .     S
O574   Zn576   1.946   .     S
Br577  C602    1.913   .     S
Br578  C603    1.908   .     S
Br579  C604    1.913   .     S
Br580  C605    1.908   .     S
C581   O634    1.289   .     A
C581   O631    1.293   .     A
C581   C598    1.429   .     S
C582   C586    1.409   .     A
C582   H623    1.078   .     S
C582   C605    1.407   .     A
C583   O638    1.282   .     A
C583   C587    1.364   .     S
C583   O635    1.282   .     A
C584   O637    1.282   .     A
C584   C588    1.364   .     S
C584   O636    1.282   .     A
C585   C606    1.411   .     A
C585   C608    1.411   .     A
C585   C714    1.528   1_545 S
C586   C607    1.409   .     A
C586   C713    1.528   .     S
C588   C75     1.164   1_556 S
C589   H609    1.084   .     S
C589   C600    1.398   .     A
C589   C594    1.385   .     A
C590   H617    1.084   .     S
C590   C601    1.399   .     A
C590   C595    1.390   .     A
C591   C601    1.398   .     A
C591   H618    1.084   .     S
C591   C596    1.385   .     A
C592   O632    1.289   .     A
C592   C599    1.429   .     S
C592   O633    1.293   .     A
C593   C600    1.399   .     A
C593   H619    1.084   .     S
C593   C597    1.390   .     A
C594   N627    1.433   .     S
C594   C598    1.401   .     A
C595   C599    1.405   .     A
C595   N628    1.439   .     S
C596   C599    1.401   .     A
C596   N629    1.433   .     S
C597   C598    1.405   .     A
C597   N630    1.439   .     S
C601   C536    1.447   1_655 S
C602   N625    1.371   .     A
C602   C606    1.407   .     A
C603   C607    1.407   .     A
C603   N626    1.373   .     A
C604   N625    1.371   .     A
C604   C608    1.407   .     A
C605   N626    1.373   .     A
C606   H620    1.078   .     S
C607   H621    1.078   .     S
C608   H622    1.078   .     S
H610   N627    1.046   .     S
H611   N628    1.046   .     S
H612   N628    1.046   .     S
H613   N629    1.046   .     S
H614   N629    1.045   .     S
H615   N630    1.046   .     S
H616   N630    1.046   .     S
H624   N627    1.045   .     S
N625   Zn640   2.026   .     S
N626   Zn639   2.026   .     S
O631   Zn639   1.995   .     S
O632   Zn640   1.995   .     S
O633   Zn639   1.995   .     S
O634   Zn640   1.995   .     S
O635   Zn639   1.946   .     S
O636   Zn640   1.946   .     S
O637   Zn639   1.946   .     S
O638   Zn640   1.946   .     S
Br641  C666    1.913   .     S
Br642  C667    1.908   .     S
Br643  C668    1.913   .     S
Br644  C669    1.908   .     S
C645   O698    1.289   .     A
C645   O695    1.293   .     A
C645   C662    1.429   .     S
C646   C650    1.409   .     A
C646   H687    1.078   .     S
C646   C669    1.407   .     A
C647   O702    1.282   .     A
C647   C651    1.364   .     S
C647   O699    1.282   .     A
C648   O701    1.282   .     A
C648   C652    1.364   .     S
C648   O700    1.282   .     A
C649   C670    1.411   .     A
C649   C672    1.411   .     A
C650   C671    1.409   .     A
C650   C521    1.528   1_565 S
C652   C139    1.164   1_556 S
C653   H673    1.084   .     S
C653   C664    1.398   .     A
C653   C658    1.385   .     A
C654   H681    1.084   .     S
C654   C665    1.399   .     A
C654   C659    1.390   .     A
C655   C665    1.398   .     A
C655   H682    1.084   .     S
C655   C660    1.385   .     A
C656   O696    1.289   .     A
C656   C663    1.429   .     S
C656   O697    1.293   .     A
C657   C664    1.399   .     A
C657   H683    1.084   .     S
C657   C661    1.390   .     A
C658   N691    1.433   .     S
C658   C662    1.401   .     A
C659   C663    1.405   .     A
C659   N692    1.439   .     S
C660   C663    1.401   .     A
C660   N693    1.433   .     S
C661   C662    1.405   .     A
C661   N694    1.439   .     S
C664   C729    1.447   1_455 S
C665   C728    1.447   .     S
C666   N689    1.371   .     A
C666   C670    1.407   .     A
C667   C671    1.407   .     A
C667   N690    1.373   .     A
C668   N689    1.371   .     A
C668   C672    1.407   .     A
C669   N690    1.373   .     A
C670   H684    1.078   .     S
C671   H685    1.078   .     S
C672   H686    1.078   .     S
H674   N691    1.046   .     S
H675   N692    1.046   .     S
H676   N692    1.046   .     S
H677   N693    1.046   .     S
H678   N693    1.045   .     S
H679   N694    1.046   .     S
H680   N694    1.046   .     S
H688   N691    1.045   .     S
N689   Zn704   2.026   .     S
N690   Zn703   2.026   .     S
O695   Zn703   1.995   .     S
O696   Zn704   1.995   .     S
O697   Zn703   1.995   .     S
O698   Zn704   1.995   .     S
O699   Zn703   1.946   .     S
O700   Zn704   1.946   .     S
O701   Zn703   1.946   .     S
O702   Zn704   1.946   .     S
Br705  C730    1.913   .     S
Br706  C731    1.908   .     S
Br707  C732    1.913   .     S
Br708  C733    1.908   .     S
C709   O762    1.289   .     A
C709   O759    1.293   .     A
C709   C726    1.429   .     S
C710   C714    1.409   .     A
C710   H751    1.078   .     S
C710   C733    1.407   .     A
C711   O766    1.282   .     A
C711   C715    1.364   .     S
C711   O763    1.282   .     A
C712   O765    1.282   .     A
C712   C716    1.364   .     S
C712   O764    1.282   .     A
C713   C734    1.411   .     A
C713   C736    1.411   .     A
C714   C735    1.409   .     A
C714   C585    1.528   1_565 S
C716   C203    1.164   1_556 S
C717   H737    1.084   .     S
C717   C728    1.398   .     A
C717   C722    1.385   .     A
C718   H745    1.084   .     S
C718   C729    1.399   .     A
C718   C723    1.390   .     A
C719   C729    1.398   .     A
C719   H746    1.084   .     S
C719   C724    1.385   .     A
C720   O760    1.289   .     A
C720   C727    1.429   .     S
C720   O761    1.293   .     A
C721   C728    1.399   .     A
C721   H747    1.084   .     S
C721   C725    1.390   .     A
C722   N755    1.433   .     S
C722   C726    1.401   .     A
C723   C727    1.405   .     A
C723   N756    1.439   .     S
C724   C727    1.401   .     A
C724   N757    1.433   .     S
C725   C726    1.405   .     A
C725   N758    1.439   .     S
C729   C664    1.447   1_655 S
C730   N753    1.371   .     A
C730   C734    1.407   .     A
C731   C735    1.407   .     A
C731   N754    1.373   .     A
C732   N753    1.371   .     A
C732   C736    1.407   .     A
C733   N754    1.373   .     A
C734   H748    1.078   .     S
C735   H749    1.078   .     S
C736   H750    1.078   .     S
H738   N755    1.046   .     S
H739   N756    1.046   .     S
H740   N756    1.046   .     S
H741   N757    1.046   .     S
H742   N757    1.045   .     S
H743   N758    1.046   .     S
H744   N758    1.046   .     S
H752   N755    1.045   .     S
N753   Zn768   2.026   .     S
N754   Zn767   2.026   .     S
O759   Zn767   1.995   .     S
O760   Zn768   1.995   .     S
O761   Zn767   1.995   .     S
O762   Zn768   1.995   .     S
O763   Zn767   1.946   .     S
O764   Zn768   1.946   .     S
O765   Zn767   1.946   .     S
O766   Zn768   1.946   .     S
