data_str_m2_o1_o17_pcu_sym.185
_audit_creation_date              2020-01-03
_audit_creation_method            'Materials Studio'
_symmetry_space_group_name_H-M    'P1'
_symmetry_Int_Tables_number       1
_symmetry_cell_setting            triclinic
loop_
_symmetry_equiv_pos_as_xyz
  x,y,z
_cell_length_a                    32.3642
_cell_length_b                    29.3125
_cell_length_c                    29.8488
_cell_angle_alpha                 90.1593
_cell_angle_beta                  93.9758
_cell_angle_gamma                 90.8550
loop_
_atom_site_label
_atom_site_type_symbol
_atom_site_fract_x
_atom_site_fract_y
_atom_site_fract_z
_atom_site_U_iso_or_equiv
_atom_site_adp_type
_atom_site_occupancy
C1     C     0.08769   0.16634   0.25028   0.00000  Uiso   1.00
C2     C     0.24578   0.16684   0.25039   0.00000  Uiso   1.00
C3     C     0.09132   0.15924   0.01768   0.00000  Uiso   1.00
C4     C     0.24202   0.17381   0.48236   0.00000  Uiso   1.00
C5     C     0.01974   0.12874   0.23299   0.00000  Uiso   1.00
C6     C     0.31431   0.20246   0.27086   0.00000  Uiso   1.00
C7     C     0.31025   0.12933   0.23249   0.00000  Uiso   1.00
C8     C     0.02363   0.20229   0.27066   0.00000  Uiso   1.00
C9     C     0.29064   0.16658   0.25091   0.00000  Uiso   1.00
C10    C     0.04311   0.16572   0.25122   0.00000  Uiso   1.00
C11    C     0.14431   0.02352   0.21718   0.00000  Uiso   1.00
C12    C     0.19497   0.30992   0.27663   0.00000  Uiso   1.00
C13    C     0.18903   0.02447   0.28278   0.00000  Uiso   1.00
C14    C     0.13803   0.30883   0.22359   0.00000  Uiso   1.00
C15    C     0.16666   0.16662   0.16479   0.00000  Uiso   1.00
C16    C     0.16668   0.16671   0.33522   0.00000  Uiso   1.00
C17    C     0.20428   0.17025   0.40924   0.00000  Uiso   1.00
C18    C     0.12906   0.16297   0.09080   0.00000  Uiso   1.00
C19    C     0.16669   0.16674   0.38344   0.00000  Uiso   1.00
C20    C     0.16665   0.16653   0.11658   0.00000  Uiso   1.00
C21    C     0.12909   0.16292   0.40351   0.00000  Uiso   1.00
C22    C     0.20424   0.17022   0.09651   0.00000  Uiso   1.00
C23    C     0.12877   0.16285   0.45019   0.00000  Uiso   1.00
C24    C     0.20457   0.17021   0.04984   0.00000  Uiso   1.00
C25    C     0.16667   0.16653   0.47654   0.00000  Uiso   1.00
C26    C     0.16666   0.16652   0.02349   0.00000  Uiso   1.00
C27    C     0.20458   0.17022   0.45594   0.00000  Uiso   1.00
C28    C     0.12876   0.16287   0.04410   0.00000  Uiso   1.00
C29    C     0.09132   0.15921   0.47095   0.00000  Uiso   1.00
C30    C     0.24201   0.17381   0.02908   0.00000  Uiso   1.00
Cu31   Cu    0.16667   0.21355   0.25000   0.00000  Uiso   1.00
Cu32   Cu    0.16667   0.11978   0.25000   0.00000  Uiso   1.00
H33    H     0.23312   0.17283   0.39291   0.00000  Uiso   1.00
H34    H     0.10023   0.16044   0.10717   0.00000  Uiso   1.00
H35    H     0.10029   0.16013   0.38273   0.00000  Uiso   1.00
H36    H     0.23305   0.17302   0.11729   0.00000  Uiso   1.00
H37    H     0.06209   0.15638   0.45105   0.00000  Uiso   1.00
H38    H     0.27125   0.17664   0.04898   0.00000  Uiso   1.00
H39    H     0.06208   0.15642   0.03317   0.00000  Uiso   1.00
H40    H     0.27126   0.17663   0.46688   0.00000  Uiso   1.00
H41    H     0.03440   0.09982   0.21863   0.00000  Uiso   1.00
H42    H     0.30041   0.23005   0.28772   0.00000  Uiso   1.00
H43    H     0.29252   0.10090   0.21743   0.00000  Uiso   1.00
H44    H     0.04139   0.23029   0.28649   0.00000  Uiso   1.00
N45    N     0.16667   0.28402   0.25000   0.00000  Uiso   1.00
N46    N     0.16667   0.04931   0.25000   0.00000  Uiso   1.00
O47    O     0.10655   0.20625   0.24999   0.00000  Uiso   1.00
O48    O     0.22679   0.12709   0.25000   0.00000  Uiso   1.00
O49    O     0.22679   0.20625   0.25000   0.00000  Uiso   1.00
O50    O     0.10655   0.12709   0.24999   0.00000  Uiso   1.00
O51    O     0.16666   0.20627   0.18513   0.00000  Uiso   1.00
O52    O     0.16668   0.12707   0.31487   0.00000  Uiso   1.00
O53    O     0.16668   0.20627   0.31487   0.00000  Uiso   1.00
O54    O     0.16666   0.12707   0.18513   0.00000  Uiso   1.00
C55    C     0.13518   0.04017   0.16897   0.00000  Uiso   1.00
C56    C     0.09563   0.06781   0.15922   0.00000  Uiso   1.00
H57    H     0.06774   0.05023   0.17025   0.00000  Uiso   1.00
H58    H     0.09728   0.10193   0.17448   0.00000  Uiso   1.00
H59    H     0.09076   0.07275   0.12237   0.00000  Uiso   1.00
H60    H     0.16295   0.05649   0.15620   0.00000  Uiso   1.00
H61    H     0.13174   0.01043   0.14599   0.00000  Uiso   1.00
C62    C     0.23693   0.29200   0.29348   0.00000  Uiso   1.00
C63    C     0.23721   0.26403   0.33686   0.00000  Uiso   1.00
H64    H     0.20902   0.26979   0.35517   0.00000  Uiso   1.00
H65    H     0.24024   0.22723   0.32997   0.00000  Uiso   1.00
H66    H     0.26446   0.27406   0.35963   0.00000  Uiso   1.00
H67    H     0.25168   0.27605   0.26554   0.00000  Uiso   1.00
H68    H     0.25914   0.32067   0.30038   0.00000  Uiso   1.00
C69    C     0.20500   0.04408   0.32845   0.00000  Uiso   1.00
C70    C     0.24531   0.07238   0.32851   0.00000  Uiso   1.00
H71    H     0.26202   0.06598   0.29793   0.00000  Uiso   1.00
H72    H     0.23952   0.10927   0.33172   0.00000  Uiso   1.00
H73    H     0.26630   0.06312   0.35802   0.00000  Uiso   1.00
H74    H     0.18025   0.06022   0.34612   0.00000  Uiso   1.00
H75    H     0.21160   0.01577   0.35224   0.00000  Uiso   1.00
C76    C     0.09613   0.28941   0.20543   0.00000  Uiso   1.00
C77    C     0.09621   0.26104   0.16220   0.00000  Uiso   1.00
H78    H     0.12515   0.26625   0.14492   0.00000  Uiso   1.00
H79    H     0.09153   0.22433   0.16916   0.00000  Uiso   1.00
H80    H     0.06999   0.27114   0.13847   0.00000  Uiso   1.00
H81    H     0.07931   0.27316   0.23201   0.00000  Uiso   1.00
H82    H     0.07471   0.31765   0.19798   0.00000  Uiso   1.00
C83    C     0.42103   0.16634   0.25028   0.00000  Uiso   1.00
C84    C     0.57911   0.16684   0.25039   0.00000  Uiso   1.00
C85    C     0.42465   0.15924   0.01768   0.00000  Uiso   1.00
C86    C     0.57536   0.17381   0.48236   0.00000  Uiso   1.00
C87    C     0.35307   0.12874   0.23299   0.00000  Uiso   1.00
C88    C     0.64764   0.20246   0.27086   0.00000  Uiso   1.00
C89    C     0.64359   0.12933   0.23249   0.00000  Uiso   1.00
C90    C     0.35697   0.20229   0.27066   0.00000  Uiso   1.00
C91    C     0.62398   0.16658   0.25091   0.00000  Uiso   1.00
C92    C     0.37644   0.16572   0.25122   0.00000  Uiso   1.00
C93    C     0.47764   0.02352   0.21718   0.00000  Uiso   1.00
C94    C     0.52830   0.30992   0.27663   0.00000  Uiso   1.00
C95    C     0.52236   0.02447   0.28278   0.00000  Uiso   1.00
C96    C     0.47137   0.30883   0.22359   0.00000  Uiso   1.00
C97    C     0.49999   0.16662   0.16479   0.00000  Uiso   1.00
C98    C     0.50001   0.16671   0.33522   0.00000  Uiso   1.00
C99    C     0.53761   0.17025   0.40924   0.00000  Uiso   1.00
C100   C     0.46239   0.16297   0.09080   0.00000  Uiso   1.00
C101   C     0.50002   0.16674   0.38344   0.00000  Uiso   1.00
C102   C     0.49998   0.16653   0.11658   0.00000  Uiso   1.00
C103   C     0.46243   0.16292   0.40351   0.00000  Uiso   1.00
C104   C     0.53758   0.17022   0.09651   0.00000  Uiso   1.00
C105   C     0.46210   0.16285   0.45019   0.00000  Uiso   1.00
C106   C     0.53790   0.17021   0.04984   0.00000  Uiso   1.00
C107   C     0.50000   0.16653   0.47654   0.00000  Uiso   1.00
C108   C     0.50000   0.16652   0.02349   0.00000  Uiso   1.00
C109   C     0.53791   0.17022   0.45594   0.00000  Uiso   1.00
C110   C     0.46209   0.16287   0.04410   0.00000  Uiso   1.00
C111   C     0.42466   0.15921   0.47095   0.00000  Uiso   1.00
C112   C     0.57535   0.17381   0.02908   0.00000  Uiso   1.00
Cu113  Cu    0.50000   0.21355   0.25000   0.00000  Uiso   1.00
Cu114  Cu    0.50000   0.11978   0.25000   0.00000  Uiso   1.00
H115   H     0.56646   0.17283   0.39291   0.00000  Uiso   1.00
H116   H     0.43356   0.16044   0.10717   0.00000  Uiso   1.00
H117   H     0.43363   0.16013   0.38273   0.00000  Uiso   1.00
H118   H     0.56638   0.17302   0.11729   0.00000  Uiso   1.00
H119   H     0.39542   0.15638   0.45105   0.00000  Uiso   1.00
H120   H     0.60458   0.17664   0.04898   0.00000  Uiso   1.00
H121   H     0.39541   0.15642   0.03317   0.00000  Uiso   1.00
H122   H     0.60460   0.17663   0.46688   0.00000  Uiso   1.00
H123   H     0.36774   0.09982   0.21863   0.00000  Uiso   1.00
H124   H     0.63375   0.23005   0.28772   0.00000  Uiso   1.00
H125   H     0.62586   0.10090   0.21743   0.00000  Uiso   1.00
H126   H     0.37472   0.23029   0.28649   0.00000  Uiso   1.00
N127   N     0.50000   0.28402   0.25000   0.00000  Uiso   1.00
N128   N     0.50000   0.04931   0.25000   0.00000  Uiso   1.00
O129   O     0.43988   0.20625   0.24999   0.00000  Uiso   1.00
O130   O     0.56012   0.12709   0.25000   0.00000  Uiso   1.00
O131   O     0.56012   0.20625   0.25000   0.00000  Uiso   1.00
O132   O     0.43988   0.12709   0.24999   0.00000  Uiso   1.00
O133   O     0.49999   0.20627   0.18513   0.00000  Uiso   1.00
O134   O     0.50001   0.12707   0.31487   0.00000  Uiso   1.00
O135   O     0.50001   0.20627   0.31487   0.00000  Uiso   1.00
O136   O     0.49999   0.12707   0.18513   0.00000  Uiso   1.00
C137   C     0.46851   0.04017   0.16897   0.00000  Uiso   1.00
C138   C     0.42896   0.06781   0.15922   0.00000  Uiso   1.00
H139   H     0.40108   0.05023   0.17025   0.00000  Uiso   1.00
H140   H     0.43061   0.10193   0.17448   0.00000  Uiso   1.00
H141   H     0.42409   0.07275   0.12237   0.00000  Uiso   1.00
H142   H     0.49629   0.05649   0.15620   0.00000  Uiso   1.00
H143   H     0.46507   0.01043   0.14599   0.00000  Uiso   1.00
C144   C     0.57027   0.29200   0.29348   0.00000  Uiso   1.00
C145   C     0.57054   0.26403   0.33686   0.00000  Uiso   1.00
H146   H     0.54235   0.26979   0.35517   0.00000  Uiso   1.00
H147   H     0.57358   0.22723   0.32997   0.00000  Uiso   1.00
H148   H     0.59780   0.27406   0.35963   0.00000  Uiso   1.00
H149   H     0.58501   0.27605   0.26554   0.00000  Uiso   1.00
H150   H     0.59247   0.32067   0.30038   0.00000  Uiso   1.00
C151   C     0.53833   0.04408   0.32845   0.00000  Uiso   1.00
C152   C     0.57865   0.07238   0.32851   0.00000  Uiso   1.00
H153   H     0.59535   0.06598   0.29793   0.00000  Uiso   1.00
H154   H     0.57285   0.10927   0.33172   0.00000  Uiso   1.00
H155   H     0.59964   0.06312   0.35802   0.00000  Uiso   1.00
H156   H     0.51358   0.06022   0.34612   0.00000  Uiso   1.00
H157   H     0.54493   0.01577   0.35224   0.00000  Uiso   1.00
C158   C     0.42946   0.28941   0.20543   0.00000  Uiso   1.00
C159   C     0.42954   0.26104   0.16220   0.00000  Uiso   1.00
H160   H     0.45849   0.26625   0.14492   0.00000  Uiso   1.00
H161   H     0.42487   0.22433   0.16916   0.00000  Uiso   1.00
H162   H     0.40332   0.27114   0.13847   0.00000  Uiso   1.00
H163   H     0.41265   0.27316   0.23201   0.00000  Uiso   1.00
H164   H     0.40804   0.31765   0.19798   0.00000  Uiso   1.00
C165   C     0.75436   0.16634   0.25028   0.00000  Uiso   1.00
C166   C     0.91245   0.16684   0.25039   0.00000  Uiso   1.00
C167   C     0.75798   0.15924   0.01768   0.00000  Uiso   1.00
C168   C     0.90869   0.17381   0.48236   0.00000  Uiso   1.00
C169   C     0.68641   0.12874   0.23299   0.00000  Uiso   1.00
C170   C     0.98097   0.20246   0.27086   0.00000  Uiso   1.00
C171   C     0.97692   0.12933   0.23249   0.00000  Uiso   1.00
C172   C     0.69030   0.20229   0.27066   0.00000  Uiso   1.00
C173   C     0.95731   0.16658   0.25091   0.00000  Uiso   1.00
C174   C     0.70978   0.16572   0.25122   0.00000  Uiso   1.00
C175   C     0.81098   0.02352   0.21718   0.00000  Uiso   1.00
C176   C     0.86163   0.30992   0.27663   0.00000  Uiso   1.00
C177   C     0.85569   0.02447   0.28278   0.00000  Uiso   1.00
C178   C     0.80470   0.30883   0.22359   0.00000  Uiso   1.00
C179   C     0.83332   0.16662   0.16479   0.00000  Uiso   1.00
C180   C     0.83334   0.16671   0.33522   0.00000  Uiso   1.00
C181   C     0.87095   0.17025   0.40924   0.00000  Uiso   1.00
C182   C     0.79572   0.16297   0.09080   0.00000  Uiso   1.00
C183   C     0.83335   0.16674   0.38344   0.00000  Uiso   1.00
C184   C     0.83332   0.16653   0.11658   0.00000  Uiso   1.00
C185   C     0.79576   0.16292   0.40351   0.00000  Uiso   1.00
C186   C     0.87091   0.17022   0.09651   0.00000  Uiso   1.00
C187   C     0.79543   0.16285   0.45019   0.00000  Uiso   1.00
C188   C     0.87123   0.17021   0.04984   0.00000  Uiso   1.00
C189   C     0.83334   0.16653   0.47654   0.00000  Uiso   1.00
C190   C     0.83333   0.16652   0.02349   0.00000  Uiso   1.00
C191   C     0.87125   0.17022   0.45594   0.00000  Uiso   1.00
C192   C     0.79542   0.16287   0.04410   0.00000  Uiso   1.00
C193   C     0.75799   0.15921   0.47095   0.00000  Uiso   1.00
C194   C     0.90868   0.17381   0.02908   0.00000  Uiso   1.00
Cu195  Cu    0.83333   0.21355   0.25000   0.00000  Uiso   1.00
Cu196  Cu    0.83333   0.11978   0.25000   0.00000  Uiso   1.00
H197   H     0.89979   0.17283   0.39291   0.00000  Uiso   1.00
H198   H     0.76689   0.16044   0.10717   0.00000  Uiso   1.00
H199   H     0.76696   0.16013   0.38273   0.00000  Uiso   1.00
H200   H     0.89971   0.17302   0.11729   0.00000  Uiso   1.00
H201   H     0.72875   0.15638   0.45105   0.00000  Uiso   1.00
H202   H     0.93792   0.17664   0.04898   0.00000  Uiso   1.00
H203   H     0.72875   0.15642   0.03317   0.00000  Uiso   1.00
H204   H     0.93793   0.17663   0.46688   0.00000  Uiso   1.00
H205   H     0.70107   0.09982   0.21863   0.00000  Uiso   1.00
H206   H     0.96708   0.23005   0.28772   0.00000  Uiso   1.00
H207   H     0.95919   0.10090   0.21743   0.00000  Uiso   1.00
H208   H     0.70805   0.23029   0.28649   0.00000  Uiso   1.00
N209   N     0.83333   0.28402   0.25000   0.00000  Uiso   1.00
N210   N     0.83333   0.04931   0.25000   0.00000  Uiso   1.00
O211   O     0.77321   0.20625   0.24999   0.00000  Uiso   1.00
O212   O     0.89345   0.12709   0.25000   0.00000  Uiso   1.00
O213   O     0.89345   0.20625   0.25000   0.00000  Uiso   1.00
O214   O     0.77321   0.12709   0.24999   0.00000  Uiso   1.00
O215   O     0.83332   0.20627   0.18513   0.00000  Uiso   1.00
O216   O     0.83334   0.12707   0.31487   0.00000  Uiso   1.00
O217   O     0.83334   0.20627   0.31487   0.00000  Uiso   1.00
O218   O     0.83332   0.12707   0.18513   0.00000  Uiso   1.00
C219   C     0.80185   0.04017   0.16897   0.00000  Uiso   1.00
C220   C     0.76230   0.06781   0.15922   0.00000  Uiso   1.00
H221   H     0.73441   0.05023   0.17025   0.00000  Uiso   1.00
H222   H     0.76395   0.10193   0.17448   0.00000  Uiso   1.00
H223   H     0.75743   0.07275   0.12237   0.00000  Uiso   1.00
H224   H     0.82962   0.05649   0.15620   0.00000  Uiso   1.00
H225   H     0.79841   0.01043   0.14599   0.00000  Uiso   1.00
C226   C     0.90360   0.29200   0.29348   0.00000  Uiso   1.00
C227   C     0.90387   0.26403   0.33686   0.00000  Uiso   1.00
H228   H     0.87569   0.26979   0.35517   0.00000  Uiso   1.00
H229   H     0.90691   0.22723   0.32997   0.00000  Uiso   1.00
H230   H     0.93113   0.27406   0.35963   0.00000  Uiso   1.00
H231   H     0.91834   0.27605   0.26554   0.00000  Uiso   1.00
H232   H     0.92581   0.32067   0.30038   0.00000  Uiso   1.00
C233   C     0.87167   0.04408   0.32845   0.00000  Uiso   1.00
C234   C     0.91198   0.07238   0.32851   0.00000  Uiso   1.00
H235   H     0.92869   0.06598   0.29793   0.00000  Uiso   1.00
H236   H     0.90618   0.10927   0.33172   0.00000  Uiso   1.00
H237   H     0.93297   0.06312   0.35802   0.00000  Uiso   1.00
H238   H     0.84692   0.06022   0.34612   0.00000  Uiso   1.00
H239   H     0.87827   0.01577   0.35224   0.00000  Uiso   1.00
C240   C     0.76279   0.28941   0.20543   0.00000  Uiso   1.00
C241   C     0.76287   0.26104   0.16220   0.00000  Uiso   1.00
H242   H     0.79182   0.26625   0.14492   0.00000  Uiso   1.00
H243   H     0.75820   0.22433   0.16916   0.00000  Uiso   1.00
H244   H     0.73665   0.27114   0.13847   0.00000  Uiso   1.00
H245   H     0.74598   0.27316   0.23201   0.00000  Uiso   1.00
H246   H     0.74137   0.31765   0.19798   0.00000  Uiso   1.00
C247   C     0.08769   0.49968   0.25028   0.00000  Uiso   1.00
C248   C     0.24578   0.50017   0.25039   0.00000  Uiso   1.00
C249   C     0.09132   0.49257   0.01768   0.00000  Uiso   1.00
C250   C     0.24202   0.50714   0.48236   0.00000  Uiso   1.00
C251   C     0.01974   0.46208   0.23299   0.00000  Uiso   1.00
C252   C     0.31431   0.53579   0.27086   0.00000  Uiso   1.00
C253   C     0.31025   0.46266   0.23249   0.00000  Uiso   1.00
C254   C     0.02363   0.53562   0.27066   0.00000  Uiso   1.00
C255   C     0.29064   0.49991   0.25091   0.00000  Uiso   1.00
C256   C     0.04311   0.49905   0.25122   0.00000  Uiso   1.00
C257   C     0.14431   0.35686   0.21718   0.00000  Uiso   1.00
C258   C     0.19497   0.64325   0.27663   0.00000  Uiso   1.00
C259   C     0.18903   0.35780   0.28278   0.00000  Uiso   1.00
C260   C     0.13803   0.64216   0.22359   0.00000  Uiso   1.00
C261   C     0.16666   0.49995   0.16479   0.00000  Uiso   1.00
C262   C     0.16668   0.50004   0.33522   0.00000  Uiso   1.00
C263   C     0.20428   0.50358   0.40924   0.00000  Uiso   1.00
C264   C     0.12906   0.49630   0.09080   0.00000  Uiso   1.00
C265   C     0.16669   0.50007   0.38344   0.00000  Uiso   1.00
C266   C     0.16665   0.49987   0.11658   0.00000  Uiso   1.00
C267   C     0.12909   0.49626   0.40351   0.00000  Uiso   1.00
C268   C     0.20424   0.50356   0.09651   0.00000  Uiso   1.00
C269   C     0.12877   0.49618   0.45019   0.00000  Uiso   1.00
C270   C     0.20457   0.50355   0.04984   0.00000  Uiso   1.00
C271   C     0.16667   0.49987   0.47654   0.00000  Uiso   1.00
C272   C     0.16666   0.49986   0.02349   0.00000  Uiso   1.00
C273   C     0.20458   0.50355   0.45594   0.00000  Uiso   1.00
C274   C     0.12876   0.49621   0.04410   0.00000  Uiso   1.00
C275   C     0.09132   0.49255   0.47095   0.00000  Uiso   1.00
C276   C     0.24201   0.50715   0.02908   0.00000  Uiso   1.00
Cu277  Cu    0.16667   0.54689   0.25000   0.00000  Uiso   1.00
Cu278  Cu    0.16667   0.45311   0.25000   0.00000  Uiso   1.00
H279   H     0.23312   0.50616   0.39291   0.00000  Uiso   1.00
H280   H     0.10023   0.49377   0.10717   0.00000  Uiso   1.00
H281   H     0.10029   0.49346   0.38273   0.00000  Uiso   1.00
H282   H     0.23305   0.50635   0.11729   0.00000  Uiso   1.00
H283   H     0.06209   0.48971   0.45105   0.00000  Uiso   1.00
H284   H     0.27125   0.50997   0.04898   0.00000  Uiso   1.00
H285   H     0.06208   0.48975   0.03317   0.00000  Uiso   1.00
H286   H     0.27126   0.50996   0.46688   0.00000  Uiso   1.00
H287   H     0.03440   0.43315   0.21863   0.00000  Uiso   1.00
H288   H     0.30041   0.56339   0.28772   0.00000  Uiso   1.00
H289   H     0.29252   0.43423   0.21743   0.00000  Uiso   1.00
H290   H     0.04139   0.56363   0.28649   0.00000  Uiso   1.00
N291   N     0.16667   0.61736   0.25000   0.00000  Uiso   1.00
N292   N     0.16667   0.38264   0.25000   0.00000  Uiso   1.00
O293   O     0.10655   0.53958   0.24999   0.00000  Uiso   1.00
O294   O     0.22679   0.46042   0.25000   0.00000  Uiso   1.00
O295   O     0.22679   0.53958   0.25000   0.00000  Uiso   1.00
O296   O     0.10655   0.46042   0.24999   0.00000  Uiso   1.00
O297   O     0.16666   0.53960   0.18513   0.00000  Uiso   1.00
O298   O     0.16668   0.46040   0.31487   0.00000  Uiso   1.00
O299   O     0.16668   0.53960   0.31487   0.00000  Uiso   1.00
O300   O     0.16666   0.46040   0.18513   0.00000  Uiso   1.00
C301   C     0.13518   0.37351   0.16897   0.00000  Uiso   1.00
C302   C     0.09563   0.40114   0.15922   0.00000  Uiso   1.00
H303   H     0.06774   0.38357   0.17025   0.00000  Uiso   1.00
H304   H     0.09728   0.43526   0.17448   0.00000  Uiso   1.00
H305   H     0.09076   0.40609   0.12237   0.00000  Uiso   1.00
H306   H     0.16295   0.38982   0.15620   0.00000  Uiso   1.00
H307   H     0.13174   0.34377   0.14599   0.00000  Uiso   1.00
C308   C     0.23693   0.62533   0.29348   0.00000  Uiso   1.00
C309   C     0.23721   0.59736   0.33686   0.00000  Uiso   1.00
H310   H     0.20902   0.60312   0.35517   0.00000  Uiso   1.00
H311   H     0.24024   0.56056   0.32997   0.00000  Uiso   1.00
H312   H     0.26446   0.60740   0.35963   0.00000  Uiso   1.00
H313   H     0.25168   0.60938   0.26554   0.00000  Uiso   1.00
H314   H     0.25914   0.65400   0.30038   0.00000  Uiso   1.00
C315   C     0.20500   0.37742   0.32845   0.00000  Uiso   1.00
C316   C     0.24531   0.40571   0.32851   0.00000  Uiso   1.00
H317   H     0.26202   0.39931   0.29793   0.00000  Uiso   1.00
H318   H     0.23952   0.44260   0.33172   0.00000  Uiso   1.00
H319   H     0.26630   0.39646   0.35802   0.00000  Uiso   1.00
H320   H     0.18025   0.39355   0.34612   0.00000  Uiso   1.00
H321   H     0.21160   0.34911   0.35224   0.00000  Uiso   1.00
C322   C     0.09613   0.62274   0.20543   0.00000  Uiso   1.00
C323   C     0.09621   0.59437   0.16220   0.00000  Uiso   1.00
H324   H     0.12515   0.59958   0.14492   0.00000  Uiso   1.00
H325   H     0.09153   0.55766   0.16916   0.00000  Uiso   1.00
H326   H     0.06999   0.60447   0.13847   0.00000  Uiso   1.00
H327   H     0.07931   0.60649   0.23201   0.00000  Uiso   1.00
H328   H     0.07471   0.65099   0.19798   0.00000  Uiso   1.00
C329   C     0.42103   0.49968   0.25028   0.00000  Uiso   1.00
C330   C     0.57911   0.50017   0.25039   0.00000  Uiso   1.00
C331   C     0.42465   0.49257   0.01768   0.00000  Uiso   1.00
C332   C     0.57536   0.50714   0.48236   0.00000  Uiso   1.00
C333   C     0.35307   0.46208   0.23299   0.00000  Uiso   1.00
C334   C     0.64764   0.53579   0.27086   0.00000  Uiso   1.00
C335   C     0.64359   0.46266   0.23249   0.00000  Uiso   1.00
C336   C     0.35697   0.53562   0.27066   0.00000  Uiso   1.00
C337   C     0.62398   0.49991   0.25091   0.00000  Uiso   1.00
C338   C     0.37644   0.49905   0.25122   0.00000  Uiso   1.00
C339   C     0.47764   0.35686   0.21718   0.00000  Uiso   1.00
C340   C     0.52830   0.64325   0.27663   0.00000  Uiso   1.00
C341   C     0.52236   0.35780   0.28278   0.00000  Uiso   1.00
C342   C     0.47137   0.64216   0.22359   0.00000  Uiso   1.00
C343   C     0.49999   0.49995   0.16479   0.00000  Uiso   1.00
C344   C     0.50001   0.50004   0.33522   0.00000  Uiso   1.00
C345   C     0.53761   0.50358   0.40924   0.00000  Uiso   1.00
C346   C     0.46239   0.49630   0.09080   0.00000  Uiso   1.00
C347   C     0.50002   0.50007   0.38344   0.00000  Uiso   1.00
C348   C     0.49998   0.49987   0.11658   0.00000  Uiso   1.00
C349   C     0.46243   0.49626   0.40351   0.00000  Uiso   1.00
C350   C     0.53758   0.50356   0.09651   0.00000  Uiso   1.00
C351   C     0.46210   0.49618   0.45019   0.00000  Uiso   1.00
C352   C     0.53790   0.50355   0.04984   0.00000  Uiso   1.00
C353   C     0.50000   0.49987   0.47654   0.00000  Uiso   1.00
C354   C     0.50000   0.49986   0.02349   0.00000  Uiso   1.00
C355   C     0.53791   0.50355   0.45594   0.00000  Uiso   1.00
C356   C     0.46209   0.49621   0.04410   0.00000  Uiso   1.00
C357   C     0.42466   0.49255   0.47095   0.00000  Uiso   1.00
C358   C     0.57535   0.50715   0.02908   0.00000  Uiso   1.00
Cu359  Cu    0.50000   0.54689   0.25000   0.00000  Uiso   1.00
Cu360  Cu    0.50000   0.45311   0.25000   0.00000  Uiso   1.00
H361   H     0.56646   0.50616   0.39291   0.00000  Uiso   1.00
H362   H     0.43356   0.49377   0.10717   0.00000  Uiso   1.00
H363   H     0.43363   0.49346   0.38273   0.00000  Uiso   1.00
H364   H     0.56638   0.50635   0.11729   0.00000  Uiso   1.00
H365   H     0.39542   0.48971   0.45105   0.00000  Uiso   1.00
H366   H     0.60458   0.50997   0.04898   0.00000  Uiso   1.00
H367   H     0.39541   0.48975   0.03317   0.00000  Uiso   1.00
H368   H     0.60460   0.50996   0.46688   0.00000  Uiso   1.00
H369   H     0.36774   0.43315   0.21863   0.00000  Uiso   1.00
H370   H     0.63375   0.56339   0.28772   0.00000  Uiso   1.00
H371   H     0.62586   0.43423   0.21743   0.00000  Uiso   1.00
H372   H     0.37472   0.56363   0.28649   0.00000  Uiso   1.00
N373   N     0.50000   0.61736   0.25000   0.00000  Uiso   1.00
N374   N     0.50000   0.38264   0.25000   0.00000  Uiso   1.00
O375   O     0.43988   0.53958   0.24999   0.00000  Uiso   1.00
O376   O     0.56012   0.46042   0.25000   0.00000  Uiso   1.00
O377   O     0.56012   0.53958   0.25000   0.00000  Uiso   1.00
O378   O     0.43988   0.46042   0.24999   0.00000  Uiso   1.00
O379   O     0.49999   0.53960   0.18513   0.00000  Uiso   1.00
O380   O     0.50001   0.46040   0.31487   0.00000  Uiso   1.00
O381   O     0.50001   0.53960   0.31487   0.00000  Uiso   1.00
O382   O     0.49999   0.46040   0.18513   0.00000  Uiso   1.00
C383   C     0.46851   0.37351   0.16897   0.00000  Uiso   1.00
C384   C     0.42896   0.40114   0.15922   0.00000  Uiso   1.00
H385   H     0.40108   0.38357   0.17025   0.00000  Uiso   1.00
H386   H     0.43061   0.43526   0.17448   0.00000  Uiso   1.00
H387   H     0.42409   0.40609   0.12237   0.00000  Uiso   1.00
H388   H     0.49629   0.38982   0.15620   0.00000  Uiso   1.00
H389   H     0.46507   0.34377   0.14599   0.00000  Uiso   1.00
C390   C     0.57027   0.62533   0.29348   0.00000  Uiso   1.00
C391   C     0.57054   0.59736   0.33686   0.00000  Uiso   1.00
H392   H     0.54235   0.60312   0.35517   0.00000  Uiso   1.00
H393   H     0.57358   0.56056   0.32997   0.00000  Uiso   1.00
H394   H     0.59780   0.60740   0.35963   0.00000  Uiso   1.00
H395   H     0.58501   0.60938   0.26554   0.00000  Uiso   1.00
H396   H     0.59247   0.65400   0.30038   0.00000  Uiso   1.00
C397   C     0.53833   0.37742   0.32845   0.00000  Uiso   1.00
C398   C     0.57865   0.40571   0.32851   0.00000  Uiso   1.00
H399   H     0.59535   0.39931   0.29793   0.00000  Uiso   1.00
H400   H     0.57285   0.44260   0.33172   0.00000  Uiso   1.00
H401   H     0.59964   0.39646   0.35802   0.00000  Uiso   1.00
H402   H     0.51358   0.39355   0.34612   0.00000  Uiso   1.00
H403   H     0.54493   0.34911   0.35224   0.00000  Uiso   1.00
C404   C     0.42946   0.62274   0.20543   0.00000  Uiso   1.00
C405   C     0.42954   0.59437   0.16220   0.00000  Uiso   1.00
H406   H     0.45849   0.59958   0.14492   0.00000  Uiso   1.00
H407   H     0.42487   0.55766   0.16916   0.00000  Uiso   1.00
H408   H     0.40332   0.60447   0.13847   0.00000  Uiso   1.00
H409   H     0.41265   0.60649   0.23201   0.00000  Uiso   1.00
H410   H     0.40804   0.65099   0.19798   0.00000  Uiso   1.00
C411   C     0.75436   0.49968   0.25028   0.00000  Uiso   1.00
C412   C     0.91245   0.50017   0.25039   0.00000  Uiso   1.00
C413   C     0.75798   0.49257   0.01768   0.00000  Uiso   1.00
C414   C     0.90869   0.50714   0.48236   0.00000  Uiso   1.00
C415   C     0.68641   0.46208   0.23299   0.00000  Uiso   1.00
C416   C     0.98097   0.53579   0.27086   0.00000  Uiso   1.00
C417   C     0.97692   0.46266   0.23249   0.00000  Uiso   1.00
C418   C     0.69030   0.53562   0.27066   0.00000  Uiso   1.00
C419   C     0.95731   0.49991   0.25091   0.00000  Uiso   1.00
C420   C     0.70978   0.49905   0.25122   0.00000  Uiso   1.00
C421   C     0.81098   0.35686   0.21718   0.00000  Uiso   1.00
C422   C     0.86163   0.64325   0.27663   0.00000  Uiso   1.00
C423   C     0.85569   0.35780   0.28278   0.00000  Uiso   1.00
C424   C     0.80470   0.64216   0.22359   0.00000  Uiso   1.00
C425   C     0.83332   0.49995   0.16479   0.00000  Uiso   1.00
C426   C     0.83334   0.50004   0.33522   0.00000  Uiso   1.00
C427   C     0.87095   0.50358   0.40924   0.00000  Uiso   1.00
C428   C     0.79572   0.49630   0.09080   0.00000  Uiso   1.00
C429   C     0.83335   0.50007   0.38344   0.00000  Uiso   1.00
C430   C     0.83332   0.49987   0.11658   0.00000  Uiso   1.00
C431   C     0.79576   0.49626   0.40351   0.00000  Uiso   1.00
C432   C     0.87091   0.50356   0.09651   0.00000  Uiso   1.00
C433   C     0.79543   0.49618   0.45019   0.00000  Uiso   1.00
C434   C     0.87123   0.50355   0.04984   0.00000  Uiso   1.00
C435   C     0.83334   0.49987   0.47654   0.00000  Uiso   1.00
C436   C     0.83333   0.49986   0.02349   0.00000  Uiso   1.00
C437   C     0.87125   0.50355   0.45594   0.00000  Uiso   1.00
C438   C     0.79542   0.49621   0.04410   0.00000  Uiso   1.00
C439   C     0.75799   0.49255   0.47095   0.00000  Uiso   1.00
C440   C     0.90868   0.50715   0.02908   0.00000  Uiso   1.00
Cu441  Cu    0.83333   0.54689   0.25000   0.00000  Uiso   1.00
Cu442  Cu    0.83333   0.45311   0.25000   0.00000  Uiso   1.00
H443   H     0.89979   0.50616   0.39291   0.00000  Uiso   1.00
H444   H     0.76689   0.49377   0.10717   0.00000  Uiso   1.00
H445   H     0.76696   0.49346   0.38273   0.00000  Uiso   1.00
H446   H     0.89971   0.50635   0.11729   0.00000  Uiso   1.00
H447   H     0.72875   0.48971   0.45105   0.00000  Uiso   1.00
H448   H     0.93792   0.50997   0.04898   0.00000  Uiso   1.00
H449   H     0.72875   0.48975   0.03317   0.00000  Uiso   1.00
H450   H     0.93793   0.50996   0.46688   0.00000  Uiso   1.00
H451   H     0.70107   0.43315   0.21863   0.00000  Uiso   1.00
H452   H     0.96708   0.56339   0.28772   0.00000  Uiso   1.00
H453   H     0.95919   0.43423   0.21743   0.00000  Uiso   1.00
H454   H     0.70805   0.56363   0.28649   0.00000  Uiso   1.00
N455   N     0.83333   0.61736   0.25000   0.00000  Uiso   1.00
N456   N     0.83333   0.38264   0.25000   0.00000  Uiso   1.00
O457   O     0.77321   0.53958   0.24999   0.00000  Uiso   1.00
O458   O     0.89345   0.46042   0.25000   0.00000  Uiso   1.00
O459   O     0.89345   0.53958   0.25000   0.00000  Uiso   1.00
O460   O     0.77321   0.46042   0.24999   0.00000  Uiso   1.00
O461   O     0.83332   0.53960   0.18513   0.00000  Uiso   1.00
O462   O     0.83334   0.46040   0.31487   0.00000  Uiso   1.00
O463   O     0.83334   0.53960   0.31487   0.00000  Uiso   1.00
O464   O     0.83332   0.46040   0.18513   0.00000  Uiso   1.00
C465   C     0.80185   0.37351   0.16897   0.00000  Uiso   1.00
C466   C     0.76230   0.40114   0.15922   0.00000  Uiso   1.00
H467   H     0.73441   0.38357   0.17025   0.00000  Uiso   1.00
H468   H     0.76395   0.43526   0.17448   0.00000  Uiso   1.00
H469   H     0.75743   0.40609   0.12237   0.00000  Uiso   1.00
H470   H     0.82962   0.38982   0.15620   0.00000  Uiso   1.00
H471   H     0.79841   0.34377   0.14599   0.00000  Uiso   1.00
C472   C     0.90360   0.62533   0.29348   0.00000  Uiso   1.00
C473   C     0.90387   0.59736   0.33686   0.00000  Uiso   1.00
H474   H     0.87569   0.60312   0.35517   0.00000  Uiso   1.00
H475   H     0.90691   0.56056   0.32997   0.00000  Uiso   1.00
H476   H     0.93113   0.60740   0.35963   0.00000  Uiso   1.00
H477   H     0.91834   0.60938   0.26554   0.00000  Uiso   1.00
H478   H     0.92581   0.65400   0.30038   0.00000  Uiso   1.00
C479   C     0.87167   0.37742   0.32845   0.00000  Uiso   1.00
C480   C     0.91198   0.40571   0.32851   0.00000  Uiso   1.00
H481   H     0.92869   0.39931   0.29793   0.00000  Uiso   1.00
H482   H     0.90618   0.44260   0.33172   0.00000  Uiso   1.00
H483   H     0.93297   0.39646   0.35802   0.00000  Uiso   1.00
H484   H     0.84692   0.39355   0.34612   0.00000  Uiso   1.00
H485   H     0.87827   0.34911   0.35224   0.00000  Uiso   1.00
C486   C     0.76279   0.62274   0.20543   0.00000  Uiso   1.00
C487   C     0.76287   0.59437   0.16220   0.00000  Uiso   1.00
H488   H     0.79182   0.59958   0.14492   0.00000  Uiso   1.00
H489   H     0.75820   0.55766   0.16916   0.00000  Uiso   1.00
H490   H     0.73665   0.60447   0.13847   0.00000  Uiso   1.00
H491   H     0.74598   0.60649   0.23201   0.00000  Uiso   1.00
H492   H     0.74137   0.65099   0.19798   0.00000  Uiso   1.00
C493   C     0.08769   0.83301   0.25028   0.00000  Uiso   1.00
C494   C     0.24578   0.83350   0.25039   0.00000  Uiso   1.00
C495   C     0.09132   0.82590   0.01768   0.00000  Uiso   1.00
C496   C     0.24202   0.84047   0.48236   0.00000  Uiso   1.00
C497   C     0.01974   0.79541   0.23299   0.00000  Uiso   1.00
C498   C     0.31431   0.86913   0.27086   0.00000  Uiso   1.00
C499   C     0.31025   0.79599   0.23249   0.00000  Uiso   1.00
C500   C     0.02363   0.86895   0.27066   0.00000  Uiso   1.00
C501   C     0.29064   0.83325   0.25091   0.00000  Uiso   1.00
C502   C     0.04311   0.83239   0.25122   0.00000  Uiso   1.00
C503   C     0.14431   0.69019   0.21718   0.00000  Uiso   1.00
C504   C     0.19497   0.97659   0.27663   0.00000  Uiso   1.00
C505   C     0.18903   0.69114   0.28278   0.00000  Uiso   1.00
C506   C     0.13803   0.97550   0.22359   0.00000  Uiso   1.00
C507   C     0.16666   0.83329   0.16479   0.00000  Uiso   1.00
C508   C     0.16668   0.83337   0.33522   0.00000  Uiso   1.00
C509   C     0.20428   0.83691   0.40924   0.00000  Uiso   1.00
C510   C     0.12906   0.82964   0.09080   0.00000  Uiso   1.00
C511   C     0.16669   0.83341   0.38344   0.00000  Uiso   1.00
C512   C     0.16665   0.83320   0.11658   0.00000  Uiso   1.00
C513   C     0.12909   0.82959   0.40351   0.00000  Uiso   1.00
C514   C     0.20424   0.83689   0.09651   0.00000  Uiso   1.00
C515   C     0.12877   0.82952   0.45019   0.00000  Uiso   1.00
C516   C     0.20457   0.83688   0.04984   0.00000  Uiso   1.00
C517   C     0.16667   0.83320   0.47654   0.00000  Uiso   1.00
C518   C     0.16666   0.83319   0.02349   0.00000  Uiso   1.00
C519   C     0.20458   0.83688   0.45594   0.00000  Uiso   1.00
C520   C     0.12876   0.82954   0.04410   0.00000  Uiso   1.00
C521   C     0.09132   0.82588   0.47095   0.00000  Uiso   1.00
C522   C     0.24201   0.84048   0.02908   0.00000  Uiso   1.00
Cu523  Cu    0.16667   0.88022   0.25000   0.00000  Uiso   1.00
Cu524  Cu    0.16667   0.78645   0.25000   0.00000  Uiso   1.00
H525   H     0.23312   0.83949   0.39291   0.00000  Uiso   1.00
H526   H     0.10023   0.82711   0.10717   0.00000  Uiso   1.00
H527   H     0.10029   0.82680   0.38273   0.00000  Uiso   1.00
H528   H     0.23305   0.83968   0.11729   0.00000  Uiso   1.00
H529   H     0.06209   0.82304   0.45105   0.00000  Uiso   1.00
H530   H     0.27125   0.84330   0.04898   0.00000  Uiso   1.00
H531   H     0.06208   0.82308   0.03317   0.00000  Uiso   1.00
H532   H     0.27126   0.84330   0.46688   0.00000  Uiso   1.00
H533   H     0.03440   0.76649   0.21863   0.00000  Uiso   1.00
H534   H     0.30041   0.89672   0.28772   0.00000  Uiso   1.00
H535   H     0.29252   0.76756   0.21743   0.00000  Uiso   1.00
H536   H     0.04139   0.89696   0.28649   0.00000  Uiso   1.00
N537   N     0.16667   0.95069   0.25000   0.00000  Uiso   1.00
N538   N     0.16667   0.71598   0.25000   0.00000  Uiso   1.00
O539   O     0.10655   0.87291   0.24999   0.00000  Uiso   1.00
O540   O     0.22679   0.79375   0.25000   0.00000  Uiso   1.00
O541   O     0.22679   0.87291   0.25000   0.00000  Uiso   1.00
O542   O     0.10655   0.79375   0.24999   0.00000  Uiso   1.00
O543   O     0.16666   0.87293   0.18513   0.00000  Uiso   1.00
O544   O     0.16668   0.79373   0.31487   0.00000  Uiso   1.00
O545   O     0.16668   0.87293   0.31487   0.00000  Uiso   1.00
O546   O     0.16666   0.79373   0.18513   0.00000  Uiso   1.00
C547   C     0.13518   0.70684   0.16897   0.00000  Uiso   1.00
C548   C     0.09563   0.73447   0.15922   0.00000  Uiso   1.00
H549   H     0.06774   0.71690   0.17025   0.00000  Uiso   1.00
H550   H     0.09728   0.76860   0.17448   0.00000  Uiso   1.00
H551   H     0.09076   0.73942   0.12237   0.00000  Uiso   1.00
H552   H     0.16295   0.72315   0.15620   0.00000  Uiso   1.00
H553   H     0.13174   0.67710   0.14599   0.00000  Uiso   1.00
C554   C     0.23693   0.95866   0.29348   0.00000  Uiso   1.00
C555   C     0.23721   0.93069   0.33686   0.00000  Uiso   1.00
H556   H     0.20902   0.93645   0.35517   0.00000  Uiso   1.00
H557   H     0.24024   0.89389   0.32997   0.00000  Uiso   1.00
H558   H     0.26446   0.94073   0.35963   0.00000  Uiso   1.00
H559   H     0.25168   0.94272   0.26554   0.00000  Uiso   1.00
H560   H     0.25914   0.98733   0.30038   0.00000  Uiso   1.00
C561   C     0.20500   0.71075   0.32845   0.00000  Uiso   1.00
C562   C     0.24531   0.73904   0.32851   0.00000  Uiso   1.00
H563   H     0.26202   0.73264   0.29793   0.00000  Uiso   1.00
H564   H     0.23952   0.77593   0.33172   0.00000  Uiso   1.00
H565   H     0.26630   0.72979   0.35802   0.00000  Uiso   1.00
H566   H     0.18025   0.72688   0.34612   0.00000  Uiso   1.00
H567   H     0.21160   0.68244   0.35224   0.00000  Uiso   1.00
C568   C     0.09613   0.95608   0.20543   0.00000  Uiso   1.00
C569   C     0.09621   0.92771   0.16220   0.00000  Uiso   1.00
H570   H     0.12515   0.93292   0.14492   0.00000  Uiso   1.00
H571   H     0.09153   0.89099   0.16916   0.00000  Uiso   1.00
H572   H     0.06999   0.93780   0.13847   0.00000  Uiso   1.00
H573   H     0.07931   0.93982   0.23201   0.00000  Uiso   1.00
H574   H     0.07471   0.98432   0.19798   0.00000  Uiso   1.00
C575   C     0.42103   0.83301   0.25028   0.00000  Uiso   1.00
C576   C     0.57911   0.83350   0.25039   0.00000  Uiso   1.00
C577   C     0.42465   0.82590   0.01768   0.00000  Uiso   1.00
C578   C     0.57536   0.84047   0.48236   0.00000  Uiso   1.00
C579   C     0.35307   0.79541   0.23299   0.00000  Uiso   1.00
C580   C     0.64764   0.86913   0.27086   0.00000  Uiso   1.00
C581   C     0.64359   0.79599   0.23249   0.00000  Uiso   1.00
C582   C     0.35697   0.86895   0.27066   0.00000  Uiso   1.00
C583   C     0.62398   0.83325   0.25091   0.00000  Uiso   1.00
C584   C     0.37644   0.83239   0.25122   0.00000  Uiso   1.00
C585   C     0.47764   0.69019   0.21718   0.00000  Uiso   1.00
C586   C     0.52830   0.97659   0.27663   0.00000  Uiso   1.00
C587   C     0.52236   0.69114   0.28278   0.00000  Uiso   1.00
C588   C     0.47137   0.97550   0.22359   0.00000  Uiso   1.00
C589   C     0.49999   0.83329   0.16479   0.00000  Uiso   1.00
C590   C     0.50001   0.83337   0.33522   0.00000  Uiso   1.00
C591   C     0.53761   0.83691   0.40924   0.00000  Uiso   1.00
C592   C     0.46239   0.82964   0.09080   0.00000  Uiso   1.00
C593   C     0.50002   0.83341   0.38344   0.00000  Uiso   1.00
C594   C     0.49998   0.83320   0.11658   0.00000  Uiso   1.00
C595   C     0.46243   0.82959   0.40351   0.00000  Uiso   1.00
C596   C     0.53758   0.83689   0.09651   0.00000  Uiso   1.00
C597   C     0.46210   0.82952   0.45019   0.00000  Uiso   1.00
C598   C     0.53790   0.83688   0.04984   0.00000  Uiso   1.00
C599   C     0.50000   0.83320   0.47654   0.00000  Uiso   1.00
C600   C     0.50000   0.83319   0.02349   0.00000  Uiso   1.00
C601   C     0.53791   0.83688   0.45594   0.00000  Uiso   1.00
C602   C     0.46209   0.82954   0.04410   0.00000  Uiso   1.00
C603   C     0.42466   0.82588   0.47095   0.00000  Uiso   1.00
C604   C     0.57535   0.84048   0.02908   0.00000  Uiso   1.00
Cu605  Cu    0.50000   0.88022   0.25000   0.00000  Uiso   1.00
Cu606  Cu    0.50000   0.78645   0.25000   0.00000  Uiso   1.00
H607   H     0.56646   0.83949   0.39291   0.00000  Uiso   1.00
H608   H     0.43356   0.82711   0.10717   0.00000  Uiso   1.00
H609   H     0.43363   0.82680   0.38273   0.00000  Uiso   1.00
H610   H     0.56638   0.83968   0.11729   0.00000  Uiso   1.00
H611   H     0.39542   0.82304   0.45105   0.00000  Uiso   1.00
H612   H     0.60458   0.84330   0.04898   0.00000  Uiso   1.00
H613   H     0.39541   0.82308   0.03317   0.00000  Uiso   1.00
H614   H     0.60460   0.84330   0.46688   0.00000  Uiso   1.00
H615   H     0.36774   0.76649   0.21863   0.00000  Uiso   1.00
H616   H     0.63375   0.89672   0.28772   0.00000  Uiso   1.00
H617   H     0.62586   0.76756   0.21743   0.00000  Uiso   1.00
H618   H     0.37472   0.89696   0.28649   0.00000  Uiso   1.00
N619   N     0.50000   0.95069   0.25000   0.00000  Uiso   1.00
N620   N     0.50000   0.71598   0.25000   0.00000  Uiso   1.00
O621   O     0.43988   0.87291   0.24999   0.00000  Uiso   1.00
O622   O     0.56012   0.79375   0.25000   0.00000  Uiso   1.00
O623   O     0.56012   0.87291   0.25000   0.00000  Uiso   1.00
O624   O     0.43988   0.79375   0.24999   0.00000  Uiso   1.00
O625   O     0.49999   0.87293   0.18513   0.00000  Uiso   1.00
O626   O     0.50001   0.79373   0.31487   0.00000  Uiso   1.00
O627   O     0.50001   0.87293   0.31487   0.00000  Uiso   1.00
O628   O     0.49999   0.79373   0.18513   0.00000  Uiso   1.00
C629   C     0.46851   0.70684   0.16897   0.00000  Uiso   1.00
C630   C     0.42896   0.73447   0.15922   0.00000  Uiso   1.00
H631   H     0.40108   0.71690   0.17025   0.00000  Uiso   1.00
H632   H     0.43061   0.76860   0.17448   0.00000  Uiso   1.00
H633   H     0.42409   0.73942   0.12237   0.00000  Uiso   1.00
H634   H     0.49629   0.72315   0.15620   0.00000  Uiso   1.00
H635   H     0.46507   0.67710   0.14599   0.00000  Uiso   1.00
C636   C     0.57027   0.95866   0.29348   0.00000  Uiso   1.00
C637   C     0.57054   0.93069   0.33686   0.00000  Uiso   1.00
H638   H     0.54235   0.93645   0.35517   0.00000  Uiso   1.00
H639   H     0.57358   0.89389   0.32997   0.00000  Uiso   1.00
H640   H     0.59780   0.94073   0.35963   0.00000  Uiso   1.00
H641   H     0.58501   0.94272   0.26554   0.00000  Uiso   1.00
H642   H     0.59247   0.98733   0.30038   0.00000  Uiso   1.00
C643   C     0.53833   0.71075   0.32845   0.00000  Uiso   1.00
C644   C     0.57865   0.73904   0.32851   0.00000  Uiso   1.00
H645   H     0.59535   0.73264   0.29793   0.00000  Uiso   1.00
H646   H     0.57285   0.77593   0.33172   0.00000  Uiso   1.00
H647   H     0.59964   0.72979   0.35802   0.00000  Uiso   1.00
H648   H     0.51358   0.72688   0.34612   0.00000  Uiso   1.00
H649   H     0.54493   0.68244   0.35224   0.00000  Uiso   1.00
C650   C     0.42946   0.95608   0.20543   0.00000  Uiso   1.00
C651   C     0.42954   0.92771   0.16220   0.00000  Uiso   1.00
H652   H     0.45849   0.93292   0.14492   0.00000  Uiso   1.00
H653   H     0.42487   0.89099   0.16916   0.00000  Uiso   1.00
H654   H     0.40332   0.93780   0.13847   0.00000  Uiso   1.00
H655   H     0.41265   0.93982   0.23201   0.00000  Uiso   1.00
H656   H     0.40804   0.98432   0.19798   0.00000  Uiso   1.00
C657   C     0.75436   0.83301   0.25028   0.00000  Uiso   1.00
C658   C     0.91245   0.83350   0.25039   0.00000  Uiso   1.00
C659   C     0.75798   0.82590   0.01768   0.00000  Uiso   1.00
C660   C     0.90869   0.84047   0.48236   0.00000  Uiso   1.00
C661   C     0.68641   0.79541   0.23299   0.00000  Uiso   1.00
C662   C     0.98097   0.86913   0.27086   0.00000  Uiso   1.00
C663   C     0.97692   0.79599   0.23249   0.00000  Uiso   1.00
C664   C     0.69030   0.86895   0.27066   0.00000  Uiso   1.00
C665   C     0.95731   0.83325   0.25091   0.00000  Uiso   1.00
C666   C     0.70978   0.83239   0.25122   0.00000  Uiso   1.00
C667   C     0.81098   0.69019   0.21718   0.00000  Uiso   1.00
C668   C     0.86163   0.97659   0.27663   0.00000  Uiso   1.00
C669   C     0.85569   0.69114   0.28278   0.00000  Uiso   1.00
C670   C     0.80470   0.97550   0.22359   0.00000  Uiso   1.00
C671   C     0.83332   0.83329   0.16479   0.00000  Uiso   1.00
C672   C     0.83334   0.83337   0.33522   0.00000  Uiso   1.00
C673   C     0.87095   0.83691   0.40924   0.00000  Uiso   1.00
C674   C     0.79572   0.82964   0.09080   0.00000  Uiso   1.00
C675   C     0.83335   0.83341   0.38344   0.00000  Uiso   1.00
C676   C     0.83332   0.83320   0.11658   0.00000  Uiso   1.00
C677   C     0.79576   0.82959   0.40351   0.00000  Uiso   1.00
C678   C     0.87091   0.83689   0.09651   0.00000  Uiso   1.00
C679   C     0.79543   0.82952   0.45019   0.00000  Uiso   1.00
C680   C     0.87123   0.83688   0.04984   0.00000  Uiso   1.00
C681   C     0.83334   0.83320   0.47654   0.00000  Uiso   1.00
C682   C     0.83333   0.83319   0.02349   0.00000  Uiso   1.00
C683   C     0.87125   0.83688   0.45594   0.00000  Uiso   1.00
C684   C     0.79542   0.82954   0.04410   0.00000  Uiso   1.00
C685   C     0.75799   0.82588   0.47095   0.00000  Uiso   1.00
C686   C     0.90868   0.84048   0.02908   0.00000  Uiso   1.00
Cu687  Cu    0.83333   0.88022   0.25000   0.00000  Uiso   1.00
Cu688  Cu    0.83333   0.78645   0.25000   0.00000  Uiso   1.00
H689   H     0.89979   0.83949   0.39291   0.00000  Uiso   1.00
H690   H     0.76689   0.82711   0.10717   0.00000  Uiso   1.00
H691   H     0.76696   0.82680   0.38273   0.00000  Uiso   1.00
H692   H     0.89971   0.83968   0.11729   0.00000  Uiso   1.00
H693   H     0.72875   0.82304   0.45105   0.00000  Uiso   1.00
H694   H     0.93792   0.84330   0.04898   0.00000  Uiso   1.00
H695   H     0.72875   0.82308   0.03317   0.00000  Uiso   1.00
H696   H     0.93793   0.84330   0.46688   0.00000  Uiso   1.00
H697   H     0.70107   0.76649   0.21863   0.00000  Uiso   1.00
H698   H     0.96708   0.89672   0.28772   0.00000  Uiso   1.00
H699   H     0.95919   0.76756   0.21743   0.00000  Uiso   1.00
H700   H     0.70805   0.89696   0.28649   0.00000  Uiso   1.00
N701   N     0.83333   0.95069   0.25000   0.00000  Uiso   1.00
N702   N     0.83333   0.71598   0.25000   0.00000  Uiso   1.00
O703   O     0.77321   0.87291   0.24999   0.00000  Uiso   1.00
O704   O     0.89345   0.79375   0.25000   0.00000  Uiso   1.00
O705   O     0.89345   0.87291   0.25000   0.00000  Uiso   1.00
O706   O     0.77321   0.79375   0.24999   0.00000  Uiso   1.00
O707   O     0.83332   0.87293   0.18513   0.00000  Uiso   1.00
O708   O     0.83334   0.79373   0.31487   0.00000  Uiso   1.00
O709   O     0.83334   0.87293   0.31487   0.00000  Uiso   1.00
O710   O     0.83332   0.79373   0.18513   0.00000  Uiso   1.00
C711   C     0.80185   0.70684   0.16897   0.00000  Uiso   1.00
C712   C     0.76230   0.73447   0.15922   0.00000  Uiso   1.00
H713   H     0.73441   0.71690   0.17025   0.00000  Uiso   1.00
H714   H     0.76395   0.76860   0.17448   0.00000  Uiso   1.00
H715   H     0.75743   0.73942   0.12237   0.00000  Uiso   1.00
H716   H     0.82962   0.72315   0.15620   0.00000  Uiso   1.00
H717   H     0.79841   0.67710   0.14599   0.00000  Uiso   1.00
C718   C     0.90360   0.95866   0.29348   0.00000  Uiso   1.00
C719   C     0.90387   0.93069   0.33686   0.00000  Uiso   1.00
H720   H     0.87569   0.93645   0.35517   0.00000  Uiso   1.00
H721   H     0.90691   0.89389   0.32997   0.00000  Uiso   1.00
H722   H     0.93113   0.94073   0.35963   0.00000  Uiso   1.00
H723   H     0.91834   0.94272   0.26554   0.00000  Uiso   1.00
H724   H     0.92581   0.98733   0.30038   0.00000  Uiso   1.00
C725   C     0.87167   0.71075   0.32845   0.00000  Uiso   1.00
C726   C     0.91198   0.73904   0.32851   0.00000  Uiso   1.00
H727   H     0.92869   0.73264   0.29793   0.00000  Uiso   1.00
H728   H     0.90618   0.77593   0.33172   0.00000  Uiso   1.00
H729   H     0.93297   0.72979   0.35802   0.00000  Uiso   1.00
H730   H     0.84692   0.72688   0.34612   0.00000  Uiso   1.00
H731   H     0.87827   0.68244   0.35224   0.00000  Uiso   1.00
C732   C     0.76279   0.95608   0.20543   0.00000  Uiso   1.00
C733   C     0.76287   0.92771   0.16220   0.00000  Uiso   1.00
H734   H     0.79182   0.93292   0.14492   0.00000  Uiso   1.00
H735   H     0.75820   0.89099   0.16916   0.00000  Uiso   1.00
H736   H     0.73665   0.93780   0.13847   0.00000  Uiso   1.00
H737   H     0.74598   0.93982   0.23201   0.00000  Uiso   1.00
H738   H     0.74137   0.98432   0.19798   0.00000  Uiso   1.00
C739   C     0.08769   0.16634   0.75028   0.00000  Uiso   1.00
C740   C     0.24578   0.16684   0.75039   0.00000  Uiso   1.00
C741   C     0.09132   0.15924   0.51768   0.00000  Uiso   1.00
C742   C     0.24202   0.17381   0.98236   0.00000  Uiso   1.00
C743   C     0.01974   0.12874   0.73299   0.00000  Uiso   1.00
C744   C     0.31431   0.20246   0.77086   0.00000  Uiso   1.00
C745   C     0.31025   0.12933   0.73249   0.00000  Uiso   1.00
C746   C     0.02363   0.20229   0.77066   0.00000  Uiso   1.00
C747   C     0.29064   0.16658   0.75091   0.00000  Uiso   1.00
C748   C     0.04311   0.16572   0.75122   0.00000  Uiso   1.00
C749   C     0.14431   0.02352   0.71718   0.00000  Uiso   1.00
C750   C     0.19497   0.30992   0.77663   0.00000  Uiso   1.00
C751   C     0.18903   0.02447   0.78278   0.00000  Uiso   1.00
C752   C     0.13803   0.30883   0.72359   0.00000  Uiso   1.00
C753   C     0.16666   0.16662   0.66479   0.00000  Uiso   1.00
C754   C     0.16668   0.16671   0.83522   0.00000  Uiso   1.00
C755   C     0.20428   0.17025   0.90924   0.00000  Uiso   1.00
C756   C     0.12906   0.16297   0.59080   0.00000  Uiso   1.00
C757   C     0.16669   0.16674   0.88344   0.00000  Uiso   1.00
C758   C     0.16665   0.16653   0.61658   0.00000  Uiso   1.00
C759   C     0.12909   0.16292   0.90351   0.00000  Uiso   1.00
C760   C     0.20424   0.17022   0.59651   0.00000  Uiso   1.00
C761   C     0.12877   0.16285   0.95019   0.00000  Uiso   1.00
C762   C     0.20457   0.17021   0.54984   0.00000  Uiso   1.00
C763   C     0.16667   0.16653   0.97654   0.00000  Uiso   1.00
C764   C     0.16666   0.16652   0.52349   0.00000  Uiso   1.00
C765   C     0.20458   0.17022   0.95594   0.00000  Uiso   1.00
C766   C     0.12876   0.16287   0.54410   0.00000  Uiso   1.00
C767   C     0.09132   0.15921   0.97095   0.00000  Uiso   1.00
C768   C     0.24201   0.17381   0.52908   0.00000  Uiso   1.00
Cu769  Cu    0.16667   0.21355   0.75000   0.00000  Uiso   1.00
Cu770  Cu    0.16667   0.11978   0.75000   0.00000  Uiso   1.00
H771   H     0.23312   0.17283   0.89291   0.00000  Uiso   1.00
H772   H     0.10023   0.16044   0.60717   0.00000  Uiso   1.00
H773   H     0.10029   0.16013   0.88273   0.00000  Uiso   1.00
H774   H     0.23305   0.17302   0.61729   0.00000  Uiso   1.00
H775   H     0.06209   0.15638   0.95105   0.00000  Uiso   1.00
H776   H     0.27125   0.17664   0.54898   0.00000  Uiso   1.00
H777   H     0.06208   0.15642   0.53317   0.00000  Uiso   1.00
H778   H     0.27126   0.17663   0.96688   0.00000  Uiso   1.00
H779   H     0.03440   0.09982   0.71863   0.00000  Uiso   1.00
H780   H     0.30041   0.23005   0.78772   0.00000  Uiso   1.00
H781   H     0.29252   0.10090   0.71743   0.00000  Uiso   1.00
H782   H     0.04139   0.23029   0.78649   0.00000  Uiso   1.00
N783   N     0.16667   0.28402   0.75000   0.00000  Uiso   1.00
N784   N     0.16667   0.04931   0.75000   0.00000  Uiso   1.00
O785   O     0.10655   0.20625   0.74999   0.00000  Uiso   1.00
O786   O     0.22679   0.12709   0.75000   0.00000  Uiso   1.00
O787   O     0.22679   0.20625   0.75000   0.00000  Uiso   1.00
O788   O     0.10655   0.12709   0.74999   0.00000  Uiso   1.00
O789   O     0.16666   0.20627   0.68513   0.00000  Uiso   1.00
O790   O     0.16668   0.12707   0.81487   0.00000  Uiso   1.00
O791   O     0.16668   0.20627   0.81487   0.00000  Uiso   1.00
O792   O     0.16666   0.12707   0.68513   0.00000  Uiso   1.00
C793   C     0.13518   0.04017   0.66897   0.00000  Uiso   1.00
C794   C     0.09563   0.06781   0.65922   0.00000  Uiso   1.00
H795   H     0.06774   0.05023   0.67025   0.00000  Uiso   1.00
H796   H     0.09728   0.10193   0.67448   0.00000  Uiso   1.00
H797   H     0.09076   0.07275   0.62237   0.00000  Uiso   1.00
H798   H     0.16295   0.05649   0.65620   0.00000  Uiso   1.00
H799   H     0.13174   0.01043   0.64599   0.00000  Uiso   1.00
C800   C     0.23693   0.29200   0.79348   0.00000  Uiso   1.00
C801   C     0.23721   0.26403   0.83686   0.00000  Uiso   1.00
H802   H     0.20902   0.26979   0.85517   0.00000  Uiso   1.00
H803   H     0.24024   0.22723   0.82997   0.00000  Uiso   1.00
H804   H     0.26446   0.27406   0.85963   0.00000  Uiso   1.00
H805   H     0.25168   0.27605   0.76554   0.00000  Uiso   1.00
H806   H     0.25914   0.32067   0.80038   0.00000  Uiso   1.00
C807   C     0.20500   0.04408   0.82845   0.00000  Uiso   1.00
C808   C     0.24531   0.07238   0.82851   0.00000  Uiso   1.00
H809   H     0.26202   0.06598   0.79793   0.00000  Uiso   1.00
H810   H     0.23952   0.10927   0.83172   0.00000  Uiso   1.00
H811   H     0.26630   0.06312   0.85802   0.00000  Uiso   1.00
H812   H     0.18025   0.06022   0.84612   0.00000  Uiso   1.00
H813   H     0.21160   0.01577   0.85224   0.00000  Uiso   1.00
C814   C     0.09613   0.28941   0.70543   0.00000  Uiso   1.00
C815   C     0.09621   0.26104   0.66220   0.00000  Uiso   1.00
H816   H     0.12515   0.26625   0.64492   0.00000  Uiso   1.00
H817   H     0.09153   0.22433   0.66916   0.00000  Uiso   1.00
H818   H     0.06999   0.27114   0.63847   0.00000  Uiso   1.00
H819   H     0.07931   0.27316   0.73201   0.00000  Uiso   1.00
H820   H     0.07471   0.31765   0.69798   0.00000  Uiso   1.00
C821   C     0.42103   0.16634   0.75028   0.00000  Uiso   1.00
C822   C     0.57911   0.16684   0.75039   0.00000  Uiso   1.00
C823   C     0.42465   0.15924   0.51768   0.00000  Uiso   1.00
C824   C     0.57536   0.17381   0.98236   0.00000  Uiso   1.00
C825   C     0.35307   0.12874   0.73299   0.00000  Uiso   1.00
C826   C     0.64764   0.20246   0.77086   0.00000  Uiso   1.00
C827   C     0.64359   0.12933   0.73249   0.00000  Uiso   1.00
C828   C     0.35697   0.20229   0.77066   0.00000  Uiso   1.00
C829   C     0.62398   0.16658   0.75091   0.00000  Uiso   1.00
C830   C     0.37644   0.16572   0.75122   0.00000  Uiso   1.00
C831   C     0.47764   0.02352   0.71718   0.00000  Uiso   1.00
C832   C     0.52830   0.30992   0.77663   0.00000  Uiso   1.00
C833   C     0.52236   0.02447   0.78278   0.00000  Uiso   1.00
C834   C     0.47137   0.30883   0.72359   0.00000  Uiso   1.00
C835   C     0.49999   0.16662   0.66479   0.00000  Uiso   1.00
C836   C     0.50001   0.16671   0.83522   0.00000  Uiso   1.00
C837   C     0.53761   0.17025   0.90924   0.00000  Uiso   1.00
C838   C     0.46239   0.16297   0.59080   0.00000  Uiso   1.00
C839   C     0.50002   0.16674   0.88344   0.00000  Uiso   1.00
C840   C     0.49998   0.16653   0.61658   0.00000  Uiso   1.00
C841   C     0.46243   0.16292   0.90351   0.00000  Uiso   1.00
C842   C     0.53758   0.17022   0.59651   0.00000  Uiso   1.00
C843   C     0.46210   0.16285   0.95019   0.00000  Uiso   1.00
C844   C     0.53790   0.17021   0.54984   0.00000  Uiso   1.00
C845   C     0.50000   0.16653   0.97654   0.00000  Uiso   1.00
C846   C     0.50000   0.16652   0.52349   0.00000  Uiso   1.00
C847   C     0.53791   0.17022   0.95594   0.00000  Uiso   1.00
C848   C     0.46209   0.16287   0.54410   0.00000  Uiso   1.00
C849   C     0.42466   0.15921   0.97095   0.00000  Uiso   1.00
C850   C     0.57535   0.17381   0.52908   0.00000  Uiso   1.00
Cu851  Cu    0.50000   0.21355   0.75000   0.00000  Uiso   1.00
Cu852  Cu    0.50000   0.11978   0.75000   0.00000  Uiso   1.00
H853   H     0.56646   0.17283   0.89291   0.00000  Uiso   1.00
H854   H     0.43356   0.16044   0.60717   0.00000  Uiso   1.00
H855   H     0.43363   0.16013   0.88273   0.00000  Uiso   1.00
H856   H     0.56638   0.17302   0.61729   0.00000  Uiso   1.00
H857   H     0.39542   0.15638   0.95105   0.00000  Uiso   1.00
H858   H     0.60458   0.17664   0.54898   0.00000  Uiso   1.00
H859   H     0.39541   0.15642   0.53317   0.00000  Uiso   1.00
H860   H     0.60460   0.17663   0.96688   0.00000  Uiso   1.00
H861   H     0.36774   0.09982   0.71863   0.00000  Uiso   1.00
H862   H     0.63375   0.23005   0.78772   0.00000  Uiso   1.00
H863   H     0.62586   0.10090   0.71743   0.00000  Uiso   1.00
H864   H     0.37472   0.23029   0.78649   0.00000  Uiso   1.00
N865   N     0.50000   0.28402   0.75000   0.00000  Uiso   1.00
N866   N     0.50000   0.04931   0.75000   0.00000  Uiso   1.00
O867   O     0.43988   0.20625   0.74999   0.00000  Uiso   1.00
O868   O     0.56012   0.12709   0.75000   0.00000  Uiso   1.00
O869   O     0.56012   0.20625   0.75000   0.00000  Uiso   1.00
O870   O     0.43988   0.12709   0.74999   0.00000  Uiso   1.00
O871   O     0.49999   0.20627   0.68513   0.00000  Uiso   1.00
O872   O     0.50001   0.12707   0.81487   0.00000  Uiso   1.00
O873   O     0.50001   0.20627   0.81487   0.00000  Uiso   1.00
O874   O     0.49999   0.12707   0.68513   0.00000  Uiso   1.00
C875   C     0.46851   0.04017   0.66897   0.00000  Uiso   1.00
C876   C     0.42896   0.06781   0.65922   0.00000  Uiso   1.00
H877   H     0.40108   0.05023   0.67025   0.00000  Uiso   1.00
H878   H     0.43061   0.10193   0.67448   0.00000  Uiso   1.00
H879   H     0.42409   0.07275   0.62237   0.00000  Uiso   1.00
H880   H     0.49629   0.05649   0.65620   0.00000  Uiso   1.00
H881   H     0.46507   0.01043   0.64599   0.00000  Uiso   1.00
C882   C     0.57027   0.29200   0.79348   0.00000  Uiso   1.00
C883   C     0.57054   0.26403   0.83686   0.00000  Uiso   1.00
H884   H     0.54235   0.26979   0.85517   0.00000  Uiso   1.00
H885   H     0.57358   0.22723   0.82997   0.00000  Uiso   1.00
H886   H     0.59780   0.27406   0.85963   0.00000  Uiso   1.00
H887   H     0.58501   0.27605   0.76554   0.00000  Uiso   1.00
H888   H     0.59247   0.32067   0.80038   0.00000  Uiso   1.00
C889   C     0.53833   0.04408   0.82845   0.00000  Uiso   1.00
C890   C     0.57865   0.07238   0.82851   0.00000  Uiso   1.00
H891   H     0.59535   0.06598   0.79793   0.00000  Uiso   1.00
H892   H     0.57285   0.10927   0.83172   0.00000  Uiso   1.00
H893   H     0.59964   0.06312   0.85802   0.00000  Uiso   1.00
H894   H     0.51358   0.06022   0.84612   0.00000  Uiso   1.00
H895   H     0.54493   0.01577   0.85224   0.00000  Uiso   1.00
C896   C     0.42946   0.28941   0.70543   0.00000  Uiso   1.00
C897   C     0.42954   0.26104   0.66220   0.00000  Uiso   1.00
H898   H     0.45849   0.26625   0.64492   0.00000  Uiso   1.00
H899   H     0.42487   0.22433   0.66916   0.00000  Uiso   1.00
H900   H     0.40332   0.27114   0.63847   0.00000  Uiso   1.00
H901   H     0.41265   0.27316   0.73201   0.00000  Uiso   1.00
H902   H     0.40804   0.31765   0.69798   0.00000  Uiso   1.00
C903   C     0.75436   0.16634   0.75028   0.00000  Uiso   1.00
C904   C     0.91245   0.16684   0.75039   0.00000  Uiso   1.00
C905   C     0.75798   0.15924   0.51768   0.00000  Uiso   1.00
C906   C     0.90869   0.17381   0.98236   0.00000  Uiso   1.00
C907   C     0.68641   0.12874   0.73299   0.00000  Uiso   1.00
C908   C     0.98097   0.20246   0.77086   0.00000  Uiso   1.00
C909   C     0.97692   0.12933   0.73249   0.00000  Uiso   1.00
C910   C     0.69030   0.20229   0.77066   0.00000  Uiso   1.00
C911   C     0.95731   0.16658   0.75091   0.00000  Uiso   1.00
C912   C     0.70978   0.16572   0.75122   0.00000  Uiso   1.00
C913   C     0.81098   0.02352   0.71718   0.00000  Uiso   1.00
C914   C     0.86163   0.30992   0.77663   0.00000  Uiso   1.00
C915   C     0.85569   0.02447   0.78278   0.00000  Uiso   1.00
C916   C     0.80470   0.30883   0.72359   0.00000  Uiso   1.00
C917   C     0.83332   0.16662   0.66479   0.00000  Uiso   1.00
C918   C     0.83334   0.16671   0.83522   0.00000  Uiso   1.00
C919   C     0.87095   0.17025   0.90924   0.00000  Uiso   1.00
C920   C     0.79572   0.16297   0.59080   0.00000  Uiso   1.00
C921   C     0.83335   0.16674   0.88344   0.00000  Uiso   1.00
C922   C     0.83332   0.16653   0.61658   0.00000  Uiso   1.00
C923   C     0.79576   0.16292   0.90351   0.00000  Uiso   1.00
C924   C     0.87091   0.17022   0.59651   0.00000  Uiso   1.00
C925   C     0.79543   0.16285   0.95019   0.00000  Uiso   1.00
C926   C     0.87123   0.17021   0.54984   0.00000  Uiso   1.00
C927   C     0.83334   0.16653   0.97654   0.00000  Uiso   1.00
C928   C     0.83333   0.16652   0.52349   0.00000  Uiso   1.00
C929   C     0.87125   0.17022   0.95594   0.00000  Uiso   1.00
C930   C     0.79542   0.16287   0.54410   0.00000  Uiso   1.00
C931   C     0.75799   0.15921   0.97095   0.00000  Uiso   1.00
C932   C     0.90868   0.17381   0.52908   0.00000  Uiso   1.00
Cu933  Cu    0.83333   0.21355   0.75000   0.00000  Uiso   1.00
Cu934  Cu    0.83333   0.11978   0.75000   0.00000  Uiso   1.00
H935   H     0.89979   0.17283   0.89291   0.00000  Uiso   1.00
H936   H     0.76689   0.16044   0.60717   0.00000  Uiso   1.00
H937   H     0.76696   0.16013   0.88273   0.00000  Uiso   1.00
H938   H     0.89971   0.17302   0.61729   0.00000  Uiso   1.00
H939   H     0.72875   0.15638   0.95105   0.00000  Uiso   1.00
H940   H     0.93792   0.17664   0.54898   0.00000  Uiso   1.00
H941   H     0.72875   0.15642   0.53317   0.00000  Uiso   1.00
H942   H     0.93793   0.17663   0.96688   0.00000  Uiso   1.00
H943   H     0.70107   0.09982   0.71863   0.00000  Uiso   1.00
H944   H     0.96708   0.23005   0.78772   0.00000  Uiso   1.00
H945   H     0.95919   0.10090   0.71743   0.00000  Uiso   1.00
H946   H     0.70805   0.23029   0.78649   0.00000  Uiso   1.00
N947   N     0.83333   0.28402   0.75000   0.00000  Uiso   1.00
N948   N     0.83333   0.04931   0.75000   0.00000  Uiso   1.00
O949   O     0.77321   0.20625   0.74999   0.00000  Uiso   1.00
O950   O     0.89345   0.12709   0.75000   0.00000  Uiso   1.00
O951   O     0.89345   0.20625   0.75000   0.00000  Uiso   1.00
O952   O     0.77321   0.12709   0.74999   0.00000  Uiso   1.00
O953   O     0.83332   0.20627   0.68513   0.00000  Uiso   1.00
O954   O     0.83334   0.12707   0.81487   0.00000  Uiso   1.00
O955   O     0.83334   0.20627   0.81487   0.00000  Uiso   1.00
O956   O     0.83332   0.12707   0.68513   0.00000  Uiso   1.00
C957   C     0.80185   0.04017   0.66897   0.00000  Uiso   1.00
C958   C     0.76230   0.06781   0.65922   0.00000  Uiso   1.00
H959   H     0.73441   0.05023   0.67025   0.00000  Uiso   1.00
H960   H     0.76395   0.10193   0.67448   0.00000  Uiso   1.00
H961   H     0.75743   0.07275   0.62237   0.00000  Uiso   1.00
H962   H     0.82962   0.05649   0.65620   0.00000  Uiso   1.00
H963   H     0.79841   0.01043   0.64599   0.00000  Uiso   1.00
C964   C     0.90360   0.29200   0.79348   0.00000  Uiso   1.00
C965   C     0.90387   0.26403   0.83686   0.00000  Uiso   1.00
H966   H     0.87569   0.26979   0.85517   0.00000  Uiso   1.00
H967   H     0.90691   0.22723   0.82997   0.00000  Uiso   1.00
H968   H     0.93113   0.27406   0.85963   0.00000  Uiso   1.00
H969   H     0.91834   0.27605   0.76554   0.00000  Uiso   1.00
H970   H     0.92581   0.32067   0.80038   0.00000  Uiso   1.00
C971   C     0.87167   0.04408   0.82845   0.00000  Uiso   1.00
C972   C     0.91198   0.07238   0.82851   0.00000  Uiso   1.00
H973   H     0.92869   0.06598   0.79793   0.00000  Uiso   1.00
H974   H     0.90618   0.10927   0.83172   0.00000  Uiso   1.00
H975   H     0.93297   0.06312   0.85802   0.00000  Uiso   1.00
H976   H     0.84692   0.06022   0.84612   0.00000  Uiso   1.00
H977   H     0.87827   0.01577   0.85224   0.00000  Uiso   1.00
C978   C     0.76279   0.28941   0.70543   0.00000  Uiso   1.00
C979   C     0.76287   0.26104   0.66220   0.00000  Uiso   1.00
H980   H     0.79182   0.26625   0.64492   0.00000  Uiso   1.00
H981   H     0.75820   0.22433   0.66916   0.00000  Uiso   1.00
H982   H     0.73665   0.27114   0.63847   0.00000  Uiso   1.00
H983   H     0.74598   0.27316   0.73201   0.00000  Uiso   1.00
H984   H     0.74137   0.31765   0.69798   0.00000  Uiso   1.00
C985   C     0.08769   0.49968   0.75028   0.00000  Uiso   1.00
C986   C     0.24578   0.50017   0.75039   0.00000  Uiso   1.00
C987   C     0.09132   0.49257   0.51768   0.00000  Uiso   1.00
C988   C     0.24202   0.50714   0.98236   0.00000  Uiso   1.00
C989   C     0.01974   0.46208   0.73299   0.00000  Uiso   1.00
C990   C     0.31431   0.53579   0.77086   0.00000  Uiso   1.00
C991   C     0.31025   0.46266   0.73249   0.00000  Uiso   1.00
C992   C     0.02363   0.53562   0.77066   0.00000  Uiso   1.00
C993   C     0.29064   0.49991   0.75091   0.00000  Uiso   1.00
C994   C     0.04311   0.49905   0.75122   0.00000  Uiso   1.00
C995   C     0.14431   0.35686   0.71718   0.00000  Uiso   1.00
C996   C     0.19497   0.64325   0.77663   0.00000  Uiso   1.00
C997   C     0.18903   0.35780   0.78278   0.00000  Uiso   1.00
C998   C     0.13803   0.64216   0.72359   0.00000  Uiso   1.00
C999   C     0.16666   0.49995   0.66479   0.00000  Uiso   1.00
C1000  C     0.16668   0.50004   0.83522   0.00000  Uiso   1.00
C1001  C     0.20428   0.50358   0.90924   0.00000  Uiso   1.00
C1002  C     0.12906   0.49630   0.59080   0.00000  Uiso   1.00
C1003  C     0.16669   0.50007   0.88344   0.00000  Uiso   1.00
C1004  C     0.16665   0.49987   0.61658   0.00000  Uiso   1.00
C1005  C     0.12909   0.49626   0.90351   0.00000  Uiso   1.00
C1006  C     0.20424   0.50356   0.59651   0.00000  Uiso   1.00
C1007  C     0.12877   0.49618   0.95019   0.00000  Uiso   1.00
C1008  C     0.20457   0.50355   0.54984   0.00000  Uiso   1.00
C1009  C     0.16667   0.49987   0.97654   0.00000  Uiso   1.00
C1010  C     0.16666   0.49986   0.52349   0.00000  Uiso   1.00
C1011  C     0.20458   0.50355   0.95594   0.00000  Uiso   1.00
C1012  C     0.12876   0.49621   0.54410   0.00000  Uiso   1.00
C1013  C     0.09132   0.49255   0.97095   0.00000  Uiso   1.00
C1014  C     0.24201   0.50715   0.52908   0.00000  Uiso   1.00
Cu1015 Cu    0.16667   0.54689   0.75000   0.00000  Uiso   1.00
Cu1016 Cu    0.16667   0.45311   0.75000   0.00000  Uiso   1.00
H1017  H     0.23312   0.50616   0.89291   0.00000  Uiso   1.00
H1018  H     0.10023   0.49377   0.60717   0.00000  Uiso   1.00
H1019  H     0.10029   0.49346   0.88273   0.00000  Uiso   1.00
H1020  H     0.23305   0.50635   0.61729   0.00000  Uiso   1.00
H1021  H     0.06209   0.48971   0.95105   0.00000  Uiso   1.00
H1022  H     0.27125   0.50997   0.54898   0.00000  Uiso   1.00
H1023  H     0.06208   0.48975   0.53317   0.00000  Uiso   1.00
H1024  H     0.27126   0.50996   0.96688   0.00000  Uiso   1.00
H1025  H     0.03440   0.43315   0.71863   0.00000  Uiso   1.00
H1026  H     0.30041   0.56339   0.78772   0.00000  Uiso   1.00
H1027  H     0.29252   0.43423   0.71743   0.00000  Uiso   1.00
H1028  H     0.04139   0.56363   0.78649   0.00000  Uiso   1.00
N1029  N     0.16667   0.61736   0.75000   0.00000  Uiso   1.00
N1030  N     0.16667   0.38264   0.75000   0.00000  Uiso   1.00
O1031  O     0.10655   0.53958   0.74999   0.00000  Uiso   1.00
O1032  O     0.22679   0.46042   0.75000   0.00000  Uiso   1.00
O1033  O     0.22679   0.53958   0.75000   0.00000  Uiso   1.00
O1034  O     0.10655   0.46042   0.74999   0.00000  Uiso   1.00
O1035  O     0.16666   0.53960   0.68513   0.00000  Uiso   1.00
O1036  O     0.16668   0.46040   0.81487   0.00000  Uiso   1.00
O1037  O     0.16668   0.53960   0.81487   0.00000  Uiso   1.00
O1038  O     0.16666   0.46040   0.68513   0.00000  Uiso   1.00
C1039  C     0.13518   0.37351   0.66897   0.00000  Uiso   1.00
C1040  C     0.09563   0.40114   0.65922   0.00000  Uiso   1.00
H1041  H     0.06774   0.38357   0.67025   0.00000  Uiso   1.00
H1042  H     0.09728   0.43526   0.67448   0.00000  Uiso   1.00
H1043  H     0.09076   0.40609   0.62237   0.00000  Uiso   1.00
H1044  H     0.16295   0.38982   0.65620   0.00000  Uiso   1.00
H1045  H     0.13174   0.34377   0.64599   0.00000  Uiso   1.00
C1046  C     0.23693   0.62533   0.79348   0.00000  Uiso   1.00
C1047  C     0.23721   0.59736   0.83686   0.00000  Uiso   1.00
H1048  H     0.20902   0.60312   0.85517   0.00000  Uiso   1.00
H1049  H     0.24024   0.56056   0.82997   0.00000  Uiso   1.00
H1050  H     0.26446   0.60740   0.85963   0.00000  Uiso   1.00
H1051  H     0.25168   0.60938   0.76554   0.00000  Uiso   1.00
H1052  H     0.25914   0.65400   0.80038   0.00000  Uiso   1.00
C1053  C     0.20500   0.37742   0.82845   0.00000  Uiso   1.00
C1054  C     0.24531   0.40571   0.82851   0.00000  Uiso   1.00
H1055  H     0.26202   0.39931   0.79793   0.00000  Uiso   1.00
H1056  H     0.23952   0.44260   0.83172   0.00000  Uiso   1.00
H1057  H     0.26630   0.39646   0.85802   0.00000  Uiso   1.00
H1058  H     0.18025   0.39355   0.84612   0.00000  Uiso   1.00
H1059  H     0.21160   0.34911   0.85224   0.00000  Uiso   1.00
C1060  C     0.09613   0.62274   0.70543   0.00000  Uiso   1.00
C1061  C     0.09621   0.59437   0.66220   0.00000  Uiso   1.00
H1062  H     0.12515   0.59958   0.64492   0.00000  Uiso   1.00
H1063  H     0.09153   0.55766   0.66916   0.00000  Uiso   1.00
H1064  H     0.06999   0.60447   0.63847   0.00000  Uiso   1.00
H1065  H     0.07931   0.60649   0.73201   0.00000  Uiso   1.00
H1066  H     0.07471   0.65099   0.69798   0.00000  Uiso   1.00
C1067  C     0.42103   0.49968   0.75028   0.00000  Uiso   1.00
C1068  C     0.57911   0.50017   0.75039   0.00000  Uiso   1.00
C1069  C     0.42465   0.49257   0.51768   0.00000  Uiso   1.00
C1070  C     0.57536   0.50714   0.98236   0.00000  Uiso   1.00
C1071  C     0.35307   0.46208   0.73299   0.00000  Uiso   1.00
C1072  C     0.64764   0.53579   0.77086   0.00000  Uiso   1.00
C1073  C     0.64359   0.46266   0.73249   0.00000  Uiso   1.00
C1074  C     0.35697   0.53562   0.77066   0.00000  Uiso   1.00
C1075  C     0.62398   0.49991   0.75091   0.00000  Uiso   1.00
C1076  C     0.37644   0.49905   0.75122   0.00000  Uiso   1.00
C1077  C     0.47764   0.35686   0.71718   0.00000  Uiso   1.00
C1078  C     0.52830   0.64325   0.77663   0.00000  Uiso   1.00
C1079  C     0.52236   0.35780   0.78278   0.00000  Uiso   1.00
C1080  C     0.47137   0.64216   0.72359   0.00000  Uiso   1.00
C1081  C     0.49999   0.49995   0.66479   0.00000  Uiso   1.00
C1082  C     0.50001   0.50004   0.83522   0.00000  Uiso   1.00
C1083  C     0.53761   0.50358   0.90924   0.00000  Uiso   1.00
C1084  C     0.46239   0.49630   0.59080   0.00000  Uiso   1.00
C1085  C     0.50002   0.50007   0.88344   0.00000  Uiso   1.00
C1086  C     0.49998   0.49987   0.61658   0.00000  Uiso   1.00
C1087  C     0.46243   0.49626   0.90351   0.00000  Uiso   1.00
C1088  C     0.53758   0.50356   0.59651   0.00000  Uiso   1.00
C1089  C     0.46210   0.49618   0.95019   0.00000  Uiso   1.00
C1090  C     0.53790   0.50355   0.54984   0.00000  Uiso   1.00
C1091  C     0.50000   0.49987   0.97654   0.00000  Uiso   1.00
C1092  C     0.50000   0.49986   0.52349   0.00000  Uiso   1.00
C1093  C     0.53791   0.50355   0.95594   0.00000  Uiso   1.00
C1094  C     0.46209   0.49621   0.54410   0.00000  Uiso   1.00
C1095  C     0.42466   0.49255   0.97095   0.00000  Uiso   1.00
C1096  C     0.57535   0.50715   0.52908   0.00000  Uiso   1.00
Cu1097 Cu    0.50000   0.54689   0.75000   0.00000  Uiso   1.00
Cu1098 Cu    0.50000   0.45311   0.75000   0.00000  Uiso   1.00
H1099  H     0.56646   0.50616   0.89291   0.00000  Uiso   1.00
H1100  H     0.43356   0.49377   0.60717   0.00000  Uiso   1.00
H1101  H     0.43363   0.49346   0.88273   0.00000  Uiso   1.00
H1102  H     0.56638   0.50635   0.61729   0.00000  Uiso   1.00
H1103  H     0.39542   0.48971   0.95105   0.00000  Uiso   1.00
H1104  H     0.60458   0.50997   0.54898   0.00000  Uiso   1.00
H1105  H     0.39541   0.48975   0.53317   0.00000  Uiso   1.00
H1106  H     0.60460   0.50996   0.96688   0.00000  Uiso   1.00
H1107  H     0.36774   0.43315   0.71863   0.00000  Uiso   1.00
H1108  H     0.63375   0.56339   0.78772   0.00000  Uiso   1.00
H1109  H     0.62586   0.43423   0.71743   0.00000  Uiso   1.00
H1110  H     0.37472   0.56363   0.78649   0.00000  Uiso   1.00
N1111  N     0.50000   0.61736   0.75000   0.00000  Uiso   1.00
N1112  N     0.50000   0.38264   0.75000   0.00000  Uiso   1.00
O1113  O     0.43988   0.53958   0.74999   0.00000  Uiso   1.00
O1114  O     0.56012   0.46042   0.75000   0.00000  Uiso   1.00
O1115  O     0.56012   0.53958   0.75000   0.00000  Uiso   1.00
O1116  O     0.43988   0.46042   0.74999   0.00000  Uiso   1.00
O1117  O     0.49999   0.53960   0.68513   0.00000  Uiso   1.00
O1118  O     0.50001   0.46040   0.81487   0.00000  Uiso   1.00
O1119  O     0.50001   0.53960   0.81487   0.00000  Uiso   1.00
O1120  O     0.49999   0.46040   0.68513   0.00000  Uiso   1.00
C1121  C     0.46851   0.37351   0.66897   0.00000  Uiso   1.00
C1122  C     0.42896   0.40114   0.65922   0.00000  Uiso   1.00
H1123  H     0.40108   0.38357   0.67025   0.00000  Uiso   1.00
H1124  H     0.43061   0.43526   0.67448   0.00000  Uiso   1.00
H1125  H     0.42409   0.40609   0.62237   0.00000  Uiso   1.00
H1126  H     0.49629   0.38982   0.65620   0.00000  Uiso   1.00
H1127  H     0.46507   0.34377   0.64599   0.00000  Uiso   1.00
C1128  C     0.57027   0.62533   0.79348   0.00000  Uiso   1.00
C1129  C     0.57054   0.59736   0.83686   0.00000  Uiso   1.00
H1130  H     0.54235   0.60312   0.85517   0.00000  Uiso   1.00
H1131  H     0.57358   0.56056   0.82997   0.00000  Uiso   1.00
H1132  H     0.59780   0.60740   0.85963   0.00000  Uiso   1.00
H1133  H     0.58501   0.60938   0.76554   0.00000  Uiso   1.00
H1134  H     0.59247   0.65400   0.80038   0.00000  Uiso   1.00
C1135  C     0.53833   0.37742   0.82845   0.00000  Uiso   1.00
C1136  C     0.57865   0.40571   0.82851   0.00000  Uiso   1.00
H1137  H     0.59535   0.39931   0.79793   0.00000  Uiso   1.00
H1138  H     0.57285   0.44260   0.83172   0.00000  Uiso   1.00
H1139  H     0.59964   0.39646   0.85802   0.00000  Uiso   1.00
H1140  H     0.51358   0.39355   0.84612   0.00000  Uiso   1.00
H1141  H     0.54493   0.34911   0.85224   0.00000  Uiso   1.00
C1142  C     0.42946   0.62274   0.70543   0.00000  Uiso   1.00
C1143  C     0.42954   0.59437   0.66220   0.00000  Uiso   1.00
H1144  H     0.45849   0.59958   0.64492   0.00000  Uiso   1.00
H1145  H     0.42487   0.55766   0.66916   0.00000  Uiso   1.00
H1146  H     0.40332   0.60447   0.63847   0.00000  Uiso   1.00
H1147  H     0.41265   0.60649   0.73201   0.00000  Uiso   1.00
H1148  H     0.40804   0.65099   0.69798   0.00000  Uiso   1.00
C1149  C     0.75436   0.49968   0.75028   0.00000  Uiso   1.00
C1150  C     0.91245   0.50017   0.75039   0.00000  Uiso   1.00
C1151  C     0.75798   0.49257   0.51768   0.00000  Uiso   1.00
C1152  C     0.90869   0.50714   0.98236   0.00000  Uiso   1.00
C1153  C     0.68641   0.46208   0.73299   0.00000  Uiso   1.00
C1154  C     0.98097   0.53579   0.77086   0.00000  Uiso   1.00
C1155  C     0.97692   0.46266   0.73249   0.00000  Uiso   1.00
C1156  C     0.69030   0.53562   0.77066   0.00000  Uiso   1.00
C1157  C     0.95731   0.49991   0.75091   0.00000  Uiso   1.00
C1158  C     0.70978   0.49905   0.75122   0.00000  Uiso   1.00
C1159  C     0.81098   0.35686   0.71718   0.00000  Uiso   1.00
C1160  C     0.86163   0.64325   0.77663   0.00000  Uiso   1.00
C1161  C     0.85569   0.35780   0.78278   0.00000  Uiso   1.00
C1162  C     0.80470   0.64216   0.72359   0.00000  Uiso   1.00
C1163  C     0.83332   0.49995   0.66479   0.00000  Uiso   1.00
C1164  C     0.83334   0.50004   0.83522   0.00000  Uiso   1.00
C1165  C     0.87095   0.50358   0.90924   0.00000  Uiso   1.00
C1166  C     0.79572   0.49630   0.59080   0.00000  Uiso   1.00
C1167  C     0.83335   0.50007   0.88344   0.00000  Uiso   1.00
C1168  C     0.83332   0.49987   0.61658   0.00000  Uiso   1.00
C1169  C     0.79576   0.49626   0.90351   0.00000  Uiso   1.00
C1170  C     0.87091   0.50356   0.59651   0.00000  Uiso   1.00
C1171  C     0.79543   0.49618   0.95019   0.00000  Uiso   1.00
C1172  C     0.87123   0.50355   0.54984   0.00000  Uiso   1.00
C1173  C     0.83334   0.49987   0.97654   0.00000  Uiso   1.00
C1174  C     0.83333   0.49986   0.52349   0.00000  Uiso   1.00
C1175  C     0.87125   0.50355   0.95594   0.00000  Uiso   1.00
C1176  C     0.79542   0.49621   0.54410   0.00000  Uiso   1.00
C1177  C     0.75799   0.49255   0.97095   0.00000  Uiso   1.00
C1178  C     0.90868   0.50715   0.52908   0.00000  Uiso   1.00
Cu1179 Cu    0.83333   0.54689   0.75000   0.00000  Uiso   1.00
Cu1180 Cu    0.83333   0.45311   0.75000   0.00000  Uiso   1.00
H1181  H     0.89979   0.50616   0.89291   0.00000  Uiso   1.00
H1182  H     0.76689   0.49377   0.60717   0.00000  Uiso   1.00
H1183  H     0.76696   0.49346   0.88273   0.00000  Uiso   1.00
H1184  H     0.89971   0.50635   0.61729   0.00000  Uiso   1.00
H1185  H     0.72875   0.48971   0.95105   0.00000  Uiso   1.00
H1186  H     0.93792   0.50997   0.54898   0.00000  Uiso   1.00
H1187  H     0.72875   0.48975   0.53317   0.00000  Uiso   1.00
H1188  H     0.93793   0.50996   0.96688   0.00000  Uiso   1.00
H1189  H     0.70107   0.43315   0.71863   0.00000  Uiso   1.00
H1190  H     0.96708   0.56339   0.78772   0.00000  Uiso   1.00
H1191  H     0.95919   0.43423   0.71743   0.00000  Uiso   1.00
H1192  H     0.70805   0.56363   0.78649   0.00000  Uiso   1.00
N1193  N     0.83333   0.61736   0.75000   0.00000  Uiso   1.00
N1194  N     0.83333   0.38264   0.75000   0.00000  Uiso   1.00
O1195  O     0.77321   0.53958   0.74999   0.00000  Uiso   1.00
O1196  O     0.89345   0.46042   0.75000   0.00000  Uiso   1.00
O1197  O     0.89345   0.53958   0.75000   0.00000  Uiso   1.00
O1198  O     0.77321   0.46042   0.74999   0.00000  Uiso   1.00
O1199  O     0.83332   0.53960   0.68513   0.00000  Uiso   1.00
O1200  O     0.83334   0.46040   0.81487   0.00000  Uiso   1.00
O1201  O     0.83334   0.53960   0.81487   0.00000  Uiso   1.00
O1202  O     0.83332   0.46040   0.68513   0.00000  Uiso   1.00
C1203  C     0.80185   0.37351   0.66897   0.00000  Uiso   1.00
C1204  C     0.76230   0.40114   0.65922   0.00000  Uiso   1.00
H1205  H     0.73441   0.38357   0.67025   0.00000  Uiso   1.00
H1206  H     0.76395   0.43526   0.67448   0.00000  Uiso   1.00
H1207  H     0.75743   0.40609   0.62237   0.00000  Uiso   1.00
H1208  H     0.82962   0.38982   0.65620   0.00000  Uiso   1.00
H1209  H     0.79841   0.34377   0.64599   0.00000  Uiso   1.00
C1210  C     0.90360   0.62533   0.79348   0.00000  Uiso   1.00
C1211  C     0.90387   0.59736   0.83686   0.00000  Uiso   1.00
H1212  H     0.87569   0.60312   0.85517   0.00000  Uiso   1.00
H1213  H     0.90691   0.56056   0.82997   0.00000  Uiso   1.00
H1214  H     0.93113   0.60740   0.85963   0.00000  Uiso   1.00
H1215  H     0.91834   0.60938   0.76554   0.00000  Uiso   1.00
H1216  H     0.92581   0.65400   0.80038   0.00000  Uiso   1.00
C1217  C     0.87167   0.37742   0.82845   0.00000  Uiso   1.00
C1218  C     0.91198   0.40571   0.82851   0.00000  Uiso   1.00
H1219  H     0.92869   0.39931   0.79793   0.00000  Uiso   1.00
H1220  H     0.90618   0.44260   0.83172   0.00000  Uiso   1.00
H1221  H     0.93297   0.39646   0.85802   0.00000  Uiso   1.00
H1222  H     0.84692   0.39355   0.84612   0.00000  Uiso   1.00
H1223  H     0.87827   0.34911   0.85224   0.00000  Uiso   1.00
C1224  C     0.76279   0.62274   0.70543   0.00000  Uiso   1.00
C1225  C     0.76287   0.59437   0.66220   0.00000  Uiso   1.00
H1226  H     0.79182   0.59958   0.64492   0.00000  Uiso   1.00
H1227  H     0.75820   0.55766   0.66916   0.00000  Uiso   1.00
H1228  H     0.73665   0.60447   0.63847   0.00000  Uiso   1.00
H1229  H     0.74598   0.60649   0.73201   0.00000  Uiso   1.00
H1230  H     0.74137   0.65099   0.69798   0.00000  Uiso   1.00
C1231  C     0.08769   0.83301   0.75028   0.00000  Uiso   1.00
C1232  C     0.24578   0.83350   0.75039   0.00000  Uiso   1.00
C1233  C     0.09132   0.82590   0.51768   0.00000  Uiso   1.00
C1234  C     0.24202   0.84047   0.98236   0.00000  Uiso   1.00
C1235  C     0.01974   0.79541   0.73299   0.00000  Uiso   1.00
C1236  C     0.31431   0.86913   0.77086   0.00000  Uiso   1.00
C1237  C     0.31025   0.79599   0.73249   0.00000  Uiso   1.00
C1238  C     0.02363   0.86895   0.77066   0.00000  Uiso   1.00
C1239  C     0.29064   0.83325   0.75091   0.00000  Uiso   1.00
C1240  C     0.04311   0.83239   0.75122   0.00000  Uiso   1.00
C1241  C     0.14431   0.69019   0.71718   0.00000  Uiso   1.00
C1242  C     0.19497   0.97659   0.77663   0.00000  Uiso   1.00
C1243  C     0.18903   0.69114   0.78278   0.00000  Uiso   1.00
C1244  C     0.13803   0.97550   0.72359   0.00000  Uiso   1.00
C1245  C     0.16666   0.83329   0.66479   0.00000  Uiso   1.00
C1246  C     0.16668   0.83337   0.83522   0.00000  Uiso   1.00
C1247  C     0.20428   0.83691   0.90924   0.00000  Uiso   1.00
C1248  C     0.12906   0.82964   0.59080   0.00000  Uiso   1.00
C1249  C     0.16669   0.83341   0.88344   0.00000  Uiso   1.00
C1250  C     0.16665   0.83320   0.61658   0.00000  Uiso   1.00
C1251  C     0.12909   0.82959   0.90351   0.00000  Uiso   1.00
C1252  C     0.20424   0.83689   0.59651   0.00000  Uiso   1.00
C1253  C     0.12877   0.82952   0.95019   0.00000  Uiso   1.00
C1254  C     0.20457   0.83688   0.54984   0.00000  Uiso   1.00
C1255  C     0.16667   0.83320   0.97654   0.00000  Uiso   1.00
C1256  C     0.16666   0.83319   0.52349   0.00000  Uiso   1.00
C1257  C     0.20458   0.83688   0.95594   0.00000  Uiso   1.00
C1258  C     0.12876   0.82954   0.54410   0.00000  Uiso   1.00
C1259  C     0.09132   0.82588   0.97095   0.00000  Uiso   1.00
C1260  C     0.24201   0.84048   0.52908   0.00000  Uiso   1.00
Cu1261 Cu    0.16667   0.88022   0.75000   0.00000  Uiso   1.00
Cu1262 Cu    0.16667   0.78645   0.75000   0.00000  Uiso   1.00
H1263  H     0.23312   0.83949   0.89291   0.00000  Uiso   1.00
H1264  H     0.10023   0.82711   0.60717   0.00000  Uiso   1.00
H1265  H     0.10029   0.82680   0.88273   0.00000  Uiso   1.00
H1266  H     0.23305   0.83968   0.61729   0.00000  Uiso   1.00
H1267  H     0.06209   0.82304   0.95105   0.00000  Uiso   1.00
H1268  H     0.27125   0.84330   0.54898   0.00000  Uiso   1.00
H1269  H     0.06208   0.82308   0.53317   0.00000  Uiso   1.00
H1270  H     0.27126   0.84330   0.96688   0.00000  Uiso   1.00
H1271  H     0.03440   0.76649   0.71863   0.00000  Uiso   1.00
H1272  H     0.30041   0.89672   0.78772   0.00000  Uiso   1.00
H1273  H     0.29252   0.76756   0.71743   0.00000  Uiso   1.00
H1274  H     0.04139   0.89696   0.78649   0.00000  Uiso   1.00
N1275  N     0.16667   0.95069   0.75000   0.00000  Uiso   1.00
N1276  N     0.16667   0.71598   0.75000   0.00000  Uiso   1.00
O1277  O     0.10655   0.87291   0.74999   0.00000  Uiso   1.00
O1278  O     0.22679   0.79375   0.75000   0.00000  Uiso   1.00
O1279  O     0.22679   0.87291   0.75000   0.00000  Uiso   1.00
O1280  O     0.10655   0.79375   0.74999   0.00000  Uiso   1.00
O1281  O     0.16666   0.87293   0.68513   0.00000  Uiso   1.00
O1282  O     0.16668   0.79373   0.81487   0.00000  Uiso   1.00
O1283  O     0.16668   0.87293   0.81487   0.00000  Uiso   1.00
O1284  O     0.16666   0.79373   0.68513   0.00000  Uiso   1.00
C1285  C     0.13518   0.70684   0.66897   0.00000  Uiso   1.00
C1286  C     0.09563   0.73447   0.65922   0.00000  Uiso   1.00
H1287  H     0.06774   0.71690   0.67025   0.00000  Uiso   1.00
H1288  H     0.09728   0.76860   0.67448   0.00000  Uiso   1.00
H1289  H     0.09076   0.73942   0.62237   0.00000  Uiso   1.00
H1290  H     0.16295   0.72315   0.65620   0.00000  Uiso   1.00
H1291  H     0.13174   0.67710   0.64599   0.00000  Uiso   1.00
C1292  C     0.23693   0.95866   0.79348   0.00000  Uiso   1.00
C1293  C     0.23721   0.93069   0.83686   0.00000  Uiso   1.00
H1294  H     0.20902   0.93645   0.85517   0.00000  Uiso   1.00
H1295  H     0.24024   0.89389   0.82997   0.00000  Uiso   1.00
H1296  H     0.26446   0.94073   0.85963   0.00000  Uiso   1.00
H1297  H     0.25168   0.94272   0.76554   0.00000  Uiso   1.00
H1298  H     0.25914   0.98733   0.80038   0.00000  Uiso   1.00
C1299  C     0.20500   0.71075   0.82845   0.00000  Uiso   1.00
C1300  C     0.24531   0.73904   0.82851   0.00000  Uiso   1.00
H1301  H     0.26202   0.73264   0.79793   0.00000  Uiso   1.00
H1302  H     0.23952   0.77593   0.83172   0.00000  Uiso   1.00
H1303  H     0.26630   0.72979   0.85802   0.00000  Uiso   1.00
H1304  H     0.18025   0.72688   0.84612   0.00000  Uiso   1.00
H1305  H     0.21160   0.68244   0.85224   0.00000  Uiso   1.00
C1306  C     0.09613   0.95608   0.70543   0.00000  Uiso   1.00
C1307  C     0.09621   0.92771   0.66220   0.00000  Uiso   1.00
H1308  H     0.12515   0.93292   0.64492   0.00000  Uiso   1.00
H1309  H     0.09153   0.89099   0.66916   0.00000  Uiso   1.00
H1310  H     0.06999   0.93780   0.63847   0.00000  Uiso   1.00
H1311  H     0.07931   0.93982   0.73201   0.00000  Uiso   1.00
H1312  H     0.07471   0.98432   0.69798   0.00000  Uiso   1.00
C1313  C     0.42103   0.83301   0.75028   0.00000  Uiso   1.00
C1314  C     0.57911   0.83350   0.75039   0.00000  Uiso   1.00
C1315  C     0.42465   0.82590   0.51768   0.00000  Uiso   1.00
C1316  C     0.57536   0.84047   0.98236   0.00000  Uiso   1.00
C1317  C     0.35307   0.79541   0.73299   0.00000  Uiso   1.00
C1318  C     0.64764   0.86913   0.77086   0.00000  Uiso   1.00
C1319  C     0.64359   0.79599   0.73249   0.00000  Uiso   1.00
C1320  C     0.35697   0.86895   0.77066   0.00000  Uiso   1.00
C1321  C     0.62398   0.83325   0.75091   0.00000  Uiso   1.00
C1322  C     0.37644   0.83239   0.75122   0.00000  Uiso   1.00
C1323  C     0.47764   0.69019   0.71718   0.00000  Uiso   1.00
C1324  C     0.52830   0.97659   0.77663   0.00000  Uiso   1.00
C1325  C     0.52236   0.69114   0.78278   0.00000  Uiso   1.00
C1326  C     0.47137   0.97550   0.72359   0.00000  Uiso   1.00
C1327  C     0.49999   0.83329   0.66479   0.00000  Uiso   1.00
C1328  C     0.50001   0.83337   0.83522   0.00000  Uiso   1.00
C1329  C     0.53761   0.83691   0.90924   0.00000  Uiso   1.00
C1330  C     0.46239   0.82964   0.59080   0.00000  Uiso   1.00
C1331  C     0.50002   0.83341   0.88344   0.00000  Uiso   1.00
C1332  C     0.49998   0.83320   0.61658   0.00000  Uiso   1.00
C1333  C     0.46243   0.82959   0.90351   0.00000  Uiso   1.00
C1334  C     0.53758   0.83689   0.59651   0.00000  Uiso   1.00
C1335  C     0.46210   0.82952   0.95019   0.00000  Uiso   1.00
C1336  C     0.53790   0.83688   0.54984   0.00000  Uiso   1.00
C1337  C     0.50000   0.83320   0.97654   0.00000  Uiso   1.00
C1338  C     0.50000   0.83319   0.52349   0.00000  Uiso   1.00
C1339  C     0.53791   0.83688   0.95594   0.00000  Uiso   1.00
C1340  C     0.46209   0.82954   0.54410   0.00000  Uiso   1.00
C1341  C     0.42466   0.82588   0.97095   0.00000  Uiso   1.00
C1342  C     0.57535   0.84048   0.52908   0.00000  Uiso   1.00
Cu1343 Cu    0.50000   0.88022   0.75000   0.00000  Uiso   1.00
Cu1344 Cu    0.50000   0.78645   0.75000   0.00000  Uiso   1.00
H1345  H     0.56646   0.83949   0.89291   0.00000  Uiso   1.00
H1346  H     0.43356   0.82711   0.60717   0.00000  Uiso   1.00
H1347  H     0.43363   0.82680   0.88273   0.00000  Uiso   1.00
H1348  H     0.56638   0.83968   0.61729   0.00000  Uiso   1.00
H1349  H     0.39542   0.82304   0.95105   0.00000  Uiso   1.00
H1350  H     0.60458   0.84330   0.54898   0.00000  Uiso   1.00
H1351  H     0.39541   0.82308   0.53317   0.00000  Uiso   1.00
H1352  H     0.60460   0.84330   0.96688   0.00000  Uiso   1.00
H1353  H     0.36774   0.76649   0.71863   0.00000  Uiso   1.00
H1354  H     0.63375   0.89672   0.78772   0.00000  Uiso   1.00
H1355  H     0.62586   0.76756   0.71743   0.00000  Uiso   1.00
H1356  H     0.37472   0.89696   0.78649   0.00000  Uiso   1.00
N1357  N     0.50000   0.95069   0.75000   0.00000  Uiso   1.00
N1358  N     0.50000   0.71598   0.75000   0.00000  Uiso   1.00
O1359  O     0.43988   0.87291   0.74999   0.00000  Uiso   1.00
O1360  O     0.56012   0.79375   0.75000   0.00000  Uiso   1.00
O1361  O     0.56012   0.87291   0.75000   0.00000  Uiso   1.00
O1362  O     0.43988   0.79375   0.74999   0.00000  Uiso   1.00
O1363  O     0.49999   0.87293   0.68513   0.00000  Uiso   1.00
O1364  O     0.50001   0.79373   0.81487   0.00000  Uiso   1.00
O1365  O     0.50001   0.87293   0.81487   0.00000  Uiso   1.00
O1366  O     0.49999   0.79373   0.68513   0.00000  Uiso   1.00
C1367  C     0.46851   0.70684   0.66897   0.00000  Uiso   1.00
C1368  C     0.42896   0.73447   0.65922   0.00000  Uiso   1.00
H1369  H     0.40108   0.71690   0.67025   0.00000  Uiso   1.00
H1370  H     0.43061   0.76860   0.67448   0.00000  Uiso   1.00
H1371  H     0.42409   0.73942   0.62237   0.00000  Uiso   1.00
H1372  H     0.49629   0.72315   0.65620   0.00000  Uiso   1.00
H1373  H     0.46507   0.67710   0.64599   0.00000  Uiso   1.00
C1374  C     0.57027   0.95866   0.79348   0.00000  Uiso   1.00
C1375  C     0.57054   0.93069   0.83686   0.00000  Uiso   1.00
H1376  H     0.54235   0.93645   0.85517   0.00000  Uiso   1.00
H1377  H     0.57358   0.89389   0.82997   0.00000  Uiso   1.00
H1378  H     0.59780   0.94073   0.85963   0.00000  Uiso   1.00
H1379  H     0.58501   0.94272   0.76554   0.00000  Uiso   1.00
H1380  H     0.59247   0.98733   0.80038   0.00000  Uiso   1.00
C1381  C     0.53833   0.71075   0.82845   0.00000  Uiso   1.00
C1382  C     0.57865   0.73904   0.82851   0.00000  Uiso   1.00
H1383  H     0.59535   0.73264   0.79793   0.00000  Uiso   1.00
H1384  H     0.57285   0.77593   0.83172   0.00000  Uiso   1.00
H1385  H     0.59964   0.72979   0.85802   0.00000  Uiso   1.00
H1386  H     0.51358   0.72688   0.84612   0.00000  Uiso   1.00
H1387  H     0.54493   0.68244   0.85224   0.00000  Uiso   1.00
C1388  C     0.42946   0.95608   0.70543   0.00000  Uiso   1.00
C1389  C     0.42954   0.92771   0.66220   0.00000  Uiso   1.00
H1390  H     0.45849   0.93292   0.64492   0.00000  Uiso   1.00
H1391  H     0.42487   0.89099   0.66916   0.00000  Uiso   1.00
H1392  H     0.40332   0.93780   0.63847   0.00000  Uiso   1.00
H1393  H     0.41265   0.93982   0.73201   0.00000  Uiso   1.00
H1394  H     0.40804   0.98432   0.69798   0.00000  Uiso   1.00
C1395  C     0.75436   0.83301   0.75028   0.00000  Uiso   1.00
C1396  C     0.91245   0.83350   0.75039   0.00000  Uiso   1.00
C1397  C     0.75798   0.82590   0.51768   0.00000  Uiso   1.00
C1398  C     0.90869   0.84047   0.98236   0.00000  Uiso   1.00
C1399  C     0.68641   0.79541   0.73299   0.00000  Uiso   1.00
C1400  C     0.98097   0.86913   0.77086   0.00000  Uiso   1.00
C1401  C     0.97692   0.79599   0.73249   0.00000  Uiso   1.00
C1402  C     0.69030   0.86895   0.77066   0.00000  Uiso   1.00
C1403  C     0.95731   0.83325   0.75091   0.00000  Uiso   1.00
C1404  C     0.70978   0.83239   0.75122   0.00000  Uiso   1.00
C1405  C     0.81098   0.69019   0.71718   0.00000  Uiso   1.00
C1406  C     0.86163   0.97659   0.77663   0.00000  Uiso   1.00
C1407  C     0.85569   0.69114   0.78278   0.00000  Uiso   1.00
C1408  C     0.80470   0.97550   0.72359   0.00000  Uiso   1.00
C1409  C     0.83332   0.83329   0.66479   0.00000  Uiso   1.00
C1410  C     0.83334   0.83337   0.83522   0.00000  Uiso   1.00
C1411  C     0.87095   0.83691   0.90924   0.00000  Uiso   1.00
C1412  C     0.79572   0.82964   0.59080   0.00000  Uiso   1.00
C1413  C     0.83335   0.83341   0.88344   0.00000  Uiso   1.00
C1414  C     0.83332   0.83320   0.61658   0.00000  Uiso   1.00
C1415  C     0.79576   0.82959   0.90351   0.00000  Uiso   1.00
C1416  C     0.87091   0.83689   0.59651   0.00000  Uiso   1.00
C1417  C     0.79543   0.82952   0.95019   0.00000  Uiso   1.00
C1418  C     0.87123   0.83688   0.54984   0.00000  Uiso   1.00
C1419  C     0.83334   0.83320   0.97654   0.00000  Uiso   1.00
C1420  C     0.83333   0.83319   0.52349   0.00000  Uiso   1.00
C1421  C     0.87125   0.83688   0.95594   0.00000  Uiso   1.00
C1422  C     0.79542   0.82954   0.54410   0.00000  Uiso   1.00
C1423  C     0.75799   0.82588   0.97095   0.00000  Uiso   1.00
C1424  C     0.90868   0.84048   0.52908   0.00000  Uiso   1.00
Cu1425 Cu    0.83333   0.88022   0.75000   0.00000  Uiso   1.00
Cu1426 Cu    0.83333   0.78645   0.75000   0.00000  Uiso   1.00
H1427  H     0.89979   0.83949   0.89291   0.00000  Uiso   1.00
H1428  H     0.76689   0.82711   0.60717   0.00000  Uiso   1.00
H1429  H     0.76696   0.82680   0.88273   0.00000  Uiso   1.00
H1430  H     0.89971   0.83968   0.61729   0.00000  Uiso   1.00
H1431  H     0.72875   0.82304   0.95105   0.00000  Uiso   1.00
H1432  H     0.93792   0.84330   0.54898   0.00000  Uiso   1.00
H1433  H     0.72875   0.82308   0.53317   0.00000  Uiso   1.00
H1434  H     0.93793   0.84330   0.96688   0.00000  Uiso   1.00
H1435  H     0.70107   0.76649   0.71863   0.00000  Uiso   1.00
H1436  H     0.96708   0.89672   0.78772   0.00000  Uiso   1.00
H1437  H     0.95919   0.76756   0.71743   0.00000  Uiso   1.00
H1438  H     0.70805   0.89696   0.78649   0.00000  Uiso   1.00
N1439  N     0.83333   0.95069   0.75000   0.00000  Uiso   1.00
N1440  N     0.83333   0.71598   0.75000   0.00000  Uiso   1.00
O1441  O     0.77321   0.87291   0.74999   0.00000  Uiso   1.00
O1442  O     0.89345   0.79375   0.75000   0.00000  Uiso   1.00
O1443  O     0.89345   0.87291   0.75000   0.00000  Uiso   1.00
O1444  O     0.77321   0.79375   0.74999   0.00000  Uiso   1.00
O1445  O     0.83332   0.87293   0.68513   0.00000  Uiso   1.00
O1446  O     0.83334   0.79373   0.81487   0.00000  Uiso   1.00
O1447  O     0.83334   0.87293   0.81487   0.00000  Uiso   1.00
O1448  O     0.83332   0.79373   0.68513   0.00000  Uiso   1.00
C1449  C     0.80185   0.70684   0.66897   0.00000  Uiso   1.00
C1450  C     0.76230   0.73447   0.65922   0.00000  Uiso   1.00
H1451  H     0.73441   0.71690   0.67025   0.00000  Uiso   1.00
H1452  H     0.76395   0.76860   0.67448   0.00000  Uiso   1.00
H1453  H     0.75743   0.73942   0.62237   0.00000  Uiso   1.00
H1454  H     0.82962   0.72315   0.65620   0.00000  Uiso   1.00
H1455  H     0.79841   0.67710   0.64599   0.00000  Uiso   1.00
C1456  C     0.90360   0.95866   0.79348   0.00000  Uiso   1.00
C1457  C     0.90387   0.93069   0.83686   0.00000  Uiso   1.00
H1458  H     0.87569   0.93645   0.85517   0.00000  Uiso   1.00
H1459  H     0.90691   0.89389   0.82997   0.00000  Uiso   1.00
H1460  H     0.93113   0.94073   0.85963   0.00000  Uiso   1.00
H1461  H     0.91834   0.94272   0.76554   0.00000  Uiso   1.00
H1462  H     0.92581   0.98733   0.80038   0.00000  Uiso   1.00
C1463  C     0.87167   0.71075   0.82845   0.00000  Uiso   1.00
C1464  C     0.91198   0.73904   0.82851   0.00000  Uiso   1.00
H1465  H     0.92869   0.73264   0.79793   0.00000  Uiso   1.00
H1466  H     0.90618   0.77593   0.83172   0.00000  Uiso   1.00
H1467  H     0.93297   0.72979   0.85802   0.00000  Uiso   1.00
H1468  H     0.84692   0.72688   0.84612   0.00000  Uiso   1.00
H1469  H     0.87827   0.68244   0.85224   0.00000  Uiso   1.00
C1470  C     0.76279   0.95608   0.70543   0.00000  Uiso   1.00
C1471  C     0.76287   0.92771   0.66220   0.00000  Uiso   1.00
H1472  H     0.79182   0.93292   0.64492   0.00000  Uiso   1.00
H1473  H     0.75820   0.89099   0.66916   0.00000  Uiso   1.00
H1474  H     0.73665   0.93780   0.63847   0.00000  Uiso   1.00
H1475  H     0.74598   0.93982   0.73201   0.00000  Uiso   1.00
H1476  H     0.74137   0.98432   0.69798   0.00000  Uiso   1.00
loop_
_geom_bond_atom_site_label_1
_geom_bond_atom_site_label_2
_geom_bond_distance
_geom_bond_site_symmetry_2
_ccdc_geom_bond_type
C1     O50     1.311   .     A
C1     O47     1.311   .     A
C1     C10     1.445   .     S
C2     O48     1.309   .     A
C2     O49     1.316   .     A
C2     C9      1.451   .     S
C3     C28     1.402   .     A
C3     H39     1.084   .     S
C3     C767    1.395   1_554 S
C4     H40     1.084   .     S
C4     C27     1.402   .     A
C4     C768    1.395   .     S
C5     H41     1.080   .     S
C5     C10     1.399   .     A
C5     C171    1.385   1_455 S
C6     C9      1.399   .     A
C6     H42     1.072   .     S
C6     C90     1.381   .     S
C7     H43     1.083   .     S
C7     C9      1.401   .     A
C7     C87     1.385   .     S
C8     H44     1.083   .     S
C8     C10     1.397   .     A
C8     C170    1.381   1_455 S
C11    C55     1.531   .     S
C11    N46     1.391   .     A
C11    C506    1.435   1_545 S
C12    C62     1.517   .     S
C12    N45     1.386   .     A
C12    C259    1.433   .     S
C13    N46     1.390   .     A
C13    C69     1.531   .     S
C13    C504    1.433   1_545 S
C14    N45     1.390   .     A
C14    C76     1.527   .     S
C14    C257    1.435   .     S
C15    C20     1.439   .     S
C15    O54     1.310   .     A
C15    O51     1.310   .     A
C16    O53     1.310   .     A
C16    O52     1.310   .     A
C16    C19     1.439   .     S
C17    H33     1.084   .     S
C17    C27     1.393   .     A
C17    C19     1.396   .     A
C18    C28     1.393   .     A
C18    H34     1.085   .     S
C18    C20     1.396   .     A
C19    C21     1.396   .     A
C20    C22     1.396   .     A
C21    C23     1.394   .     A
C21    H35     1.085   .     S
C22    C24     1.394   .     A
C22    H36     1.085   .     S
C23    C29     1.402   .     A
C23    C25     1.413   .     A
C24    C26     1.413   .     A
C24    C30     1.402   .     A
C25    C27     1.413   .     A
C25    C764    1.401   .     S
C26    C28     1.413   .     A
C26    C763    1.401   1_554 S
C29    H37     1.084   .     S
C29    C741    1.395   .     S
C30    H38     1.084   .     S
C30    C742    1.395   1_554 S
Cu31   O47     1.954   .     S
Cu31   O49     1.961   .     S
Cu31   Cu32    2.749   .     S
Cu31   O53     1.949   .     S
Cu31   N45     2.066   .     S
Cu31   O51     1.947   .     S
Cu32   O52     1.947   .     S
Cu32   O48     1.954   .     S
Cu32   O54     1.949   .     S
Cu32   O50     1.961   .     S
Cu32   N46     2.066   .     S
C55    C56     1.536   .     S
C55    H60     1.104   .     S
C55    H61     1.107   .     S
C56    H57     1.103   .     S
C56    H59     1.110   .     S
C56    H58     1.097   .     S
C62    H67     1.096   .     S
C62    C63     1.534   .     S
C62    H68     1.107   .     S
C63    H65     1.105   .     S
C63    H66     1.111   .     S
C63    H64     1.110   .     S
C69    H74     1.101   .     S
C69    H75     1.107   .     S
C69    C70     1.535   .     S
C70    H71     1.110   .     S
C70    H73     1.111   .     S
C70    H72     1.105   .     S
C76    C77     1.533   .     S
C76    H82     1.101   .     S
C76    H81     1.098   .     S
C77    H78     1.109   .     S
C77    H79     1.107   .     S
C77    H80     1.111   .     S
C83    O132    1.311   .     A
C83    O129    1.311   .     A
C83    C92     1.445   .     S
C84    O130    1.309   .     A
C84    O131    1.316   .     A
C84    C91     1.451   .     S
C85    C110    1.402   .     A
C85    H121    1.084   .     S
C85    C849    1.395   1_554 S
C86    H122    1.084   .     S
C86    C109    1.402   .     A
C86    C850    1.395   .     S
C87    H123    1.080   .     S
C87    C92     1.399   .     A
C88    C91     1.399   .     A
C88    H124    1.072   .     S
C88    C172    1.381   .     S
C89    H125    1.083   .     S
C89    C91     1.401   .     A
C89    C169    1.385   .     S
C90    H126    1.083   .     S
C90    C92     1.397   .     A
C93    C137    1.531   .     S
C93    N128    1.391   .     A
C93    C588    1.435   1_545 S
C94    C144    1.517   .     S
C94    N127    1.386   .     A
C94    C341    1.433   .     S
C95    N128    1.390   .     A
C95    C151    1.531   .     S
C95    C586    1.433   1_545 S
C96    N127    1.390   .     A
C96    C158    1.527   .     S
C96    C339    1.435   .     S
C97    C102    1.439   .     S
C97    O136    1.310   .     A
C97    O133    1.310   .     A
C98    O135    1.310   .     A
C98    O134    1.310   .     A
C98    C101    1.439   .     S
C99    H115    1.084   .     S
C99    C109    1.393   .     A
C99    C101    1.396   .     A
C100   C110    1.393   .     A
C100   H116    1.085   .     S
C100   C102    1.396   .     A
C101   C103    1.396   .     A
C102   C104    1.396   .     A
C103   C105    1.394   .     A
C103   H117    1.085   .     S
C104   C106    1.394   .     A
C104   H118    1.085   .     S
C105   C111    1.402   .     A
C105   C107    1.413   .     A
C106   C108    1.413   .     A
C106   C112    1.402   .     A
C107   C109    1.413   .     A
C107   C846    1.401   .     S
C108   C110    1.413   .     A
C108   C845    1.401   1_554 S
C111   H119    1.084   .     S
C111   C823    1.395   .     S
C112   H120    1.084   .     S
C112   C824    1.395   1_554 S
Cu113  O129    1.954   .     S
Cu113  O131    1.961   .     S
Cu113  Cu114   2.749   .     S
Cu113  O135    1.949   .     S
Cu113  N127    2.066   .     S
Cu113  O133    1.947   .     S
Cu114  O134    1.947   .     S
Cu114  O130    1.954   .     S
Cu114  O136    1.949   .     S
Cu114  O132    1.961   .     S
Cu114  N128    2.066   .     S
C137   C138    1.536   .     S
C137   H142    1.104   .     S
C137   H143    1.107   .     S
C138   H139    1.103   .     S
C138   H141    1.110   .     S
C138   H140    1.097   .     S
C144   H149    1.096   .     S
C144   C145    1.534   .     S
C144   H150    1.107   .     S
C145   H147    1.105   .     S
C145   H148    1.111   .     S
C145   H146    1.110   .     S
C151   H156    1.101   .     S
C151   H157    1.107   .     S
C151   C152    1.535   .     S
C152   H153    1.110   .     S
C152   H155    1.111   .     S
C152   H154    1.105   .     S
C158   C159    1.533   .     S
C158   H164    1.101   .     S
C158   H163    1.098   .     S
C159   H160    1.109   .     S
C159   H161    1.107   .     S
C159   H162    1.111   .     S
C165   O214    1.311   .     A
C165   O211    1.311   .     A
C165   C174    1.445   .     S
C166   O212    1.309   .     A
C166   O213    1.316   .     A
C166   C173    1.451   .     S
C167   C192    1.402   .     A
C167   H203    1.084   .     S
C167   C931    1.395   1_554 S
C168   H204    1.084   .     S
C168   C191    1.402   .     A
C168   C932    1.395   .     S
C169   H205    1.080   .     S
C169   C174    1.399   .     A
C170   C173    1.399   .     A
C170   H206    1.072   .     S
C170   C8      1.381   1_655 S
C171   H207    1.083   .     S
C171   C173    1.401   .     A
C171   C5      1.385   1_655 S
C172   H208    1.083   .     S
C172   C174    1.397   .     A
C175   C219    1.531   .     S
C175   N210    1.391   .     A
C175   C670    1.435   1_545 S
C176   C226    1.517   .     S
C176   N209    1.386   .     A
C176   C423    1.433   .     S
C177   N210    1.390   .     A
C177   C233    1.531   .     S
C177   C668    1.433   1_545 S
C178   N209    1.390   .     A
C178   C240    1.527   .     S
C178   C421    1.435   .     S
C179   C184    1.439   .     S
C179   O218    1.310   .     A
C179   O215    1.310   .     A
C180   O217    1.310   .     A
C180   O216    1.310   .     A
C180   C183    1.439   .     S
C181   H197    1.084   .     S
C181   C191    1.393   .     A
C181   C183    1.396   .     A
C182   C192    1.393   .     A
C182   H198    1.085   .     S
C182   C184    1.396   .     A
C183   C185    1.396   .     A
C184   C186    1.396   .     A
C185   C187    1.394   .     A
C185   H199    1.085   .     S
C186   C188    1.394   .     A
C186   H200    1.085   .     S
C187   C193    1.402   .     A
C187   C189    1.413   .     A
C188   C190    1.413   .     A
C188   C194    1.402   .     A
C189   C191    1.413   .     A
C189   C928    1.401   .     S
C190   C192    1.413   .     A
C190   C927    1.401   1_554 S
C193   H201    1.084   .     S
C193   C905    1.395   .     S
C194   H202    1.084   .     S
C194   C906    1.395   1_554 S
Cu195  O211    1.954   .     S
Cu195  O213    1.961   .     S
Cu195  Cu196   2.749   .     S
Cu195  O217    1.949   .     S
Cu195  N209    2.066   .     S
Cu195  O215    1.947   .     S
Cu196  O216    1.947   .     S
Cu196  O212    1.954   .     S
Cu196  O218    1.949   .     S
Cu196  O214    1.961   .     S
Cu196  N210    2.066   .     S
C219   C220    1.536   .     S
C219   H224    1.104   .     S
C219   H225    1.107   .     S
C220   H221    1.103   .     S
C220   H223    1.110   .     S
C220   H222    1.097   .     S
C226   H231    1.096   .     S
C226   C227    1.534   .     S
C226   H232    1.107   .     S
C227   H229    1.105   .     S
C227   H230    1.111   .     S
C227   H228    1.110   .     S
C233   H238    1.101   .     S
C233   H239    1.107   .     S
C233   C234    1.535   .     S
C234   H235    1.110   .     S
C234   H237    1.111   .     S
C234   H236    1.105   .     S
C240   C241    1.533   .     S
C240   H246    1.101   .     S
C240   H245    1.098   .     S
C241   H242    1.109   .     S
C241   H243    1.107   .     S
C241   H244    1.111   .     S
C247   O296    1.311   .     A
C247   O293    1.311   .     A
C247   C256    1.445   .     S
C248   O294    1.309   .     A
C248   O295    1.316   .     A
C248   C255    1.451   .     S
C249   C274    1.402   .     A
C249   H285    1.084   .     S
C249   C1013   1.395   1_554 S
C250   H286    1.084   .     S
C250   C273    1.402   .     A
C250   C1014   1.395   .     S
C251   H287    1.080   .     S
C251   C256    1.399   .     A
C251   C417    1.385   1_455 S
C252   C255    1.399   .     A
C252   H288    1.072   .     S
C252   C336    1.381   .     S
C253   H289    1.083   .     S
C253   C255    1.401   .     A
C253   C333    1.385   .     S
C254   H290    1.083   .     S
C254   C256    1.397   .     A
C254   C416    1.381   1_455 S
C257   C301    1.531   .     S
C257   N292    1.391   .     A
C258   C308    1.517   .     S
C258   N291    1.386   .     A
C258   C505    1.433   .     S
C259   N292    1.390   .     A
C259   C315    1.531   .     S
C260   N291    1.390   .     A
C260   C322    1.527   .     S
C260   C503    1.435   .     S
C261   C266    1.439   .     S
C261   O300    1.310   .     A
C261   O297    1.310   .     A
C262   O299    1.310   .     A
C262   O298    1.310   .     A
C262   C265    1.439   .     S
C263   H279    1.084   .     S
C263   C273    1.393   .     A
C263   C265    1.396   .     A
C264   C274    1.393   .     A
C264   H280    1.085   .     S
C264   C266    1.396   .     A
C265   C267    1.396   .     A
C266   C268    1.396   .     A
C267   C269    1.394   .     A
C267   H281    1.085   .     S
C268   C270    1.394   .     A
C268   H282    1.085   .     S
C269   C275    1.402   .     A
C269   C271    1.413   .     A
C270   C272    1.413   .     A
C270   C276    1.402   .     A
C271   C273    1.413   .     A
C271   C1010   1.401   .     S
C272   C274    1.413   .     A
C272   C1009   1.401   1_554 S
C275   H283    1.084   .     S
C275   C987    1.395   .     S
C276   H284    1.084   .     S
C276   C988    1.395   1_554 S
Cu277  O293    1.954   .     S
Cu277  O295    1.961   .     S
Cu277  Cu278   2.749   .     S
Cu277  O299    1.949   .     S
Cu277  N291    2.066   .     S
Cu277  O297    1.947   .     S
Cu278  O298    1.947   .     S
Cu278  O294    1.954   .     S
Cu278  O300    1.949   .     S
Cu278  O296    1.961   .     S
Cu278  N292    2.066   .     S
C301   C302    1.536   .     S
C301   H306    1.104   .     S
C301   H307    1.107   .     S
C302   H303    1.103   .     S
C302   H305    1.110   .     S
C302   H304    1.097   .     S
C308   H313    1.096   .     S
C308   C309    1.534   .     S
C308   H314    1.107   .     S
C309   H311    1.105   .     S
C309   H312    1.111   .     S
C309   H310    1.110   .     S
C315   H320    1.101   .     S
C315   H321    1.107   .     S
C315   C316    1.535   .     S
C316   H317    1.110   .     S
C316   H319    1.111   .     S
C316   H318    1.105   .     S
C322   C323    1.533   .     S
C322   H328    1.101   .     S
C322   H327    1.098   .     S
C323   H324    1.109   .     S
C323   H325    1.107   .     S
C323   H326    1.111   .     S
C329   O378    1.311   .     A
C329   O375    1.311   .     A
C329   C338    1.445   .     S
C330   O376    1.309   .     A
C330   O377    1.316   .     A
C330   C337    1.451   .     S
C331   C356    1.402   .     A
C331   H367    1.084   .     S
C331   C1095   1.395   1_554 S
C332   H368    1.084   .     S
C332   C355    1.402   .     A
C332   C1096   1.395   .     S
C333   H369    1.080   .     S
C333   C338    1.399   .     A
C334   C337    1.399   .     A
C334   H370    1.072   .     S
C334   C418    1.381   .     S
C335   H371    1.083   .     S
C335   C337    1.401   .     A
C335   C415    1.385   .     S
C336   H372    1.083   .     S
C336   C338    1.397   .     A
C339   C383    1.531   .     S
C339   N374    1.391   .     A
C340   C390    1.517   .     S
C340   N373    1.386   .     A
C340   C587    1.433   .     S
C341   N374    1.390   .     A
C341   C397    1.531   .     S
C342   N373    1.390   .     A
C342   C404    1.527   .     S
C342   C585    1.435   .     S
C343   C348    1.439   .     S
C343   O382    1.310   .     A
C343   O379    1.310   .     A
C344   O381    1.310   .     A
C344   O380    1.310   .     A
C344   C347    1.439   .     S
C345   H361    1.084   .     S
C345   C355    1.393   .     A
C345   C347    1.396   .     A
C346   C356    1.393   .     A
C346   H362    1.085   .     S
C346   C348    1.396   .     A
C347   C349    1.396   .     A
C348   C350    1.396   .     A
C349   C351    1.394   .     A
C349   H363    1.085   .     S
C350   C352    1.394   .     A
C350   H364    1.085   .     S
C351   C357    1.402   .     A
C351   C353    1.413   .     A
C352   C354    1.413   .     A
C352   C358    1.402   .     A
C353   C355    1.413   .     A
C353   C1092   1.401   .     S
C354   C356    1.413   .     A
C354   C1091   1.401   1_554 S
C357   H365    1.084   .     S
C357   C1069   1.395   .     S
C358   H366    1.084   .     S
C358   C1070   1.395   1_554 S
Cu359  O375    1.954   .     S
Cu359  O377    1.961   .     S
Cu359  Cu360   2.749   .     S
Cu359  O381    1.949   .     S
Cu359  N373    2.066   .     S
Cu359  O379    1.947   .     S
Cu360  O380    1.947   .     S
Cu360  O376    1.954   .     S
Cu360  O382    1.949   .     S
Cu360  O378    1.961   .     S
Cu360  N374    2.066   .     S
C383   C384    1.536   .     S
C383   H388    1.104   .     S
C383   H389    1.107   .     S
C384   H385    1.103   .     S
C384   H387    1.110   .     S
C384   H386    1.097   .     S
C390   H395    1.096   .     S
C390   C391    1.534   .     S
C390   H396    1.107   .     S
C391   H393    1.105   .     S
C391   H394    1.111   .     S
C391   H392    1.110   .     S
C397   H402    1.101   .     S
C397   H403    1.107   .     S
C397   C398    1.535   .     S
C398   H399    1.110   .     S
C398   H401    1.111   .     S
C398   H400    1.105   .     S
C404   C405    1.533   .     S
C404   H410    1.101   .     S
C404   H409    1.098   .     S
C405   H406    1.109   .     S
C405   H407    1.107   .     S
C405   H408    1.111   .     S
C411   O460    1.311   .     A
C411   O457    1.311   .     A
C411   C420    1.445   .     S
C412   O458    1.309   .     A
C412   O459    1.316   .     A
C412   C419    1.451   .     S
C413   C438    1.402   .     A
C413   H449    1.084   .     S
C413   C1177   1.395   1_554 S
C414   H450    1.084   .     S
C414   C437    1.402   .     A
C414   C1178   1.395   .     S
C415   H451    1.080   .     S
C415   C420    1.399   .     A
C416   C419    1.399   .     A
C416   H452    1.072   .     S
C416   C254    1.381   1_655 S
C417   H453    1.083   .     S
C417   C419    1.401   .     A
C417   C251    1.385   1_655 S
C418   H454    1.083   .     S
C418   C420    1.397   .     A
C421   C465    1.531   .     S
C421   N456    1.391   .     A
C422   C472    1.517   .     S
C422   N455    1.386   .     A
C422   C669    1.433   .     S
C423   N456    1.390   .     A
C423   C479    1.531   .     S
C424   N455    1.390   .     A
C424   C486    1.527   .     S
C424   C667    1.435   .     S
C425   C430    1.439   .     S
C425   O464    1.310   .     A
C425   O461    1.310   .     A
C426   O463    1.310   .     A
C426   O462    1.310   .     A
C426   C429    1.439   .     S
C427   H443    1.084   .     S
C427   C437    1.393   .     A
C427   C429    1.396   .     A
C428   C438    1.393   .     A
C428   H444    1.085   .     S
C428   C430    1.396   .     A
C429   C431    1.396   .     A
C430   C432    1.396   .     A
C431   C433    1.394   .     A
C431   H445    1.085   .     S
C432   C434    1.394   .     A
C432   H446    1.085   .     S
C433   C439    1.402   .     A
C433   C435    1.413   .     A
C434   C436    1.413   .     A
C434   C440    1.402   .     A
C435   C437    1.413   .     A
C435   C1174   1.401   .     S
C436   C438    1.413   .     A
C436   C1173   1.401   1_554 S
C439   H447    1.084   .     S
C439   C1151   1.395   .     S
C440   H448    1.084   .     S
C440   C1152   1.395   1_554 S
Cu441  O457    1.954   .     S
Cu441  O459    1.961   .     S
Cu441  Cu442   2.749   .     S
Cu441  O463    1.949   .     S
Cu441  N455    2.066   .     S
Cu441  O461    1.947   .     S
Cu442  O462    1.947   .     S
Cu442  O458    1.954   .     S
Cu442  O464    1.949   .     S
Cu442  O460    1.961   .     S
Cu442  N456    2.066   .     S
C465   C466    1.536   .     S
C465   H470    1.104   .     S
C465   H471    1.107   .     S
C466   H467    1.103   .     S
C466   H469    1.110   .     S
C466   H468    1.097   .     S
C472   H477    1.096   .     S
C472   C473    1.534   .     S
C472   H478    1.107   .     S
C473   H475    1.105   .     S
C473   H476    1.111   .     S
C473   H474    1.110   .     S
C479   H484    1.101   .     S
C479   H485    1.107   .     S
C479   C480    1.535   .     S
C480   H481    1.110   .     S
C480   H483    1.111   .     S
C480   H482    1.105   .     S
C486   C487    1.533   .     S
C486   H492    1.101   .     S
C486   H491    1.098   .     S
C487   H488    1.109   .     S
C487   H489    1.107   .     S
C487   H490    1.111   .     S
C493   O542    1.311   .     A
C493   O539    1.311   .     A
C493   C502    1.445   .     S
C494   O540    1.309   .     A
C494   O541    1.316   .     A
C494   C501    1.451   .     S
C495   C520    1.402   .     A
C495   H531    1.084   .     S
C495   C1259   1.395   1_554 S
C496   H532    1.084   .     S
C496   C519    1.402   .     A
C496   C1260   1.395   .     S
C497   H533    1.080   .     S
C497   C502    1.399   .     A
C497   C663    1.385   1_455 S
C498   C501    1.399   .     A
C498   H534    1.072   .     S
C498   C582    1.381   .     S
C499   H535    1.083   .     S
C499   C501    1.401   .     A
C499   C579    1.385   .     S
C500   H536    1.083   .     S
C500   C502    1.397   .     A
C500   C662    1.381   1_455 S
C503   C547    1.531   .     S
C503   N538    1.391   .     A
C504   C554    1.517   .     S
C504   N537    1.386   .     A
C504   C13     1.433   1_565 S
C505   N538    1.390   .     A
C505   C561    1.531   .     S
C506   N537    1.390   .     A
C506   C568    1.527   .     S
C506   C11     1.435   1_565 S
C507   C512    1.439   .     S
C507   O546    1.310   .     A
C507   O543    1.310   .     A
C508   O545    1.310   .     A
C508   O544    1.310   .     A
C508   C511    1.439   .     S
C509   H525    1.084   .     S
C509   C519    1.393   .     A
C509   C511    1.396   .     A
C510   C520    1.393   .     A
C510   H526    1.085   .     S
C510   C512    1.396   .     A
C511   C513    1.396   .     A
C512   C514    1.396   .     A
C513   C515    1.394   .     A
C513   H527    1.085   .     S
C514   C516    1.394   .     A
C514   H528    1.085   .     S
C515   C521    1.402   .     A
C515   C517    1.413   .     A
C516   C518    1.413   .     A
C516   C522    1.402   .     A
C517   C519    1.413   .     A
C517   C1256   1.401   .     S
C518   C520    1.413   .     A
C518   C1255   1.401   1_554 S
C521   H529    1.084   .     S
C521   C1233   1.395   .     S
C522   H530    1.084   .     S
C522   C1234   1.395   1_554 S
Cu523  O539    1.954   .     S
Cu523  O541    1.961   .     S
Cu523  Cu524   2.749   .     S
Cu523  O545    1.949   .     S
Cu523  N537    2.066   .     S
Cu523  O543    1.947   .     S
Cu524  O544    1.947   .     S
Cu524  O540    1.954   .     S
Cu524  O546    1.949   .     S
Cu524  O542    1.961   .     S
Cu524  N538    2.066   .     S
C547   C548    1.536   .     S
C547   H552    1.104   .     S
C547   H553    1.107   .     S
C548   H549    1.103   .     S
C548   H551    1.110   .     S
C548   H550    1.097   .     S
C554   H559    1.096   .     S
C554   C555    1.534   .     S
C554   H560    1.107   .     S
C555   H557    1.105   .     S
C555   H558    1.111   .     S
C555   H556    1.110   .     S
C561   H566    1.101   .     S
C561   H567    1.107   .     S
C561   C562    1.535   .     S
C562   H563    1.110   .     S
C562   H565    1.111   .     S
C562   H564    1.105   .     S
C568   C569    1.533   .     S
C568   H574    1.101   .     S
C568   H573    1.098   .     S
C569   H570    1.109   .     S
C569   H571    1.107   .     S
C569   H572    1.111   .     S
C575   O624    1.311   .     A
C575   O621    1.311   .     A
C575   C584    1.445   .     S
C576   O622    1.309   .     A
C576   O623    1.316   .     A
C576   C583    1.451   .     S
C577   C602    1.402   .     A
C577   H613    1.084   .     S
C577   C1341   1.395   1_554 S
C578   H614    1.084   .     S
C578   C601    1.402   .     A
C578   C1342   1.395   .     S
C579   H615    1.080   .     S
C579   C584    1.399   .     A
C580   C583    1.399   .     A
C580   H616    1.072   .     S
C580   C664    1.381   .     S
C581   H617    1.083   .     S
C581   C583    1.401   .     A
C581   C661    1.385   .     S
C582   H618    1.083   .     S
C582   C584    1.397   .     A
C585   C629    1.531   .     S
C585   N620    1.391   .     A
C586   C636    1.517   .     S
C586   N619    1.386   .     A
C586   C95     1.433   1_565 S
C587   N620    1.390   .     A
C587   C643    1.531   .     S
C588   N619    1.390   .     A
C588   C650    1.527   .     S
C588   C93     1.435   1_565 S
C589   C594    1.439   .     S
C589   O628    1.310   .     A
C589   O625    1.310   .     A
C590   O627    1.310   .     A
C590   O626    1.310   .     A
C590   C593    1.439   .     S
C591   H607    1.084   .     S
C591   C601    1.393   .     A
C591   C593    1.396   .     A
C592   C602    1.393   .     A
C592   H608    1.085   .     S
C592   C594    1.396   .     A
C593   C595    1.396   .     A
C594   C596    1.396   .     A
C595   C597    1.394   .     A
C595   H609    1.085   .     S
C596   C598    1.394   .     A
C596   H610    1.085   .     S
C597   C603    1.402   .     A
C597   C599    1.413   .     A
C598   C600    1.413   .     A
C598   C604    1.402   .     A
C599   C601    1.413   .     A
C599   C1338   1.401   .     S
C600   C602    1.413   .     A
C600   C1337   1.401   1_554 S
C603   H611    1.084   .     S
C603   C1315   1.395   .     S
C604   H612    1.084   .     S
C604   C1316   1.395   1_554 S
Cu605  O621    1.954   .     S
Cu605  O623    1.961   .     S
Cu605  Cu606   2.749   .     S
Cu605  O627    1.949   .     S
Cu605  N619    2.066   .     S
Cu605  O625    1.947   .     S
Cu606  O626    1.947   .     S
Cu606  O622    1.954   .     S
Cu606  O628    1.949   .     S
Cu606  O624    1.961   .     S
Cu606  N620    2.066   .     S
C629   C630    1.536   .     S
C629   H634    1.104   .     S
C629   H635    1.107   .     S
C630   H631    1.103   .     S
C630   H633    1.110   .     S
C630   H632    1.097   .     S
C636   H641    1.096   .     S
C636   C637    1.534   .     S
C636   H642    1.107   .     S
C637   H639    1.105   .     S
C637   H640    1.111   .     S
C637   H638    1.110   .     S
C643   H648    1.101   .     S
C643   H649    1.107   .     S
C643   C644    1.535   .     S
C644   H645    1.110   .     S
C644   H647    1.111   .     S
C644   H646    1.105   .     S
C650   C651    1.533   .     S
C650   H656    1.101   .     S
C650   H655    1.098   .     S
C651   H652    1.109   .     S
C651   H653    1.107   .     S
C651   H654    1.111   .     S
C657   O706    1.311   .     A
C657   O703    1.311   .     A
C657   C666    1.445   .     S
C658   O704    1.309   .     A
C658   O705    1.316   .     A
C658   C665    1.451   .     S
C659   C684    1.402   .     A
C659   H695    1.084   .     S
C659   C1423   1.395   1_554 S
C660   H696    1.084   .     S
C660   C683    1.402   .     A
C660   C1424   1.395   .     S
C661   H697    1.080   .     S
C661   C666    1.399   .     A
C662   C665    1.399   .     A
C662   H698    1.072   .     S
C662   C500    1.381   1_655 S
C663   H699    1.083   .     S
C663   C665    1.401   .     A
C663   C497    1.385   1_655 S
C664   H700    1.083   .     S
C664   C666    1.397   .     A
C667   C711    1.531   .     S
C667   N702    1.391   .     A
C668   C718    1.517   .     S
C668   N701    1.386   .     A
C668   C177    1.433   1_565 S
C669   N702    1.390   .     A
C669   C725    1.531   .     S
C670   N701    1.390   .     A
C670   C732    1.527   .     S
C670   C175    1.435   1_565 S
C671   C676    1.439   .     S
C671   O710    1.310   .     A
C671   O707    1.310   .     A
C672   O709    1.310   .     A
C672   O708    1.310   .     A
C672   C675    1.439   .     S
C673   H689    1.084   .     S
C673   C683    1.393   .     A
C673   C675    1.396   .     A
C674   C684    1.393   .     A
C674   H690    1.085   .     S
C674   C676    1.396   .     A
C675   C677    1.396   .     A
C676   C678    1.396   .     A
C677   C679    1.394   .     A
C677   H691    1.085   .     S
C678   C680    1.394   .     A
C678   H692    1.085   .     S
C679   C685    1.402   .     A
C679   C681    1.413   .     A
C680   C682    1.413   .     A
C680   C686    1.402   .     A
C681   C683    1.413   .     A
C681   C1420   1.401   .     S
C682   C684    1.413   .     A
C682   C1419   1.401   1_554 S
C685   H693    1.084   .     S
C685   C1397   1.395   .     S
C686   H694    1.084   .     S
C686   C1398   1.395   1_554 S
Cu687  O703    1.954   .     S
Cu687  O705    1.961   .     S
Cu687  Cu688   2.749   .     S
Cu687  O709    1.949   .     S
Cu687  N701    2.066   .     S
Cu687  O707    1.947   .     S
Cu688  O708    1.947   .     S
Cu688  O704    1.954   .     S
Cu688  O710    1.949   .     S
Cu688  O706    1.961   .     S
Cu688  N702    2.066   .     S
C711   C712    1.536   .     S
C711   H716    1.104   .     S
C711   H717    1.107   .     S
C712   H713    1.103   .     S
C712   H715    1.110   .     S
C712   H714    1.097   .     S
C718   H723    1.096   .     S
C718   C719    1.534   .     S
C718   H724    1.107   .     S
C719   H721    1.105   .     S
C719   H722    1.111   .     S
C719   H720    1.110   .     S
C725   H730    1.101   .     S
C725   H731    1.107   .     S
C725   C726    1.535   .     S
C726   H727    1.110   .     S
C726   H729    1.111   .     S
C726   H728    1.105   .     S
C732   C733    1.533   .     S
C732   H738    1.101   .     S
C732   H737    1.098   .     S
C733   H734    1.109   .     S
C733   H735    1.107   .     S
C733   H736    1.111   .     S
C739   O788    1.311   .     A
C739   O785    1.311   .     A
C739   C748    1.445   .     S
C740   O786    1.309   .     A
C740   O787    1.316   .     A
C740   C747    1.451   .     S
C741   C766    1.402   .     A
C741   H777    1.084   .     S
C742   H778    1.084   .     S
C742   C765    1.402   .     A
C742   C30     1.395   1_556 S
C743   H779    1.080   .     S
C743   C748    1.399   .     A
C743   C909    1.385   1_455 S
C744   C747    1.399   .     A
C744   H780    1.072   .     S
C744   C828    1.381   .     S
C745   H781    1.083   .     S
C745   C747    1.401   .     A
C745   C825    1.385   .     S
C746   H782    1.083   .     S
C746   C748    1.397   .     A
C746   C908    1.381   1_455 S
C749   C793    1.531   .     S
C749   N784    1.391   .     A
C749   C1244   1.435   1_545 S
C750   C800    1.517   .     S
C750   N783    1.386   .     A
C750   C997    1.433   .     S
C751   N784    1.390   .     A
C751   C807    1.531   .     S
C751   C1242   1.433   1_545 S
C752   N783    1.390   .     A
C752   C814    1.527   .     S
C752   C995    1.435   .     S
C753   C758    1.439   .     S
C753   O792    1.310   .     A
C753   O789    1.310   .     A
C754   O791    1.310   .     A
C754   O790    1.310   .     A
C754   C757    1.439   .     S
C755   H771    1.084   .     S
C755   C765    1.393   .     A
C755   C757    1.396   .     A
C756   C766    1.393   .     A
C756   H772    1.085   .     S
C756   C758    1.396   .     A
C757   C759    1.396   .     A
C758   C760    1.396   .     A
C759   C761    1.394   .     A
C759   H773    1.085   .     S
C760   C762    1.394   .     A
C760   H774    1.085   .     S
C761   C767    1.402   .     A
C761   C763    1.413   .     A
C762   C764    1.413   .     A
C762   C768    1.402   .     A
C763   C765    1.413   .     A
C763   C26     1.401   1_556 S
C764   C766    1.413   .     A
C767   H775    1.084   .     S
C767   C3      1.395   1_556 S
C768   H776    1.084   .     S
Cu769  O785    1.954   .     S
Cu769  O787    1.961   .     S
Cu769  Cu770   2.749   .     S
Cu769  O791    1.949   .     S
Cu769  N783    2.066   .     S
Cu769  O789    1.947   .     S
Cu770  O790    1.947   .     S
Cu770  O786    1.954   .     S
Cu770  O792    1.949   .     S
Cu770  O788    1.961   .     S
Cu770  N784    2.066   .     S
C793   C794    1.536   .     S
C793   H798    1.104   .     S
C793   H799    1.107   .     S
C794   H795    1.103   .     S
C794   H797    1.110   .     S
C794   H796    1.097   .     S
C800   H805    1.096   .     S
C800   C801    1.534   .     S
C800   H806    1.107   .     S
C801   H803    1.105   .     S
C801   H804    1.111   .     S
C801   H802    1.110   .     S
C807   H812    1.101   .     S
C807   H813    1.107   .     S
C807   C808    1.535   .     S
C808   H809    1.110   .     S
C808   H811    1.111   .     S
C808   H810    1.105   .     S
C814   C815    1.533   .     S
C814   H820    1.101   .     S
C814   H819    1.098   .     S
C815   H816    1.109   .     S
C815   H817    1.107   .     S
C815   H818    1.111   .     S
C821   O870    1.311   .     A
C821   O867    1.311   .     A
C821   C830    1.445   .     S
C822   O868    1.309   .     A
C822   O869    1.316   .     A
C822   C829    1.451   .     S
C823   C848    1.402   .     A
C823   H859    1.084   .     S
C824   H860    1.084   .     S
C824   C847    1.402   .     A
C824   C112    1.395   1_556 S
C825   H861    1.080   .     S
C825   C830    1.399   .     A
C826   C829    1.399   .     A
C826   H862    1.072   .     S
C826   C910    1.381   .     S
C827   H863    1.083   .     S
C827   C829    1.401   .     A
C827   C907    1.385   .     S
C828   H864    1.083   .     S
C828   C830    1.397   .     A
C831   C875    1.531   .     S
C831   N866    1.391   .     A
C831   C1326   1.435   1_545 S
C832   C882    1.517   .     S
C832   N865    1.386   .     A
C832   C1079   1.433   .     S
C833   N866    1.390   .     A
C833   C889    1.531   .     S
C833   C1324   1.433   1_545 S
C834   N865    1.390   .     A
C834   C896    1.527   .     S
C834   C1077   1.435   .     S
C835   C840    1.439   .     S
C835   O874    1.310   .     A
C835   O871    1.310   .     A
C836   O873    1.310   .     A
C836   O872    1.310   .     A
C836   C839    1.439   .     S
C837   H853    1.084   .     S
C837   C847    1.393   .     A
C837   C839    1.396   .     A
C838   C848    1.393   .     A
C838   H854    1.085   .     S
C838   C840    1.396   .     A
C839   C841    1.396   .     A
C840   C842    1.396   .     A
C841   C843    1.394   .     A
C841   H855    1.085   .     S
C842   C844    1.394   .     A
C842   H856    1.085   .     S
C843   C849    1.402   .     A
C843   C845    1.413   .     A
C844   C846    1.413   .     A
C844   C850    1.402   .     A
C845   C847    1.413   .     A
C845   C108    1.401   1_556 S
C846   C848    1.413   .     A
C849   H857    1.084   .     S
C849   C85     1.395   1_556 S
C850   H858    1.084   .     S
Cu851  O867    1.954   .     S
Cu851  O869    1.961   .     S
Cu851  Cu852   2.749   .     S
Cu851  O873    1.949   .     S
Cu851  N865    2.066   .     S
Cu851  O871    1.947   .     S
Cu852  O872    1.947   .     S
Cu852  O868    1.954   .     S
Cu852  O874    1.949   .     S
Cu852  O870    1.961   .     S
Cu852  N866    2.066   .     S
C875   C876    1.536   .     S
C875   H880    1.104   .     S
C875   H881    1.107   .     S
C876   H877    1.103   .     S
C876   H879    1.110   .     S
C876   H878    1.097   .     S
C882   H887    1.096   .     S
C882   C883    1.534   .     S
C882   H888    1.107   .     S
C883   H885    1.105   .     S
C883   H886    1.111   .     S
C883   H884    1.110   .     S
C889   H894    1.101   .     S
C889   H895    1.107   .     S
C889   C890    1.535   .     S
C890   H891    1.110   .     S
C890   H893    1.111   .     S
C890   H892    1.105   .     S
C896   C897    1.533   .     S
C896   H902    1.101   .     S
C896   H901    1.098   .     S
C897   H898    1.109   .     S
C897   H899    1.107   .     S
C897   H900    1.111   .     S
C903   O952    1.311   .     A
C903   O949    1.311   .     A
C903   C912    1.445   .     S
C904   O950    1.309   .     A
C904   O951    1.316   .     A
C904   C911    1.451   .     S
C905   C930    1.402   .     A
C905   H941    1.084   .     S
C906   H942    1.084   .     S
C906   C929    1.402   .     A
C906   C194    1.395   1_556 S
C907   H943    1.080   .     S
C907   C912    1.399   .     A
C908   C911    1.399   .     A
C908   H944    1.072   .     S
C908   C746    1.381   1_655 S
C909   H945    1.083   .     S
C909   C911    1.401   .     A
C909   C743    1.385   1_655 S
C910   H946    1.083   .     S
C910   C912    1.397   .     A
C913   C957    1.531   .     S
C913   N948    1.391   .     A
C913   C1408   1.435   1_545 S
C914   C964    1.517   .     S
C914   N947    1.386   .     A
C914   C1161   1.433   .     S
C915   N948    1.390   .     A
C915   C971    1.531   .     S
C915   C1406   1.433   1_545 S
C916   N947    1.390   .     A
C916   C978    1.527   .     S
C916   C1159   1.435   .     S
C917   C922    1.439   .     S
C917   O956    1.310   .     A
C917   O953    1.310   .     A
C918   O955    1.310   .     A
C918   O954    1.310   .     A
C918   C921    1.439   .     S
C919   H935    1.084   .     S
C919   C929    1.393   .     A
C919   C921    1.396   .     A
C920   C930    1.393   .     A
C920   H936    1.085   .     S
C920   C922    1.396   .     A
C921   C923    1.396   .     A
C922   C924    1.396   .     A
C923   C925    1.394   .     A
C923   H937    1.085   .     S
C924   C926    1.394   .     A
C924   H938    1.085   .     S
C925   C931    1.402   .     A
C925   C927    1.413   .     A
C926   C928    1.413   .     A
C926   C932    1.402   .     A
C927   C929    1.413   .     A
C927   C190    1.401   1_556 S
C928   C930    1.413   .     A
C931   H939    1.084   .     S
C931   C167    1.395   1_556 S
C932   H940    1.084   .     S
Cu933  O949    1.954   .     S
Cu933  O951    1.961   .     S
Cu933  Cu934   2.749   .     S
Cu933  O955    1.949   .     S
Cu933  N947    2.066   .     S
Cu933  O953    1.947   .     S
Cu934  O954    1.947   .     S
Cu934  O950    1.954   .     S
Cu934  O956    1.949   .     S
Cu934  O952    1.961   .     S
Cu934  N948    2.066   .     S
C957   C958    1.536   .     S
C957   H962    1.104   .     S
C957   H963    1.107   .     S
C958   H959    1.103   .     S
C958   H961    1.110   .     S
C958   H960    1.097   .     S
C964   H969    1.096   .     S
C964   C965    1.534   .     S
C964   H970    1.107   .     S
C965   H967    1.105   .     S
C965   H968    1.111   .     S
C965   H966    1.110   .     S
C971   H976    1.101   .     S
C971   H977    1.107   .     S
C971   C972    1.535   .     S
C972   H973    1.110   .     S
C972   H975    1.111   .     S
C972   H974    1.105   .     S
C978   C979    1.533   .     S
C978   H984    1.101   .     S
C978   H983    1.098   .     S
C979   H980    1.109   .     S
C979   H981    1.107   .     S
C979   H982    1.111   .     S
C985   O1034   1.311   .     A
C985   O1031   1.311   .     A
C985   C994    1.445   .     S
C986   O1032   1.309   .     A
C986   O1033   1.316   .     A
C986   C993    1.451   .     S
C987   C1012   1.402   .     A
C987   H1023   1.084   .     S
C988   H1024   1.084   .     S
C988   C1011   1.402   .     A
C988   C276    1.395   1_556 S
C989   H1025   1.080   .     S
C989   C994    1.399   .     A
C989   C1155   1.385   1_455 S
C990   C993    1.399   .     A
C990   H1026   1.072   .     S
C990   C1074   1.381   .     S
C991   H1027   1.083   .     S
C991   C993    1.401   .     A
C991   C1071   1.385   .     S
C992   H1028   1.083   .     S
C992   C994    1.397   .     A
C992   C1154   1.381   1_455 S
C995   C1039   1.531   .     S
C995   N1030   1.391   .     A
C996   C1046   1.517   .     S
C996   N1029   1.386   .     A
C996   C1243   1.433   .     S
C997   N1030   1.390   .     A
C997   C1053   1.531   .     S
C998   N1029   1.390   .     A
C998   C1060   1.527   .     S
C998   C1241   1.435   .     S
C999   C1004   1.439   .     S
C999   O1038   1.310   .     A
C999   O1035   1.310   .     A
C1000  O1037   1.310   .     A
C1000  O1036   1.310   .     A
C1000  C1003   1.439   .     S
C1001  H1017   1.084   .     S
C1001  C1011   1.393   .     A
C1001  C1003   1.396   .     A
C1002  C1012   1.393   .     A
C1002  H1018   1.085   .     S
C1002  C1004   1.396   .     A
C1003  C1005   1.396   .     A
C1004  C1006   1.396   .     A
C1005  C1007   1.394   .     A
C1005  H1019   1.085   .     S
C1006  C1008   1.394   .     A
C1006  H1020   1.085   .     S
C1007  C1013   1.402   .     A
C1007  C1009   1.413   .     A
C1008  C1010   1.413   .     A
C1008  C1014   1.402   .     A
C1009  C1011   1.413   .     A
C1009  C272    1.401   1_556 S
C1010  C1012   1.413   .     A
C1013  H1021   1.084   .     S
C1013  C249    1.395   1_556 S
C1014  H1022   1.084   .     S
Cu1015 O1031   1.954   .     S
Cu1015 O1033   1.961   .     S
Cu1015 Cu1016  2.749   .     S
Cu1015 O1037   1.949   .     S
Cu1015 N1029   2.066   .     S
Cu1015 O1035   1.947   .     S
Cu1016 O1036   1.947   .     S
Cu1016 O1032   1.954   .     S
Cu1016 O1038   1.949   .     S
Cu1016 O1034   1.961   .     S
Cu1016 N1030   2.066   .     S
C1039  C1040   1.536   .     S
C1039  H1044   1.104   .     S
C1039  H1045   1.107   .     S
C1040  H1041   1.103   .     S
C1040  H1043   1.110   .     S
C1040  H1042   1.097   .     S
C1046  H1051   1.096   .     S
C1046  C1047   1.534   .     S
C1046  H1052   1.107   .     S
C1047  H1049   1.105   .     S
C1047  H1050   1.111   .     S
C1047  H1048   1.110   .     S
C1053  H1058   1.101   .     S
C1053  H1059   1.107   .     S
C1053  C1054   1.535   .     S
C1054  H1055   1.110   .     S
C1054  H1057   1.111   .     S
C1054  H1056   1.105   .     S
C1060  C1061   1.533   .     S
C1060  H1066   1.101   .     S
C1060  H1065   1.098   .     S
C1061  H1062   1.109   .     S
C1061  H1063   1.107   .     S
C1061  H1064   1.111   .     S
C1067  O1116   1.311   .     A
C1067  O1113   1.311   .     A
C1067  C1076   1.445   .     S
C1068  O1114   1.309   .     A
C1068  O1115   1.316   .     A
C1068  C1075   1.451   .     S
C1069  C1094   1.402   .     A
C1069  H1105   1.084   .     S
C1070  H1106   1.084   .     S
C1070  C1093   1.402   .     A
C1070  C358    1.395   1_556 S
C1071  H1107   1.080   .     S
C1071  C1076   1.399   .     A
C1072  C1075   1.399   .     A
C1072  H1108   1.072   .     S
C1072  C1156   1.381   .     S
C1073  H1109   1.083   .     S
C1073  C1075   1.401   .     A
C1073  C1153   1.385   .     S
C1074  H1110   1.083   .     S
C1074  C1076   1.397   .     A
C1077  C1121   1.531   .     S
C1077  N1112   1.391   .     A
C1078  C1128   1.517   .     S
C1078  N1111   1.386   .     A
C1078  C1325   1.433   .     S
C1079  N1112   1.390   .     A
C1079  C1135   1.531   .     S
C1080  N1111   1.390   .     A
C1080  C1142   1.527   .     S
C1080  C1323   1.435   .     S
C1081  C1086   1.439   .     S
C1081  O1120   1.310   .     A
C1081  O1117   1.310   .     A
C1082  O1119   1.310   .     A
C1082  O1118   1.310   .     A
C1082  C1085   1.439   .     S
C1083  H1099   1.084   .     S
C1083  C1093   1.393   .     A
C1083  C1085   1.396   .     A
C1084  C1094   1.393   .     A
C1084  H1100   1.085   .     S
C1084  C1086   1.396   .     A
C1085  C1087   1.396   .     A
C1086  C1088   1.396   .     A
C1087  C1089   1.394   .     A
C1087  H1101   1.085   .     S
C1088  C1090   1.394   .     A
C1088  H1102   1.085   .     S
C1089  C1095   1.402   .     A
C1089  C1091   1.413   .     A
C1090  C1092   1.413   .     A
C1090  C1096   1.402   .     A
C1091  C1093   1.413   .     A
C1091  C354    1.401   1_556 S
C1092  C1094   1.413   .     A
C1095  H1103   1.084   .     S
C1095  C331    1.395   1_556 S
C1096  H1104   1.084   .     S
Cu1097 O1113   1.954   .     S
Cu1097 O1115   1.961   .     S
Cu1097 Cu1098  2.749   .     S
Cu1097 O1119   1.949   .     S
Cu1097 N1111   2.066   .     S
Cu1097 O1117   1.947   .     S
Cu1098 O1118   1.947   .     S
Cu1098 O1114   1.954   .     S
Cu1098 O1120   1.949   .     S
Cu1098 O1116   1.961   .     S
Cu1098 N1112   2.066   .     S
C1121  C1122   1.536   .     S
C1121  H1126   1.104   .     S
C1121  H1127   1.107   .     S
C1122  H1123   1.103   .     S
C1122  H1125   1.110   .     S
C1122  H1124   1.097   .     S
C1128  H1133   1.096   .     S
C1128  C1129   1.534   .     S
C1128  H1134   1.107   .     S
C1129  H1131   1.105   .     S
C1129  H1132   1.111   .     S
C1129  H1130   1.110   .     S
C1135  H1140   1.101   .     S
C1135  H1141   1.107   .     S
C1135  C1136   1.535   .     S
C1136  H1137   1.110   .     S
C1136  H1139   1.111   .     S
C1136  H1138   1.105   .     S
C1142  C1143   1.533   .     S
C1142  H1148   1.101   .     S
C1142  H1147   1.098   .     S
C1143  H1144   1.109   .     S
C1143  H1145   1.107   .     S
C1143  H1146   1.111   .     S
C1149  O1198   1.311   .     A
C1149  O1195   1.311   .     A
C1149  C1158   1.445   .     S
C1150  O1196   1.309   .     A
C1150  O1197   1.316   .     A
C1150  C1157   1.451   .     S
C1151  C1176   1.402   .     A
C1151  H1187   1.084   .     S
C1152  H1188   1.084   .     S
C1152  C1175   1.402   .     A
C1152  C440    1.395   1_556 S
C1153  H1189   1.080   .     S
C1153  C1158   1.399   .     A
C1154  C1157   1.399   .     A
C1154  H1190   1.072   .     S
C1154  C992    1.381   1_655 S
C1155  H1191   1.083   .     S
C1155  C1157   1.401   .     A
C1155  C989    1.385   1_655 S
C1156  H1192   1.083   .     S
C1156  C1158   1.397   .     A
C1159  C1203   1.531   .     S
C1159  N1194   1.391   .     A
C1160  C1210   1.517   .     S
C1160  N1193   1.386   .     A
C1160  C1407   1.433   .     S
C1161  N1194   1.390   .     A
C1161  C1217   1.531   .     S
C1162  N1193   1.390   .     A
C1162  C1224   1.527   .     S
C1162  C1405   1.435   .     S
C1163  C1168   1.439   .     S
C1163  O1202   1.310   .     A
C1163  O1199   1.310   .     A
C1164  O1201   1.310   .     A
C1164  O1200   1.310   .     A
C1164  C1167   1.439   .     S
C1165  H1181   1.084   .     S
C1165  C1175   1.393   .     A
C1165  C1167   1.396   .     A
C1166  C1176   1.393   .     A
C1166  H1182   1.085   .     S
C1166  C1168   1.396   .     A
C1167  C1169   1.396   .     A
C1168  C1170   1.396   .     A
C1169  C1171   1.394   .     A
C1169  H1183   1.085   .     S
C1170  C1172   1.394   .     A
C1170  H1184   1.085   .     S
C1171  C1177   1.402   .     A
C1171  C1173   1.413   .     A
C1172  C1174   1.413   .     A
C1172  C1178   1.402   .     A
C1173  C1175   1.413   .     A
C1173  C436    1.401   1_556 S
C1174  C1176   1.413   .     A
C1177  H1185   1.084   .     S
C1177  C413    1.395   1_556 S
C1178  H1186   1.084   .     S
Cu1179 O1195   1.954   .     S
Cu1179 O1197   1.961   .     S
Cu1179 Cu1180  2.749   .     S
Cu1179 O1201   1.949   .     S
Cu1179 N1193   2.066   .     S
Cu1179 O1199   1.947   .     S
Cu1180 O1200   1.947   .     S
Cu1180 O1196   1.954   .     S
Cu1180 O1202   1.949   .     S
Cu1180 O1198   1.961   .     S
Cu1180 N1194   2.066   .     S
C1203  C1204   1.536   .     S
C1203  H1208   1.104   .     S
C1203  H1209   1.107   .     S
C1204  H1205   1.103   .     S
C1204  H1207   1.110   .     S
C1204  H1206   1.097   .     S
C1210  H1215   1.096   .     S
C1210  C1211   1.534   .     S
C1210  H1216   1.107   .     S
C1211  H1213   1.105   .     S
C1211  H1214   1.111   .     S
C1211  H1212   1.110   .     S
C1217  H1222   1.101   .     S
C1217  H1223   1.107   .     S
C1217  C1218   1.535   .     S
C1218  H1219   1.110   .     S
C1218  H1221   1.111   .     S
C1218  H1220   1.105   .     S
C1224  C1225   1.533   .     S
C1224  H1230   1.101   .     S
C1224  H1229   1.098   .     S
C1225  H1226   1.109   .     S
C1225  H1227   1.107   .     S
C1225  H1228   1.111   .     S
C1231  O1280   1.311   .     A
C1231  O1277   1.311   .     A
C1231  C1240   1.445   .     S
C1232  O1278   1.309   .     A
C1232  O1279   1.316   .     A
C1232  C1239   1.451   .     S
C1233  C1258   1.402   .     A
C1233  H1269   1.084   .     S
C1234  H1270   1.084   .     S
C1234  C1257   1.402   .     A
C1234  C522    1.395   1_556 S
C1235  H1271   1.080   .     S
C1235  C1240   1.399   .     A
C1235  C1401   1.385   1_455 S
C1236  C1239   1.399   .     A
C1236  H1272   1.072   .     S
C1236  C1320   1.381   .     S
C1237  H1273   1.083   .     S
C1237  C1239   1.401   .     A
C1237  C1317   1.385   .     S
C1238  H1274   1.083   .     S
C1238  C1240   1.397   .     A
C1238  C1400   1.381   1_455 S
C1241  C1285   1.531   .     S
C1241  N1276   1.391   .     A
C1242  C1292   1.517   .     S
C1242  N1275   1.386   .     A
C1242  C751    1.433   1_565 S
C1243  N1276   1.390   .     A
C1243  C1299   1.531   .     S
C1244  N1275   1.390   .     A
C1244  C1306   1.527   .     S
C1244  C749    1.435   1_565 S
C1245  C1250   1.439   .     S
C1245  O1284   1.310   .     A
C1245  O1281   1.310   .     A
C1246  O1283   1.310   .     A
C1246  O1282   1.310   .     A
C1246  C1249   1.439   .     S
C1247  H1263   1.084   .     S
C1247  C1257   1.393   .     A
C1247  C1249   1.396   .     A
C1248  C1258   1.393   .     A
C1248  H1264   1.085   .     S
C1248  C1250   1.396   .     A
C1249  C1251   1.396   .     A
C1250  C1252   1.396   .     A
C1251  C1253   1.394   .     A
C1251  H1265   1.085   .     S
C1252  C1254   1.394   .     A
C1252  H1266   1.085   .     S
C1253  C1259   1.402   .     A
C1253  C1255   1.413   .     A
C1254  C1256   1.413   .     A
C1254  C1260   1.402   .     A
C1255  C1257   1.413   .     A
C1255  C518    1.401   1_556 S
C1256  C1258   1.413   .     A
C1259  H1267   1.084   .     S
C1259  C495    1.395   1_556 S
C1260  H1268   1.084   .     S
Cu1261 O1277   1.954   .     S
Cu1261 O1279   1.961   .     S
Cu1261 Cu1262  2.749   .     S
Cu1261 O1283   1.949   .     S
Cu1261 N1275   2.066   .     S
Cu1261 O1281   1.947   .     S
Cu1262 O1282   1.947   .     S
Cu1262 O1278   1.954   .     S
Cu1262 O1284   1.949   .     S
Cu1262 O1280   1.961   .     S
Cu1262 N1276   2.066   .     S
C1285  C1286   1.536   .     S
C1285  H1290   1.104   .     S
C1285  H1291   1.107   .     S
C1286  H1287   1.103   .     S
C1286  H1289   1.110   .     S
C1286  H1288   1.097   .     S
C1292  H1297   1.096   .     S
C1292  C1293   1.534   .     S
C1292  H1298   1.107   .     S
C1293  H1295   1.105   .     S
C1293  H1296   1.111   .     S
C1293  H1294   1.110   .     S
C1299  H1304   1.101   .     S
C1299  H1305   1.107   .     S
C1299  C1300   1.535   .     S
C1300  H1301   1.110   .     S
C1300  H1303   1.111   .     S
C1300  H1302   1.105   .     S
C1306  C1307   1.533   .     S
C1306  H1312   1.101   .     S
C1306  H1311   1.098   .     S
C1307  H1308   1.109   .     S
C1307  H1309   1.107   .     S
C1307  H1310   1.111   .     S
C1313  O1362   1.311   .     A
C1313  O1359   1.311   .     A
C1313  C1322   1.445   .     S
C1314  O1360   1.309   .     A
C1314  O1361   1.316   .     A
C1314  C1321   1.451   .     S
C1315  C1340   1.402   .     A
C1315  H1351   1.084   .     S
C1316  H1352   1.084   .     S
C1316  C1339   1.402   .     A
C1316  C604    1.395   1_556 S
C1317  H1353   1.080   .     S
C1317  C1322   1.399   .     A
C1318  C1321   1.399   .     A
C1318  H1354   1.072   .     S
C1318  C1402   1.381   .     S
C1319  H1355   1.083   .     S
C1319  C1321   1.401   .     A
C1319  C1399   1.385   .     S
C1320  H1356   1.083   .     S
C1320  C1322   1.397   .     A
C1323  C1367   1.531   .     S
C1323  N1358   1.391   .     A
C1324  C1374   1.517   .     S
C1324  N1357   1.386   .     A
C1324  C833    1.433   1_565 S
C1325  N1358   1.390   .     A
C1325  C1381   1.531   .     S
C1326  N1357   1.390   .     A
C1326  C1388   1.527   .     S
C1326  C831    1.435   1_565 S
C1327  C1332   1.439   .     S
C1327  O1366   1.310   .     A
C1327  O1363   1.310   .     A
C1328  O1365   1.310   .     A
C1328  O1364   1.310   .     A
C1328  C1331   1.439   .     S
C1329  H1345   1.084   .     S
C1329  C1339   1.393   .     A
C1329  C1331   1.396   .     A
C1330  C1340   1.393   .     A
C1330  H1346   1.085   .     S
C1330  C1332   1.396   .     A
C1331  C1333   1.396   .     A
C1332  C1334   1.396   .     A
C1333  C1335   1.394   .     A
C1333  H1347   1.085   .     S
C1334  C1336   1.394   .     A
C1334  H1348   1.085   .     S
C1335  C1341   1.402   .     A
C1335  C1337   1.413   .     A
C1336  C1338   1.413   .     A
C1336  C1342   1.402   .     A
C1337  C1339   1.413   .     A
C1337  C600    1.401   1_556 S
C1338  C1340   1.413   .     A
C1341  H1349   1.084   .     S
C1341  C577    1.395   1_556 S
C1342  H1350   1.084   .     S
Cu1343 O1359   1.954   .     S
Cu1343 O1361   1.961   .     S
Cu1343 Cu1344  2.749   .     S
Cu1343 O1365   1.949   .     S
Cu1343 N1357   2.066   .     S
Cu1343 O1363   1.947   .     S
Cu1344 O1364   1.947   .     S
Cu1344 O1360   1.954   .     S
Cu1344 O1366   1.949   .     S
Cu1344 O1362   1.961   .     S
Cu1344 N1358   2.066   .     S
C1367  C1368   1.536   .     S
C1367  H1372   1.104   .     S
C1367  H1373   1.107   .     S
C1368  H1369   1.103   .     S
C1368  H1371   1.110   .     S
C1368  H1370   1.097   .     S
C1374  H1379   1.096   .     S
C1374  C1375   1.534   .     S
C1374  H1380   1.107   .     S
C1375  H1377   1.105   .     S
C1375  H1378   1.111   .     S
C1375  H1376   1.110   .     S
C1381  H1386   1.101   .     S
C1381  H1387   1.107   .     S
C1381  C1382   1.535   .     S
C1382  H1383   1.110   .     S
C1382  H1385   1.111   .     S
C1382  H1384   1.105   .     S
C1388  C1389   1.533   .     S
C1388  H1394   1.101   .     S
C1388  H1393   1.098   .     S
C1389  H1390   1.109   .     S
C1389  H1391   1.107   .     S
C1389  H1392   1.111   .     S
C1395  O1444   1.311   .     A
C1395  O1441   1.311   .     A
C1395  C1404   1.445   .     S
C1396  O1442   1.309   .     A
C1396  O1443   1.316   .     A
C1396  C1403   1.451   .     S
C1397  C1422   1.402   .     A
C1397  H1433   1.084   .     S
C1398  H1434   1.084   .     S
C1398  C1421   1.402   .     A
C1398  C686    1.395   1_556 S
C1399  H1435   1.080   .     S
C1399  C1404   1.399   .     A
C1400  C1403   1.399   .     A
C1400  H1436   1.072   .     S
C1400  C1238   1.381   1_655 S
C1401  H1437   1.083   .     S
C1401  C1403   1.401   .     A
C1401  C1235   1.385   1_655 S
C1402  H1438   1.083   .     S
C1402  C1404   1.397   .     A
C1405  C1449   1.531   .     S
C1405  N1440   1.391   .     A
C1406  C1456   1.517   .     S
C1406  N1439   1.386   .     A
C1406  C915    1.433   1_565 S
C1407  N1440   1.390   .     A
C1407  C1463   1.531   .     S
C1408  N1439   1.390   .     A
C1408  C1470   1.527   .     S
C1408  C913    1.435   1_565 S
C1409  C1414   1.439   .     S
C1409  O1448   1.310   .     A
C1409  O1445   1.310   .     A
C1410  O1447   1.310   .     A
C1410  O1446   1.310   .     A
C1410  C1413   1.439   .     S
C1411  H1427   1.084   .     S
C1411  C1421   1.393   .     A
C1411  C1413   1.396   .     A
C1412  C1422   1.393   .     A
C1412  H1428   1.085   .     S
C1412  C1414   1.396   .     A
C1413  C1415   1.396   .     A
C1414  C1416   1.396   .     A
C1415  C1417   1.394   .     A
C1415  H1429   1.085   .     S
C1416  C1418   1.394   .     A
C1416  H1430   1.085   .     S
C1417  C1423   1.402   .     A
C1417  C1419   1.413   .     A
C1418  C1420   1.413   .     A
C1418  C1424   1.402   .     A
C1419  C1421   1.413   .     A
C1419  C682    1.401   1_556 S
C1420  C1422   1.413   .     A
C1423  H1431   1.084   .     S
C1423  C659    1.395   1_556 S
C1424  H1432   1.084   .     S
Cu1425 O1441   1.954   .     S
Cu1425 O1443   1.961   .     S
Cu1425 Cu1426  2.749   .     S
Cu1425 O1447   1.949   .     S
Cu1425 N1439   2.066   .     S
Cu1425 O1445   1.947   .     S
Cu1426 O1446   1.947   .     S
Cu1426 O1442   1.954   .     S
Cu1426 O1448   1.949   .     S
Cu1426 O1444   1.961   .     S
Cu1426 N1440   2.066   .     S
C1449  C1450   1.536   .     S
C1449  H1454   1.104   .     S
C1449  H1455   1.107   .     S
C1450  H1451   1.103   .     S
C1450  H1453   1.110   .     S
C1450  H1452   1.097   .     S
C1456  H1461   1.096   .     S
C1456  C1457   1.534   .     S
C1456  H1462   1.107   .     S
C1457  H1459   1.105   .     S
C1457  H1460   1.111   .     S
C1457  H1458   1.110   .     S
C1463  H1468   1.101   .     S
C1463  H1469   1.107   .     S
C1463  C1464   1.535   .     S
C1464  H1465   1.110   .     S
C1464  H1467   1.111   .     S
C1464  H1466   1.105   .     S
C1470  C1471   1.533   .     S
C1470  H1476   1.101   .     S
C1470  H1475   1.098   .     S
C1471  H1472   1.109   .     S
C1471  H1473   1.107   .     S
C1471  H1474   1.111   .     S
