data_str_m1_o1_o2_pcu_sym.58
_audit_creation_date              2020-01-03
_audit_creation_method            'Materials Studio'
_symmetry_space_group_name_H-M    'P1'
_symmetry_Int_Tables_number       1
_symmetry_cell_setting            triclinic
loop_
_symmetry_equiv_pos_as_xyz
  x,y,z
_cell_length_a                    36.5311
_cell_length_b                    36.5312
_cell_length_c                    34.6126
_cell_angle_alpha                 89.9999
_cell_angle_beta                  89.9998
_cell_angle_gamma                 90.0016
loop_
_atom_site_label
_atom_site_type_symbol
_atom_site_fract_x
_atom_site_fract_y
_atom_site_fract_z
_atom_site_U_iso_or_equiv
_atom_site_adp_type
_atom_site_occupancy
C1     C     0.22597   0.02317   0.04131   0.00000  Uiso   1.00
C2     C     0.02397   0.27322   0.45868   0.00000  Uiso   1.00
C3     C     0.34809   0.40195   0.75019   0.00000  Uiso   1.00
C4     C     0.40195   0.15191   0.24982   0.00000  Uiso   1.00
C5     C     0.09809   0.34805   0.74982   0.00000  Uiso   1.00
C6     C     0.34805   0.40191   0.25018   0.00000  Uiso   1.00
C7     C     0.15191   0.09805   0.75018   0.00000  Uiso   1.00
C8     C     0.09805   0.15191   0.75018   0.00000  Uiso   1.00
C9     C     0.40191   0.34805   0.25018   0.00000  Uiso   1.00
C10    C     0.15195   0.40191   0.74982   0.00000  Uiso   1.00
C11    C     0.34809   0.09805   0.24982   0.00000  Uiso   1.00
C12    C     0.40195   0.34809   0.75019   0.00000  Uiso   1.00
C13    C     0.27309   0.47595   0.54129   0.00000  Uiso   1.00
C14    C     0.09809   0.15195   0.25018   0.00000  Uiso   1.00
C15    C     0.34805   0.09809   0.74982   0.00000  Uiso   1.00
C16    C     0.15191   0.40195   0.24982   0.00000  Uiso   1.00
C17    C     0.25000   0.00001   0.10222   0.00000  Uiso   1.00
C18    C     0.25000   0.00001   0.89777   0.00000  Uiso   1.00
C19    C     0.49999   0.25000   0.10222   0.00000  Uiso   1.00
C20    C     0.49999   0.25000   0.89777   0.00000  Uiso   1.00
C21    C     0.00000   0.24998   0.60222   0.00000  Uiso   1.00
C22    C     0.00000   0.24999   0.39777   0.00000  Uiso   1.00
C23    C     0.24998   0.00000   0.60222   0.00000  Uiso   1.00
C24    C     0.27320   0.02397   0.45869   0.00000  Uiso   1.00
C25    C     0.24998   0.00000   0.39777   0.00000  Uiso   1.00
C26    C     0.02406   0.22683   0.54131   0.00000  Uiso   1.00
C27    C     0.47608   0.22672   0.45868   0.00000  Uiso   1.00
C28    C     0.22682   0.02406   0.54131   0.00000  Uiso   1.00
C29    C     0.22671   0.47607   0.45868   0.00000  Uiso   1.00
C30    C     0.22590   0.02323   0.08176   0.00000  Uiso   1.00
C31    C     0.27403   0.02331   0.91822   0.00000  Uiso   1.00
C32    C     0.02323   0.22591   0.08176   0.00000  Uiso   1.00
C33    C     0.27397   0.02325   0.95868   0.00000  Uiso   1.00
C34    C     0.02327   0.27403   0.91824   0.00000  Uiso   1.00
C35    C     0.27411   0.47680   0.08176   0.00000  Uiso   1.00
C36    C     0.22597   0.47672   0.91824   0.00000  Uiso   1.00
C37    C     0.47675   0.27408   0.08177   0.00000  Uiso   1.00
C38    C     0.47669   0.22597   0.91822   0.00000  Uiso   1.00
C39    C     0.47588   0.27317   0.58175   0.00000  Uiso   1.00
C40    C     0.02403   0.27329   0.41823   0.00000  Uiso   1.00
C41    C     0.27317   0.47588   0.58175   0.00000  Uiso   1.00
C42    C     0.27328   0.02403   0.41823   0.00000  Uiso   1.00
C43    C     0.02412   0.22677   0.58177   0.00000  Uiso   1.00
C44    C     0.02315   0.22597   0.04130   0.00000  Uiso   1.00
C45    C     0.47599   0.22668   0.41822   0.00000  Uiso   1.00
C46    C     0.22677   0.02412   0.58177   0.00000  Uiso   1.00
C47    C     0.22667   0.47599   0.41822   0.00000  Uiso   1.00
C48    C     0.25001   0.00003   0.02121   0.00000  Uiso   1.00
C49    C     0.25001   0.00003   0.97878   0.00000  Uiso   1.00
C50    C     0.49997   0.24999   0.02121   0.00000  Uiso   1.00
C51    C     0.49997   0.24999   0.97878   0.00000  Uiso   1.00
C52    C     0.00002   0.24996   0.52121   0.00000  Uiso   1.00
C53    C     0.00003   0.24996   0.47878   0.00000  Uiso   1.00
C54    C     0.24995   0.00001   0.52121   0.00000  Uiso   1.00
C55    C     0.02321   0.27396   0.95869   0.00000  Uiso   1.00
C56    C     0.24995   0.00002   0.47877   0.00000  Uiso   1.00
C57    C     0.25000   0.00000   0.35527   0.00000  Uiso   1.00
C58    C     0.25000   0.00000   0.64473   0.00000  Uiso   1.00
C59    C     0.00000   0.25000   0.35527   0.00000  Uiso   1.00
C60    C     0.00000   0.25000   0.64473   0.00000  Uiso   1.00
C61    C    -0.00000   0.25000   0.85527   0.00000  Uiso   1.00
C62    C    -0.00000   0.25000   0.14473   0.00000  Uiso   1.00
C63    C     0.25000   0.00000   0.85527   0.00000  Uiso   1.00
C64    C     0.25000   0.00000   0.14473   0.00000  Uiso   1.00
C65    C     0.17997   0.06998   0.25007   0.00000  Uiso   1.00
C66    C     0.27405   0.47687   0.04130   0.00000  Uiso   1.00
C67    C     0.31998   0.42996   0.75008   0.00000  Uiso   1.00
C68    C     0.42997   0.18002   0.24993   0.00000  Uiso   1.00
C69    C     0.06998   0.32003   0.74992   0.00000  Uiso   1.00
C70    C     0.32003   0.43002   0.25007   0.00000  Uiso   1.00
C71    C     0.18002   0.07003   0.75007   0.00000  Uiso   1.00
C72    C     0.07003   0.31998   0.24993   0.00000  Uiso   1.00
C73    C     0.43002   0.17997   0.74993   0.00000  Uiso   1.00
C74    C     0.17997   0.43002   0.74992   0.00000  Uiso   1.00
C75    C     0.31998   0.07003   0.24993   0.00000  Uiso   1.00
C76    C     0.42996   0.31998   0.75008   0.00000  Uiso   1.00
C77    C     0.22604   0.47679   0.95869   0.00000  Uiso   1.00
C78    C     0.06998   0.17997   0.25007   0.00000  Uiso   1.00
C79    C     0.32003   0.06998   0.74993   0.00000  Uiso   1.00
C80    C     0.18002   0.42997   0.24993   0.00000  Uiso   1.00
C81    C     0.07003   0.18002   0.75007   0.00000  Uiso   1.00
C82    C     0.43002   0.32003   0.25007   0.00000  Uiso   1.00
C83    C     0.14828   0.37878   0.21764   0.00000  Uiso   1.00
C84    C     0.35133   0.12164   0.78170   0.00000  Uiso   1.00
C85    C     0.12157   0.14860   0.21825   0.00000  Uiso   1.00
C86    C     0.37900   0.35194   0.78253   0.00000  Uiso   1.00
C87    C     0.35176   0.12118   0.21761   0.00000  Uiso   1.00
C88    C     0.47680   0.27401   0.04131   0.00000  Uiso   1.00
C89    C     0.14861   0.37843   0.78175   0.00000  Uiso   1.00
C90    C     0.37843   0.35140   0.21825   0.00000  Uiso   1.00
C91    C     0.12115   0.14821   0.78241   0.00000  Uiso   1.00
C92    C     0.14821   0.12115   0.78241   0.00000  Uiso   1.00
C93    C     0.35140   0.37843   0.21825   0.00000  Uiso   1.00
C94    C     0.12157   0.35139   0.78175   0.00000  Uiso   1.00
C95    C     0.37882   0.14824   0.21761   0.00000  Uiso   1.00
C96    C     0.35194   0.37900   0.78253   0.00000  Uiso   1.00
C97    C     0.14860   0.12157   0.21825   0.00000  Uiso   1.00
C98    C     0.37836   0.14867   0.78170   0.00000  Uiso   1.00
C99    C     0.47675   0.22603   0.95868   0.00000  Uiso   1.00
C100   C     0.12122   0.35172   0.21764   0.00000  Uiso   1.00
C101   C     0.39829   0.12877   0.71764   0.00000  Uiso   1.00
C102   C     0.10133   0.37163   0.28171   0.00000  Uiso   1.00
C103   C     0.37144   0.39846   0.71815   0.00000  Uiso   1.00
C104   C     0.12884   0.10178   0.28241   0.00000  Uiso   1.00
C105   C     0.10178   0.37116   0.71759   0.00000  Uiso   1.00
C106   C     0.39863   0.12840   0.28173   0.00000  Uiso   1.00
C107   C     0.12843   0.10140   0.71824   0.00000  Uiso   1.00
C108   C     0.37116   0.39822   0.28241   0.00000  Uiso   1.00
C109   C     0.39822   0.37116   0.28241   0.00000  Uiso   1.00
C110   C     0.47596   0.27311   0.54129   0.00000  Uiso   1.00
C111   C     0.10140   0.12843   0.71824   0.00000  Uiso   1.00
C112   C     0.37160   0.10137   0.28173   0.00000  Uiso   1.00
C113   C     0.12884   0.39822   0.71759   0.00000  Uiso   1.00
C114   C     0.10178   0.12884   0.28241   0.00000  Uiso   1.00
C115   C     0.39847   0.37144   0.71815   0.00000  Uiso   1.00
C116   C     0.12836   0.39867   0.28171   0.00000  Uiso   1.00
C117   C     0.37123   0.10171   0.71764   0.00000  Uiso   1.00
C118   C     0.09805   0.34809   0.24982   0.00000  Uiso   1.00
C119   C     0.40191   0.15195   0.74982   0.00000  Uiso   1.00
C120   C     0.15195   0.09809   0.25018   0.00000  Uiso   1.00
Cl121  Cl    0.19604   0.05242   0.01556   0.00000  Uiso   1.00
Cl122  Cl    0.05378   0.30258   0.48443   0.00000  Uiso   1.00
Cl123  Cl    0.30231   0.44600   0.51553   0.00000  Uiso   1.00
Cl124  Cl    0.30256   0.05379   0.48444   0.00000  Uiso   1.00
Cl125  Cl    0.05402   0.19759   0.51558   0.00000  Uiso   1.00
Cl126  Cl    0.44627   0.19734   0.48442   0.00000  Uiso   1.00
Cl127  Cl    0.19758   0.05401   0.51558   0.00000  Uiso   1.00
Cl128  Cl    0.19734   0.44625   0.48441   0.00000  Uiso   1.00
Cl129  Cl    0.17818   0.38308   0.17768   0.00000  Uiso   1.00
Cl130  Cl    0.32051   0.11840   0.82093   0.00000  Uiso   1.00
Cl131  Cl    0.11825   0.17933   0.17895   0.00000  Uiso   1.00
Cl132  Cl    0.30381   0.05260   0.98441   0.00000  Uiso   1.00
Cl133  Cl    0.38356   0.32231   0.82269   0.00000  Uiso   1.00
Cl134  Cl    0.32191   0.11683   0.17761   0.00000  Uiso   1.00
Cl135  Cl    0.17934   0.38174   0.82104   0.00000  Uiso   1.00
Cl136  Cl    0.38175   0.32066   0.17896   0.00000  Uiso   1.00
Cl137  Cl    0.11676   0.17802   0.82244   0.00000  Uiso   1.00
Cl138  Cl    0.17802   0.11676   0.82244   0.00000  Uiso   1.00
Cl139  Cl    0.32066   0.38175   0.17896   0.00000  Uiso   1.00
Cl140  Cl    0.11825   0.32065   0.82104   0.00000  Uiso   1.00
Cl141  Cl    0.38317   0.17809   0.17761   0.00000  Uiso   1.00
Cl142  Cl    0.32231   0.38356   0.82269   0.00000  Uiso   1.00
Cl143  Cl    0.05242   0.19606   0.01556   0.00000  Uiso   1.00
Cl144  Cl    0.17933   0.11824   0.17895   0.00000  Uiso   1.00
Cl145  Cl    0.38161   0.17949   0.82093   0.00000  Uiso   1.00
Cl146  Cl    0.11693   0.32182   0.17768   0.00000  Uiso   1.00
Cl147  Cl    0.42819   0.13307   0.67768   0.00000  Uiso   1.00
Cl148  Cl    0.07053   0.36838   0.32094   0.00000  Uiso   1.00
Cl149  Cl    0.36797   0.42905   0.67874   0.00000  Uiso   1.00
Cl150  Cl    0.13322   0.07197   0.32243   0.00000  Uiso   1.00
Cl151  Cl    0.07197   0.36678   0.67757   0.00000  Uiso   1.00
Cl152  Cl    0.42941   0.13169   0.32099   0.00000  Uiso   1.00
Cl153  Cl    0.13177   0.07068   0.67894   0.00000  Uiso   1.00
Cl154  Cl    0.05254   0.30381   0.98444   0.00000  Uiso   1.00
Cl155  Cl    0.36678   0.42803   0.32243   0.00000  Uiso   1.00
Cl156  Cl    0.42803   0.36678   0.32243   0.00000  Uiso   1.00
Cl157  Cl    0.07068   0.13177   0.67894   0.00000  Uiso   1.00
Cl158  Cl    0.36831   0.07060   0.32100   0.00000  Uiso   1.00
Cl159  Cl    0.13322   0.42803   0.67757   0.00000  Uiso   1.00
Cl160  Cl    0.07197   0.13322   0.32243   0.00000  Uiso   1.00
Cl161  Cl    0.42905   0.36797   0.67874   0.00000  Uiso   1.00
Cl162  Cl    0.13162   0.42947   0.32095   0.00000  Uiso   1.00
Cl163  Cl    0.36693   0.07182   0.67767   0.00000  Uiso   1.00
Cl164  Cl    0.19645   0.05380   0.10629   0.00000  Uiso   1.00
Cl165  Cl    0.30399   0.44764   0.01555   0.00000  Uiso   1.00
Cl166  Cl    0.30337   0.05399   0.89368   0.00000  Uiso   1.00
Cl167  Cl    0.05385   0.19651   0.10628   0.00000  Uiso   1.00
Cl168  Cl    0.05394   0.30339   0.89371   0.00000  Uiso   1.00
Cl169  Cl    0.30355   0.44621   0.10628   0.00000  Uiso   1.00
Cl170  Cl    0.19662   0.44604   0.89371   0.00000  Uiso   1.00
Cl171  Cl    0.44614   0.30349   0.10630   0.00000  Uiso   1.00
Cl172  Cl    0.44602   0.19663   0.89368   0.00000  Uiso   1.00
Cl173  Cl    0.44640   0.30373   0.60625   0.00000  Uiso   1.00
Cl174  Cl    0.05335   0.30398   0.39369   0.00000  Uiso   1.00
Cl175  Cl    0.30372   0.44640   0.60625   0.00000  Uiso   1.00
Cl176  Cl    0.19620   0.44746   0.98444   0.00000  Uiso   1.00
Cl177  Cl    0.30398   0.05335   0.39370   0.00000  Uiso   1.00
Cl178  Cl    0.05358   0.19621   0.60630   0.00000  Uiso   1.00
Cl179  Cl    0.44666   0.19601   0.39369   0.00000  Uiso   1.00
Cl180  Cl    0.19621   0.05358   0.60631   0.00000  Uiso   1.00
Cl181  Cl    0.19599   0.44666   0.39368   0.00000  Uiso   1.00
Cl182  Cl    0.44752   0.30391   0.01557   0.00000  Uiso   1.00
Cl183  Cl    0.44741   0.19618   0.98441   0.00000  Uiso   1.00
Cl184  Cl    0.44601   0.30233   0.51553   0.00000  Uiso   1.00
O185   O     0.25000   0.00000   0.25000   0.00000  Uiso   1.00
O186   O     0.25000   0.46964   0.66317   0.00000  Uiso   1.00
O187   O     0.46964   0.25000   0.33683   0.00000  Uiso   1.00
O188   O     0.03036   0.25000   0.66317   0.00000  Uiso   1.00
O189   O     0.00000   0.21964   0.83683   0.00000  Uiso   1.00
O190   O     0.00000   0.28036   0.16317   0.00000  Uiso   1.00
O191   O     0.28036   0.00000   0.83683   0.00000  Uiso   1.00
O192   O     0.21964   0.00000   0.16317   0.00000  Uiso   1.00
O193   O     0.00000   0.28036   0.83683   0.00000  Uiso   1.00
O194   O     0.00000   0.21964   0.16317   0.00000  Uiso   1.00
O195   O     0.21964   0.00000   0.83683   0.00000  Uiso   1.00
O196   O     0.25000   0.00000   0.75000   0.00000  Uiso   1.00
O197   O     0.28036   0.00000   0.16317   0.00000  Uiso   1.00
O198   O     0.20726   0.07307   0.27282   0.00000  Uiso   1.00
O199   O     0.29275   0.42693   0.72718   0.00000  Uiso   1.00
O200   O     0.42693   0.20726   0.27282   0.00000  Uiso   1.00
O201   O     0.07307   0.29274   0.72718   0.00000  Uiso   1.00
O202   O     0.29275   0.42693   0.27282   0.00000  Uiso   1.00
O203   O     0.20726   0.07307   0.72718   0.00000  Uiso   1.00
O204   O     0.07307   0.29274   0.27282   0.00000  Uiso   1.00
O205   O     0.42693   0.20726   0.72718   0.00000  Uiso   1.00
O206   O     0.20726   0.42693   0.72718   0.00000  Uiso   1.00
O207   O     0.00000   0.25000   0.25000   0.00000  Uiso   1.00
O208   O     0.29275   0.07307   0.27282   0.00000  Uiso   1.00
O209   O     0.42693   0.29275   0.72718   0.00000  Uiso   1.00
O210   O     0.07307   0.20725   0.27282   0.00000  Uiso   1.00
O211   O     0.29275   0.07307   0.72718   0.00000  Uiso   1.00
O212   O     0.20726   0.42693   0.27282   0.00000  Uiso   1.00
O213   O     0.07307   0.20725   0.72718   0.00000  Uiso   1.00
O214   O     0.42693   0.29275   0.27282   0.00000  Uiso   1.00
O215   O     0.45726   0.32307   0.77282   0.00000  Uiso   1.00
O216   O     0.04275   0.17693   0.22718   0.00000  Uiso   1.00
O217   O     0.17693   0.45725   0.77282   0.00000  Uiso   1.00
O218   O     0.00000   0.25000   0.75000   0.00000  Uiso   1.00
O219   O     0.32307   0.04275   0.22718   0.00000  Uiso   1.00
O220   O     0.04275   0.17693   0.77282   0.00000  Uiso   1.00
O221   O     0.45726   0.32307   0.22718   0.00000  Uiso   1.00
O222   O     0.32307   0.04275   0.77282   0.00000  Uiso   1.00
O223   O     0.17693   0.45725   0.22718   0.00000  Uiso   1.00
O224   O     0.45726   0.17693   0.22718   0.00000  Uiso   1.00
O225   O     0.04275   0.32307   0.77282   0.00000  Uiso   1.00
O226   O     0.17693   0.04275   0.22718   0.00000  Uiso   1.00
O227   O     0.32307   0.45726   0.77282   0.00000  Uiso   1.00
O228   O     0.04275   0.32307   0.22718   0.00000  Uiso   1.00
O229   O     0.25000   0.46964   0.33683   0.00000  Uiso   1.00
O230   O     0.45726   0.17693   0.77282   0.00000  Uiso   1.00
O231   O     0.32307   0.45726   0.22718   0.00000  Uiso   1.00
O232   O     0.17693   0.04275   0.77282   0.00000  Uiso   1.00
O233   O     0.25000   0.03036   0.66317   0.00000  Uiso   1.00
O234   O     0.03036   0.25000   0.33683   0.00000  Uiso   1.00
O235   O     0.46964   0.25000   0.66317   0.00000  Uiso   1.00
O236   O     0.25000   0.03036   0.33683   0.00000  Uiso   1.00
Zn237  Zn    0.20660   0.00000   0.21760   0.00000  Uiso   1.00
Zn238  Zn    0.04340   0.25000   0.28240   0.00000  Uiso   1.00
Zn239  Zn    0.25000   0.45660   0.71760   0.00000  Uiso   1.00
Zn240  Zn    0.25000   0.04340   0.28240   0.00000  Uiso   1.00
Zn241  Zn    0.04340   0.25000   0.71760   0.00000  Uiso   1.00
Zn242  Zn    0.45660   0.25000   0.28240   0.00000  Uiso   1.00
Zn243  Zn    0.25000   0.04340   0.71760   0.00000  Uiso   1.00
Zn244  Zn    0.25000   0.45660   0.28240   0.00000  Uiso   1.00
Zn245  Zn    0.29340   0.00000   0.78240   0.00000  Uiso   1.00
Zn246  Zn    0.00000   0.20660   0.21760   0.00000  Uiso   1.00
Zn247  Zn    0.00000   0.29340   0.78240   0.00000  Uiso   1.00
Zn248  Zn    0.29340   0.00000   0.21760   0.00000  Uiso   1.00
Zn249  Zn    0.20660   0.00000   0.78240   0.00000  Uiso   1.00
Zn250  Zn    0.00000   0.29340   0.21760   0.00000  Uiso   1.00
Zn251  Zn    0.00000   0.20660   0.78240   0.00000  Uiso   1.00
Zn252  Zn    0.45660   0.25000   0.71760   0.00000  Uiso   1.00
C253   C     0.72597   0.02317   0.04131   0.00000  Uiso   1.00
C254   C     0.52397   0.27322   0.45868   0.00000  Uiso   1.00
C255   C     0.84809   0.40195   0.75019   0.00000  Uiso   1.00
C256   C     0.90195   0.15191   0.24982   0.00000  Uiso   1.00
C257   C     0.59809   0.34805   0.74982   0.00000  Uiso   1.00
C258   C     0.84805   0.40191   0.25018   0.00000  Uiso   1.00
C259   C     0.65191   0.09805   0.75018   0.00000  Uiso   1.00
C260   C     0.59805   0.15191   0.75018   0.00000  Uiso   1.00
C261   C     0.90191   0.34805   0.25018   0.00000  Uiso   1.00
C262   C     0.65195   0.40191   0.74982   0.00000  Uiso   1.00
C263   C     0.84809   0.09805   0.24982   0.00000  Uiso   1.00
C264   C     0.90195   0.34809   0.75019   0.00000  Uiso   1.00
C265   C     0.77309   0.47595   0.54129   0.00000  Uiso   1.00
C266   C     0.59809   0.15195   0.25018   0.00000  Uiso   1.00
C267   C     0.84805   0.09809   0.74982   0.00000  Uiso   1.00
C268   C     0.65191   0.40195   0.24982   0.00000  Uiso   1.00
C269   C     0.75000   0.00001   0.10222   0.00000  Uiso   1.00
C270   C     0.75000   0.00001   0.89777   0.00000  Uiso   1.00
C271   C     0.99999   0.25000   0.10222   0.00000  Uiso   1.00
C272   C     0.99999   0.25000   0.89777   0.00000  Uiso   1.00
C273   C     0.50000   0.24998   0.60222   0.00000  Uiso   1.00
C274   C     0.50000   0.24999   0.39777   0.00000  Uiso   1.00
C275   C     0.74998   0.00000   0.60222   0.00000  Uiso   1.00
C276   C     0.77320   0.02397   0.45869   0.00000  Uiso   1.00
C277   C     0.74998   0.00000   0.39777   0.00000  Uiso   1.00
C278   C     0.52406   0.22683   0.54131   0.00000  Uiso   1.00
C279   C     0.97608   0.22672   0.45868   0.00000  Uiso   1.00
C280   C     0.72682   0.02406   0.54131   0.00000  Uiso   1.00
C281   C     0.72671   0.47607   0.45868   0.00000  Uiso   1.00
C282   C     0.72590   0.02323   0.08176   0.00000  Uiso   1.00
C283   C     0.77403   0.02331   0.91822   0.00000  Uiso   1.00
C284   C     0.52323   0.22591   0.08176   0.00000  Uiso   1.00
C285   C     0.77397   0.02325   0.95868   0.00000  Uiso   1.00
C286   C     0.52327   0.27403   0.91824   0.00000  Uiso   1.00
C287   C     0.77411   0.47680   0.08176   0.00000  Uiso   1.00
C288   C     0.72597   0.47672   0.91824   0.00000  Uiso   1.00
C289   C     0.97675   0.27408   0.08177   0.00000  Uiso   1.00
C290   C     0.97669   0.22597   0.91822   0.00000  Uiso   1.00
C291   C     0.97588   0.27317   0.58175   0.00000  Uiso   1.00
C292   C     0.52403   0.27329   0.41823   0.00000  Uiso   1.00
C293   C     0.77317   0.47588   0.58175   0.00000  Uiso   1.00
C294   C     0.77328   0.02403   0.41823   0.00000  Uiso   1.00
C295   C     0.52412   0.22677   0.58177   0.00000  Uiso   1.00
C296   C     0.52315   0.22597   0.04130   0.00000  Uiso   1.00
C297   C     0.97599   0.22668   0.41822   0.00000  Uiso   1.00
C298   C     0.72677   0.02412   0.58177   0.00000  Uiso   1.00
C299   C     0.72667   0.47599   0.41822   0.00000  Uiso   1.00
C300   C     0.75001   0.00003   0.02121   0.00000  Uiso   1.00
C301   C     0.75001   0.00003   0.97878   0.00000  Uiso   1.00
C302   C     0.99997   0.24999   0.02121   0.00000  Uiso   1.00
C303   C     0.99997   0.24999   0.97878   0.00000  Uiso   1.00
C304   C     0.50002   0.24996   0.52121   0.00000  Uiso   1.00
C305   C     0.50003   0.24996   0.47878   0.00000  Uiso   1.00
C306   C     0.74995   0.00001   0.52121   0.00000  Uiso   1.00
C307   C     0.52321   0.27396   0.95869   0.00000  Uiso   1.00
C308   C     0.74995   0.00002   0.47877   0.00000  Uiso   1.00
C309   C     0.75000   0.00000   0.35527   0.00000  Uiso   1.00
C310   C     0.75000   0.00000   0.64473   0.00000  Uiso   1.00
C311   C     0.50000   0.25000   0.35527   0.00000  Uiso   1.00
C312   C     0.50000   0.25000   0.64473   0.00000  Uiso   1.00
C313   C     0.50000   0.25000   0.85527   0.00000  Uiso   1.00
C314   C     0.50000   0.25000   0.14473   0.00000  Uiso   1.00
C315   C     0.75000   0.00000   0.85527   0.00000  Uiso   1.00
C316   C     0.75000   0.00000   0.14473   0.00000  Uiso   1.00
C317   C     0.67997   0.06998   0.25007   0.00000  Uiso   1.00
C318   C     0.77405   0.47687   0.04130   0.00000  Uiso   1.00
C319   C     0.81998   0.42996   0.75008   0.00000  Uiso   1.00
C320   C     0.92997   0.18002   0.24993   0.00000  Uiso   1.00
C321   C     0.56998   0.32003   0.74992   0.00000  Uiso   1.00
C322   C     0.82003   0.43002   0.25007   0.00000  Uiso   1.00
C323   C     0.68002   0.07003   0.75007   0.00000  Uiso   1.00
C324   C     0.57003   0.31998   0.24993   0.00000  Uiso   1.00
C325   C     0.93002   0.17997   0.74993   0.00000  Uiso   1.00
C326   C     0.67997   0.43002   0.74992   0.00000  Uiso   1.00
C327   C     0.81998   0.07003   0.24993   0.00000  Uiso   1.00
C328   C     0.92996   0.31998   0.75008   0.00000  Uiso   1.00
C329   C     0.72604   0.47679   0.95869   0.00000  Uiso   1.00
C330   C     0.56998   0.17997   0.25007   0.00000  Uiso   1.00
C331   C     0.82003   0.06998   0.74993   0.00000  Uiso   1.00
C332   C     0.68002   0.42997   0.24993   0.00000  Uiso   1.00
C333   C     0.57003   0.18002   0.75007   0.00000  Uiso   1.00
C334   C     0.93002   0.32003   0.25007   0.00000  Uiso   1.00
C335   C     0.64828   0.37878   0.21764   0.00000  Uiso   1.00
C336   C     0.85133   0.12164   0.78170   0.00000  Uiso   1.00
C337   C     0.62157   0.14860   0.21825   0.00000  Uiso   1.00
C338   C     0.87900   0.35194   0.78253   0.00000  Uiso   1.00
C339   C     0.85176   0.12118   0.21761   0.00000  Uiso   1.00
C340   C     0.97680   0.27401   0.04131   0.00000  Uiso   1.00
C341   C     0.64861   0.37843   0.78175   0.00000  Uiso   1.00
C342   C     0.87843   0.35140   0.21825   0.00000  Uiso   1.00
C343   C     0.62115   0.14821   0.78241   0.00000  Uiso   1.00
C344   C     0.64821   0.12115   0.78241   0.00000  Uiso   1.00
C345   C     0.85140   0.37843   0.21825   0.00000  Uiso   1.00
C346   C     0.62157   0.35139   0.78175   0.00000  Uiso   1.00
C347   C     0.87882   0.14824   0.21761   0.00000  Uiso   1.00
C348   C     0.85194   0.37900   0.78253   0.00000  Uiso   1.00
C349   C     0.64860   0.12157   0.21825   0.00000  Uiso   1.00
C350   C     0.87836   0.14867   0.78170   0.00000  Uiso   1.00
C351   C     0.97675   0.22603   0.95868   0.00000  Uiso   1.00
C352   C     0.62122   0.35172   0.21764   0.00000  Uiso   1.00
C353   C     0.89829   0.12877   0.71764   0.00000  Uiso   1.00
C354   C     0.60133   0.37163   0.28171   0.00000  Uiso   1.00
C355   C     0.87144   0.39846   0.71815   0.00000  Uiso   1.00
C356   C     0.62884   0.10178   0.28241   0.00000  Uiso   1.00
C357   C     0.60178   0.37116   0.71759   0.00000  Uiso   1.00
C358   C     0.89863   0.12840   0.28173   0.00000  Uiso   1.00
C359   C     0.62843   0.10140   0.71824   0.00000  Uiso   1.00
C360   C     0.87116   0.39822   0.28241   0.00000  Uiso   1.00
C361   C     0.89822   0.37116   0.28241   0.00000  Uiso   1.00
C362   C     0.97596   0.27311   0.54129   0.00000  Uiso   1.00
C363   C     0.60140   0.12843   0.71824   0.00000  Uiso   1.00
C364   C     0.87160   0.10137   0.28173   0.00000  Uiso   1.00
C365   C     0.62884   0.39822   0.71759   0.00000  Uiso   1.00
C366   C     0.60178   0.12884   0.28241   0.00000  Uiso   1.00
C367   C     0.89847   0.37144   0.71815   0.00000  Uiso   1.00
C368   C     0.62836   0.39867   0.28171   0.00000  Uiso   1.00
C369   C     0.87123   0.10171   0.71764   0.00000  Uiso   1.00
C370   C     0.59805   0.34809   0.24982   0.00000  Uiso   1.00
C371   C     0.90191   0.15195   0.74982   0.00000  Uiso   1.00
C372   C     0.65195   0.09809   0.25018   0.00000  Uiso   1.00
Cl373  Cl    0.69604   0.05242   0.01556   0.00000  Uiso   1.00
Cl374  Cl    0.55378   0.30258   0.48443   0.00000  Uiso   1.00
Cl375  Cl    0.80231   0.44600   0.51553   0.00000  Uiso   1.00
Cl376  Cl    0.80256   0.05379   0.48444   0.00000  Uiso   1.00
Cl377  Cl    0.55402   0.19759   0.51558   0.00000  Uiso   1.00
Cl378  Cl    0.94627   0.19734   0.48442   0.00000  Uiso   1.00
Cl379  Cl    0.69758   0.05401   0.51558   0.00000  Uiso   1.00
Cl380  Cl    0.69734   0.44625   0.48441   0.00000  Uiso   1.00
Cl381  Cl    0.67818   0.38308   0.17768   0.00000  Uiso   1.00
Cl382  Cl    0.82051   0.11840   0.82093   0.00000  Uiso   1.00
Cl383  Cl    0.61825   0.17933   0.17895   0.00000  Uiso   1.00
Cl384  Cl    0.80381   0.05260   0.98441   0.00000  Uiso   1.00
Cl385  Cl    0.88356   0.32231   0.82269   0.00000  Uiso   1.00
Cl386  Cl    0.82191   0.11683   0.17761   0.00000  Uiso   1.00
Cl387  Cl    0.67934   0.38174   0.82104   0.00000  Uiso   1.00
Cl388  Cl    0.88175   0.32066   0.17896   0.00000  Uiso   1.00
Cl389  Cl    0.61676   0.17802   0.82244   0.00000  Uiso   1.00
Cl390  Cl    0.67802   0.11676   0.82244   0.00000  Uiso   1.00
Cl391  Cl    0.82066   0.38175   0.17896   0.00000  Uiso   1.00
Cl392  Cl    0.61825   0.32065   0.82104   0.00000  Uiso   1.00
Cl393  Cl    0.88317   0.17809   0.17761   0.00000  Uiso   1.00
Cl394  Cl    0.82231   0.38356   0.82269   0.00000  Uiso   1.00
Cl395  Cl    0.55242   0.19606   0.01556   0.00000  Uiso   1.00
Cl396  Cl    0.67933   0.11824   0.17895   0.00000  Uiso   1.00
Cl397  Cl    0.88161   0.17949   0.82093   0.00000  Uiso   1.00
Cl398  Cl    0.61693   0.32182   0.17768   0.00000  Uiso   1.00
Cl399  Cl    0.92819   0.13307   0.67768   0.00000  Uiso   1.00
Cl400  Cl    0.57053   0.36838   0.32094   0.00000  Uiso   1.00
Cl401  Cl    0.86797   0.42905   0.67874   0.00000  Uiso   1.00
Cl402  Cl    0.63322   0.07197   0.32243   0.00000  Uiso   1.00
Cl403  Cl    0.57197   0.36678   0.67757   0.00000  Uiso   1.00
Cl404  Cl    0.92941   0.13169   0.32099   0.00000  Uiso   1.00
Cl405  Cl    0.63177   0.07068   0.67894   0.00000  Uiso   1.00
Cl406  Cl    0.55254   0.30381   0.98444   0.00000  Uiso   1.00
Cl407  Cl    0.86678   0.42803   0.32243   0.00000  Uiso   1.00
Cl408  Cl    0.92803   0.36678   0.32243   0.00000  Uiso   1.00
Cl409  Cl    0.57068   0.13177   0.67894   0.00000  Uiso   1.00
Cl410  Cl    0.86831   0.07060   0.32100   0.00000  Uiso   1.00
Cl411  Cl    0.63322   0.42803   0.67757   0.00000  Uiso   1.00
Cl412  Cl    0.57197   0.13322   0.32243   0.00000  Uiso   1.00
Cl413  Cl    0.92905   0.36797   0.67874   0.00000  Uiso   1.00
Cl414  Cl    0.63162   0.42947   0.32095   0.00000  Uiso   1.00
Cl415  Cl    0.86693   0.07182   0.67767   0.00000  Uiso   1.00
Cl416  Cl    0.69645   0.05380   0.10629   0.00000  Uiso   1.00
Cl417  Cl    0.80399   0.44764   0.01555   0.00000  Uiso   1.00
Cl418  Cl    0.80337   0.05399   0.89368   0.00000  Uiso   1.00
Cl419  Cl    0.55385   0.19651   0.10628   0.00000  Uiso   1.00
Cl420  Cl    0.55394   0.30339   0.89371   0.00000  Uiso   1.00
Cl421  Cl    0.80355   0.44621   0.10628   0.00000  Uiso   1.00
Cl422  Cl    0.69662   0.44604   0.89371   0.00000  Uiso   1.00
Cl423  Cl    0.94614   0.30349   0.10630   0.00000  Uiso   1.00
Cl424  Cl    0.94602   0.19663   0.89368   0.00000  Uiso   1.00
Cl425  Cl    0.94640   0.30373   0.60625   0.00000  Uiso   1.00
Cl426  Cl    0.55335   0.30398   0.39369   0.00000  Uiso   1.00
Cl427  Cl    0.80372   0.44640   0.60625   0.00000  Uiso   1.00
Cl428  Cl    0.69620   0.44746   0.98444   0.00000  Uiso   1.00
Cl429  Cl    0.80398   0.05335   0.39370   0.00000  Uiso   1.00
Cl430  Cl    0.55358   0.19621   0.60630   0.00000  Uiso   1.00
Cl431  Cl    0.94666   0.19601   0.39369   0.00000  Uiso   1.00
Cl432  Cl    0.69621   0.05358   0.60631   0.00000  Uiso   1.00
Cl433  Cl    0.69599   0.44666   0.39368   0.00000  Uiso   1.00
Cl434  Cl    0.94752   0.30391   0.01557   0.00000  Uiso   1.00
Cl435  Cl    0.94741   0.19618   0.98441   0.00000  Uiso   1.00
Cl436  Cl    0.94601   0.30233   0.51553   0.00000  Uiso   1.00
O437   O     0.75000   0.00000   0.25000   0.00000  Uiso   1.00
O438   O     0.75000   0.46964   0.66317   0.00000  Uiso   1.00
O439   O     0.96964   0.25000   0.33683   0.00000  Uiso   1.00
O440   O     0.53036   0.25000   0.66317   0.00000  Uiso   1.00
O441   O     0.50000   0.21964   0.83683   0.00000  Uiso   1.00
O442   O     0.50000   0.28036   0.16317   0.00000  Uiso   1.00
O443   O     0.78036   0.00000   0.83683   0.00000  Uiso   1.00
O444   O     0.71964   0.00000   0.16317   0.00000  Uiso   1.00
O445   O     0.50000   0.28036   0.83683   0.00000  Uiso   1.00
O446   O     0.50000   0.21964   0.16317   0.00000  Uiso   1.00
O447   O     0.71964   0.00000   0.83683   0.00000  Uiso   1.00
O448   O     0.75000   0.00000   0.75000   0.00000  Uiso   1.00
O449   O     0.78036   0.00000   0.16317   0.00000  Uiso   1.00
O450   O     0.70726   0.07307   0.27282   0.00000  Uiso   1.00
O451   O     0.79275   0.42693   0.72718   0.00000  Uiso   1.00
O452   O     0.92693   0.20726   0.27282   0.00000  Uiso   1.00
O453   O     0.57307   0.29274   0.72718   0.00000  Uiso   1.00
O454   O     0.79275   0.42693   0.27282   0.00000  Uiso   1.00
O455   O     0.70726   0.07307   0.72718   0.00000  Uiso   1.00
O456   O     0.57307   0.29274   0.27282   0.00000  Uiso   1.00
O457   O     0.92693   0.20726   0.72718   0.00000  Uiso   1.00
O458   O     0.70726   0.42693   0.72718   0.00000  Uiso   1.00
O459   O     0.50000   0.25000   0.25000   0.00000  Uiso   1.00
O460   O     0.79275   0.07307   0.27282   0.00000  Uiso   1.00
O461   O     0.92693   0.29275   0.72718   0.00000  Uiso   1.00
O462   O     0.57307   0.20725   0.27282   0.00000  Uiso   1.00
O463   O     0.79275   0.07307   0.72718   0.00000  Uiso   1.00
O464   O     0.70726   0.42693   0.27282   0.00000  Uiso   1.00
O465   O     0.57307   0.20725   0.72718   0.00000  Uiso   1.00
O466   O     0.92693   0.29275   0.27282   0.00000  Uiso   1.00
O467   O     0.95726   0.32307   0.77282   0.00000  Uiso   1.00
O468   O     0.54275   0.17693   0.22718   0.00000  Uiso   1.00
O469   O     0.67693   0.45725   0.77282   0.00000  Uiso   1.00
O470   O     0.50000   0.25000   0.75000   0.00000  Uiso   1.00
O471   O     0.82307   0.04275   0.22718   0.00000  Uiso   1.00
O472   O     0.54275   0.17693   0.77282   0.00000  Uiso   1.00
O473   O     0.95726   0.32307   0.22718   0.00000  Uiso   1.00
O474   O     0.82307   0.04275   0.77282   0.00000  Uiso   1.00
O475   O     0.67693   0.45725   0.22718   0.00000  Uiso   1.00
O476   O     0.95726   0.17693   0.22718   0.00000  Uiso   1.00
O477   O     0.54275   0.32307   0.77282   0.00000  Uiso   1.00
O478   O     0.67693   0.04275   0.22718   0.00000  Uiso   1.00
O479   O     0.82307   0.45726   0.77282   0.00000  Uiso   1.00
O480   O     0.54275   0.32307   0.22718   0.00000  Uiso   1.00
O481   O     0.75000   0.46964   0.33683   0.00000  Uiso   1.00
O482   O     0.95726   0.17693   0.77282   0.00000  Uiso   1.00
O483   O     0.82307   0.45726   0.22718   0.00000  Uiso   1.00
O484   O     0.67693   0.04275   0.77282   0.00000  Uiso   1.00
O485   O     0.75000   0.03036   0.66317   0.00000  Uiso   1.00
O486   O     0.53036   0.25000   0.33683   0.00000  Uiso   1.00
O487   O     0.96964   0.25000   0.66317   0.00000  Uiso   1.00
O488   O     0.75000   0.03036   0.33683   0.00000  Uiso   1.00
Zn489  Zn    0.70660   0.00000   0.21760   0.00000  Uiso   1.00
Zn490  Zn    0.54340   0.25000   0.28240   0.00000  Uiso   1.00
Zn491  Zn    0.75000   0.45660   0.71760   0.00000  Uiso   1.00
Zn492  Zn    0.75000   0.04340   0.28240   0.00000  Uiso   1.00
Zn493  Zn    0.54340   0.25000   0.71760   0.00000  Uiso   1.00
Zn494  Zn    0.95660   0.25000   0.28240   0.00000  Uiso   1.00
Zn495  Zn    0.75000   0.04340   0.71760   0.00000  Uiso   1.00
Zn496  Zn    0.75000   0.45660   0.28240   0.00000  Uiso   1.00
Zn497  Zn    0.79340   0.00000   0.78240   0.00000  Uiso   1.00
Zn498  Zn    0.50000   0.20660   0.21760   0.00000  Uiso   1.00
Zn499  Zn    0.50000   0.29340   0.78240   0.00000  Uiso   1.00
Zn500  Zn    0.79340   0.00000   0.21760   0.00000  Uiso   1.00
Zn501  Zn    0.70660   0.00000   0.78240   0.00000  Uiso   1.00
Zn502  Zn    0.50000   0.29340   0.21760   0.00000  Uiso   1.00
Zn503  Zn    0.50000   0.20660   0.78240   0.00000  Uiso   1.00
Zn504  Zn    0.95660   0.25000   0.71760   0.00000  Uiso   1.00
C505   C     0.22597   0.52317   0.04131   0.00000  Uiso   1.00
C506   C     0.02397   0.77322   0.45868   0.00000  Uiso   1.00
C507   C     0.34809   0.90195   0.75019   0.00000  Uiso   1.00
C508   C     0.40195   0.65191   0.24982   0.00000  Uiso   1.00
C509   C     0.09809   0.84805   0.74982   0.00000  Uiso   1.00
C510   C     0.34805   0.90191   0.25018   0.00000  Uiso   1.00
C511   C     0.15191   0.59805   0.75018   0.00000  Uiso   1.00
C512   C     0.09805   0.65191   0.75018   0.00000  Uiso   1.00
C513   C     0.40191   0.84805   0.25018   0.00000  Uiso   1.00
C514   C     0.15195   0.90191   0.74982   0.00000  Uiso   1.00
C515   C     0.34809   0.59805   0.24982   0.00000  Uiso   1.00
C516   C     0.40195   0.84809   0.75019   0.00000  Uiso   1.00
C517   C     0.27309   0.97595   0.54129   0.00000  Uiso   1.00
C518   C     0.09809   0.65195   0.25018   0.00000  Uiso   1.00
C519   C     0.34805   0.59809   0.74982   0.00000  Uiso   1.00
C520   C     0.15191   0.90195   0.24982   0.00000  Uiso   1.00
C521   C     0.25000   0.50001   0.10222   0.00000  Uiso   1.00
C522   C     0.25000   0.50001   0.89777   0.00000  Uiso   1.00
C523   C     0.49999   0.75000   0.10222   0.00000  Uiso   1.00
C524   C     0.49999   0.75000   0.89777   0.00000  Uiso   1.00
C525   C     0.00000   0.74998   0.60222   0.00000  Uiso   1.00
C526   C     0.00000   0.74999   0.39777   0.00000  Uiso   1.00
C527   C     0.24998   0.50000   0.60222   0.00000  Uiso   1.00
C528   C     0.27320   0.52397   0.45869   0.00000  Uiso   1.00
C529   C     0.24998   0.50000   0.39777   0.00000  Uiso   1.00
C530   C     0.02406   0.72683   0.54131   0.00000  Uiso   1.00
C531   C     0.47608   0.72672   0.45868   0.00000  Uiso   1.00
C532   C     0.22682   0.52406   0.54131   0.00000  Uiso   1.00
C533   C     0.22671   0.97607   0.45868   0.00000  Uiso   1.00
C534   C     0.22590   0.52323   0.08176   0.00000  Uiso   1.00
C535   C     0.27403   0.52331   0.91822   0.00000  Uiso   1.00
C536   C     0.02323   0.72591   0.08176   0.00000  Uiso   1.00
C537   C     0.27397   0.52325   0.95868   0.00000  Uiso   1.00
C538   C     0.02327   0.77403   0.91824   0.00000  Uiso   1.00
C539   C     0.27411   0.97680   0.08176   0.00000  Uiso   1.00
C540   C     0.22597   0.97672   0.91824   0.00000  Uiso   1.00
C541   C     0.47675   0.77408   0.08177   0.00000  Uiso   1.00
C542   C     0.47669   0.72597   0.91822   0.00000  Uiso   1.00
C543   C     0.47588   0.77317   0.58175   0.00000  Uiso   1.00
C544   C     0.02403   0.77329   0.41823   0.00000  Uiso   1.00
C545   C     0.27317   0.97588   0.58175   0.00000  Uiso   1.00
C546   C     0.27328   0.52403   0.41823   0.00000  Uiso   1.00
C547   C     0.02412   0.72677   0.58177   0.00000  Uiso   1.00
C548   C     0.02315   0.72597   0.04130   0.00000  Uiso   1.00
C549   C     0.47599   0.72668   0.41822   0.00000  Uiso   1.00
C550   C     0.22677   0.52412   0.58177   0.00000  Uiso   1.00
C551   C     0.22667   0.97599   0.41822   0.00000  Uiso   1.00
C552   C     0.25001   0.50003   0.02121   0.00000  Uiso   1.00
C553   C     0.25001   0.50003   0.97878   0.00000  Uiso   1.00
C554   C     0.49997   0.74999   0.02121   0.00000  Uiso   1.00
C555   C     0.49997   0.74999   0.97878   0.00000  Uiso   1.00
C556   C     0.00002   0.74996   0.52121   0.00000  Uiso   1.00
C557   C     0.00003   0.74996   0.47878   0.00000  Uiso   1.00
C558   C     0.24995   0.50001   0.52121   0.00000  Uiso   1.00
C559   C     0.02321   0.77396   0.95869   0.00000  Uiso   1.00
C560   C     0.24995   0.50002   0.47877   0.00000  Uiso   1.00
C561   C     0.25000   0.50000   0.35527   0.00000  Uiso   1.00
C562   C     0.25000   0.50000   0.64473   0.00000  Uiso   1.00
C563   C     0.00000   0.75000   0.35527   0.00000  Uiso   1.00
C564   C     0.00000   0.75000   0.64473   0.00000  Uiso   1.00
C565   C    -0.00000   0.75000   0.85527   0.00000  Uiso   1.00
C566   C    -0.00000   0.75000   0.14473   0.00000  Uiso   1.00
C567   C     0.25000   0.50000   0.85527   0.00000  Uiso   1.00
C568   C     0.25000   0.50000   0.14473   0.00000  Uiso   1.00
C569   C     0.17997   0.56998   0.25007   0.00000  Uiso   1.00
C570   C     0.27405   0.97687   0.04130   0.00000  Uiso   1.00
C571   C     0.31998   0.92996   0.75008   0.00000  Uiso   1.00
C572   C     0.42997   0.68002   0.24993   0.00000  Uiso   1.00
C573   C     0.06998   0.82003   0.74992   0.00000  Uiso   1.00
C574   C     0.32003   0.93002   0.25007   0.00000  Uiso   1.00
C575   C     0.18002   0.57003   0.75007   0.00000  Uiso   1.00
C576   C     0.07003   0.81998   0.24993   0.00000  Uiso   1.00
C577   C     0.43002   0.67997   0.74993   0.00000  Uiso   1.00
C578   C     0.17997   0.93002   0.74992   0.00000  Uiso   1.00
C579   C     0.31998   0.57003   0.24993   0.00000  Uiso   1.00
C580   C     0.42996   0.81998   0.75008   0.00000  Uiso   1.00
C581   C     0.22604   0.97679   0.95869   0.00000  Uiso   1.00
C582   C     0.06998   0.67997   0.25007   0.00000  Uiso   1.00
C583   C     0.32003   0.56998   0.74993   0.00000  Uiso   1.00
C584   C     0.18002   0.92997   0.24993   0.00000  Uiso   1.00
C585   C     0.07003   0.68002   0.75007   0.00000  Uiso   1.00
C586   C     0.43002   0.82003   0.25007   0.00000  Uiso   1.00
C587   C     0.14828   0.87878   0.21764   0.00000  Uiso   1.00
C588   C     0.35133   0.62164   0.78170   0.00000  Uiso   1.00
C589   C     0.12157   0.64860   0.21825   0.00000  Uiso   1.00
C590   C     0.37900   0.85194   0.78253   0.00000  Uiso   1.00
C591   C     0.35176   0.62118   0.21761   0.00000  Uiso   1.00
C592   C     0.47680   0.77401   0.04131   0.00000  Uiso   1.00
C593   C     0.14861   0.87843   0.78175   0.00000  Uiso   1.00
C594   C     0.37843   0.85140   0.21825   0.00000  Uiso   1.00
C595   C     0.12115   0.64821   0.78241   0.00000  Uiso   1.00
C596   C     0.14821   0.62115   0.78241   0.00000  Uiso   1.00
C597   C     0.35140   0.87843   0.21825   0.00000  Uiso   1.00
C598   C     0.12157   0.85139   0.78175   0.00000  Uiso   1.00
C599   C     0.37882   0.64824   0.21761   0.00000  Uiso   1.00
C600   C     0.35194   0.87900   0.78253   0.00000  Uiso   1.00
C601   C     0.14860   0.62157   0.21825   0.00000  Uiso   1.00
C602   C     0.37836   0.64867   0.78170   0.00000  Uiso   1.00
C603   C     0.47675   0.72603   0.95868   0.00000  Uiso   1.00
C604   C     0.12122   0.85172   0.21764   0.00000  Uiso   1.00
C605   C     0.39829   0.62877   0.71764   0.00000  Uiso   1.00
C606   C     0.10133   0.87163   0.28171   0.00000  Uiso   1.00
C607   C     0.37144   0.89846   0.71815   0.00000  Uiso   1.00
C608   C     0.12884   0.60178   0.28241   0.00000  Uiso   1.00
C609   C     0.10178   0.87116   0.71759   0.00000  Uiso   1.00
C610   C     0.39863   0.62840   0.28173   0.00000  Uiso   1.00
C611   C     0.12843   0.60140   0.71824   0.00000  Uiso   1.00
C612   C     0.37116   0.89822   0.28241   0.00000  Uiso   1.00
C613   C     0.39822   0.87116   0.28241   0.00000  Uiso   1.00
C614   C     0.47596   0.77311   0.54129   0.00000  Uiso   1.00
C615   C     0.10140   0.62843   0.71824   0.00000  Uiso   1.00
C616   C     0.37160   0.60137   0.28173   0.00000  Uiso   1.00
C617   C     0.12884   0.89822   0.71759   0.00000  Uiso   1.00
C618   C     0.10178   0.62884   0.28241   0.00000  Uiso   1.00
C619   C     0.39847   0.87144   0.71815   0.00000  Uiso   1.00
C620   C     0.12836   0.89867   0.28171   0.00000  Uiso   1.00
C621   C     0.37123   0.60171   0.71764   0.00000  Uiso   1.00
C622   C     0.09805   0.84809   0.24982   0.00000  Uiso   1.00
C623   C     0.40191   0.65195   0.74982   0.00000  Uiso   1.00
C624   C     0.15195   0.59809   0.25018   0.00000  Uiso   1.00
Cl625  Cl    0.19604   0.55242   0.01556   0.00000  Uiso   1.00
Cl626  Cl    0.05378   0.80258   0.48443   0.00000  Uiso   1.00
Cl627  Cl    0.30231   0.94600   0.51553   0.00000  Uiso   1.00
Cl628  Cl    0.30256   0.55379   0.48444   0.00000  Uiso   1.00
Cl629  Cl    0.05402   0.69759   0.51558   0.00000  Uiso   1.00
Cl630  Cl    0.44627   0.69734   0.48442   0.00000  Uiso   1.00
Cl631  Cl    0.19758   0.55401   0.51558   0.00000  Uiso   1.00
Cl632  Cl    0.19734   0.94625   0.48441   0.00000  Uiso   1.00
Cl633  Cl    0.17818   0.88308   0.17768   0.00000  Uiso   1.00
Cl634  Cl    0.32051   0.61840   0.82093   0.00000  Uiso   1.00
Cl635  Cl    0.11825   0.67933   0.17895   0.00000  Uiso   1.00
Cl636  Cl    0.30381   0.55260   0.98441   0.00000  Uiso   1.00
Cl637  Cl    0.38356   0.82231   0.82269   0.00000  Uiso   1.00
Cl638  Cl    0.32191   0.61683   0.17761   0.00000  Uiso   1.00
Cl639  Cl    0.17934   0.88174   0.82104   0.00000  Uiso   1.00
Cl640  Cl    0.38175   0.82066   0.17896   0.00000  Uiso   1.00
Cl641  Cl    0.11676   0.67802   0.82244   0.00000  Uiso   1.00
Cl642  Cl    0.17802   0.61676   0.82244   0.00000  Uiso   1.00
Cl643  Cl    0.32066   0.88175   0.17896   0.00000  Uiso   1.00
Cl644  Cl    0.11825   0.82065   0.82104   0.00000  Uiso   1.00
Cl645  Cl    0.38317   0.67809   0.17761   0.00000  Uiso   1.00
Cl646  Cl    0.32231   0.88356   0.82269   0.00000  Uiso   1.00
Cl647  Cl    0.05242   0.69606   0.01556   0.00000  Uiso   1.00
Cl648  Cl    0.17933   0.61824   0.17895   0.00000  Uiso   1.00
Cl649  Cl    0.38161   0.67949   0.82093   0.00000  Uiso   1.00
Cl650  Cl    0.11693   0.82182   0.17768   0.00000  Uiso   1.00
Cl651  Cl    0.42819   0.63307   0.67768   0.00000  Uiso   1.00
Cl652  Cl    0.07053   0.86838   0.32094   0.00000  Uiso   1.00
Cl653  Cl    0.36797   0.92905   0.67874   0.00000  Uiso   1.00
Cl654  Cl    0.13322   0.57197   0.32243   0.00000  Uiso   1.00
Cl655  Cl    0.07197   0.86678   0.67757   0.00000  Uiso   1.00
Cl656  Cl    0.42941   0.63169   0.32099   0.00000  Uiso   1.00
Cl657  Cl    0.13177   0.57068   0.67894   0.00000  Uiso   1.00
Cl658  Cl    0.05254   0.80381   0.98444   0.00000  Uiso   1.00
Cl659  Cl    0.36678   0.92803   0.32243   0.00000  Uiso   1.00
Cl660  Cl    0.42803   0.86678   0.32243   0.00000  Uiso   1.00
Cl661  Cl    0.07068   0.63177   0.67894   0.00000  Uiso   1.00
Cl662  Cl    0.36831   0.57060   0.32100   0.00000  Uiso   1.00
Cl663  Cl    0.13322   0.92803   0.67757   0.00000  Uiso   1.00
Cl664  Cl    0.07197   0.63322   0.32243   0.00000  Uiso   1.00
Cl665  Cl    0.42905   0.86797   0.67874   0.00000  Uiso   1.00
Cl666  Cl    0.13162   0.92947   0.32095   0.00000  Uiso   1.00
Cl667  Cl    0.36693   0.57182   0.67767   0.00000  Uiso   1.00
Cl668  Cl    0.19645   0.55380   0.10629   0.00000  Uiso   1.00
Cl669  Cl    0.30399   0.94764   0.01555   0.00000  Uiso   1.00
Cl670  Cl    0.30337   0.55399   0.89368   0.00000  Uiso   1.00
Cl671  Cl    0.05385   0.69651   0.10628   0.00000  Uiso   1.00
Cl672  Cl    0.05394   0.80339   0.89371   0.00000  Uiso   1.00
Cl673  Cl    0.30355   0.94621   0.10628   0.00000  Uiso   1.00
Cl674  Cl    0.19662   0.94604   0.89371   0.00000  Uiso   1.00
Cl675  Cl    0.44614   0.80349   0.10630   0.00000  Uiso   1.00
Cl676  Cl    0.44602   0.69663   0.89368   0.00000  Uiso   1.00
Cl677  Cl    0.44640   0.80373   0.60625   0.00000  Uiso   1.00
Cl678  Cl    0.05335   0.80398   0.39369   0.00000  Uiso   1.00
Cl679  Cl    0.30372   0.94640   0.60625   0.00000  Uiso   1.00
Cl680  Cl    0.19620   0.94746   0.98444   0.00000  Uiso   1.00
Cl681  Cl    0.30398   0.55335   0.39370   0.00000  Uiso   1.00
Cl682  Cl    0.05358   0.69621   0.60630   0.00000  Uiso   1.00
Cl683  Cl    0.44666   0.69601   0.39369   0.00000  Uiso   1.00
Cl684  Cl    0.19621   0.55358   0.60631   0.00000  Uiso   1.00
Cl685  Cl    0.19599   0.94666   0.39368   0.00000  Uiso   1.00
Cl686  Cl    0.44752   0.80391   0.01557   0.00000  Uiso   1.00
Cl687  Cl    0.44741   0.69618   0.98441   0.00000  Uiso   1.00
Cl688  Cl    0.44601   0.80233   0.51553   0.00000  Uiso   1.00
O689   O     0.25000   0.50000   0.25000   0.00000  Uiso   1.00
O690   O     0.25000   0.96964   0.66317   0.00000  Uiso   1.00
O691   O     0.46964   0.75000   0.33683   0.00000  Uiso   1.00
O692   O     0.03036   0.75000   0.66317   0.00000  Uiso   1.00
O693   O     0.00000   0.71964   0.83683   0.00000  Uiso   1.00
O694   O     0.00000   0.78036   0.16317   0.00000  Uiso   1.00
O695   O     0.28036   0.50000   0.83683   0.00000  Uiso   1.00
O696   O     0.21964   0.50000   0.16317   0.00000  Uiso   1.00
O697   O     0.00000   0.78036   0.83683   0.00000  Uiso   1.00
O698   O     0.00000   0.71964   0.16317   0.00000  Uiso   1.00
O699   O     0.21964   0.50000   0.83683   0.00000  Uiso   1.00
O700   O     0.25000   0.50000   0.75000   0.00000  Uiso   1.00
O701   O     0.28036   0.50000   0.16317   0.00000  Uiso   1.00
O702   O     0.20726   0.57307   0.27282   0.00000  Uiso   1.00
O703   O     0.29275   0.92693   0.72718   0.00000  Uiso   1.00
O704   O     0.42693   0.70726   0.27282   0.00000  Uiso   1.00
O705   O     0.07307   0.79274   0.72718   0.00000  Uiso   1.00
O706   O     0.29275   0.92693   0.27282   0.00000  Uiso   1.00
O707   O     0.20726   0.57307   0.72718   0.00000  Uiso   1.00
O708   O     0.07307   0.79274   0.27282   0.00000  Uiso   1.00
O709   O     0.42693   0.70726   0.72718   0.00000  Uiso   1.00
O710   O     0.20726   0.92693   0.72718   0.00000  Uiso   1.00
O711   O     0.00000   0.75000   0.25000   0.00000  Uiso   1.00
O712   O     0.29275   0.57307   0.27282   0.00000  Uiso   1.00
O713   O     0.42693   0.79275   0.72718   0.00000  Uiso   1.00
O714   O     0.07307   0.70725   0.27282   0.00000  Uiso   1.00
O715   O     0.29275   0.57307   0.72718   0.00000  Uiso   1.00
O716   O     0.20726   0.92693   0.27282   0.00000  Uiso   1.00
O717   O     0.07307   0.70725   0.72718   0.00000  Uiso   1.00
O718   O     0.42693   0.79275   0.27282   0.00000  Uiso   1.00
O719   O     0.45726   0.82307   0.77282   0.00000  Uiso   1.00
O720   O     0.04275   0.67693   0.22718   0.00000  Uiso   1.00
O721   O     0.17693   0.95725   0.77282   0.00000  Uiso   1.00
O722   O     0.00000   0.75000   0.75000   0.00000  Uiso   1.00
O723   O     0.32307   0.54275   0.22718   0.00000  Uiso   1.00
O724   O     0.04275   0.67693   0.77282   0.00000  Uiso   1.00
O725   O     0.45726   0.82307   0.22718   0.00000  Uiso   1.00
O726   O     0.32307   0.54275   0.77282   0.00000  Uiso   1.00
O727   O     0.17693   0.95725   0.22718   0.00000  Uiso   1.00
O728   O     0.45726   0.67693   0.22718   0.00000  Uiso   1.00
O729   O     0.04275   0.82307   0.77282   0.00000  Uiso   1.00
O730   O     0.17693   0.54275   0.22718   0.00000  Uiso   1.00
O731   O     0.32307   0.95726   0.77282   0.00000  Uiso   1.00
O732   O     0.04275   0.82307   0.22718   0.00000  Uiso   1.00
O733   O     0.25000   0.96964   0.33683   0.00000  Uiso   1.00
O734   O     0.45726   0.67693   0.77282   0.00000  Uiso   1.00
O735   O     0.32307   0.95726   0.22718   0.00000  Uiso   1.00
O736   O     0.17693   0.54275   0.77282   0.00000  Uiso   1.00
O737   O     0.25000   0.53036   0.66317   0.00000  Uiso   1.00
O738   O     0.03036   0.75000   0.33683   0.00000  Uiso   1.00
O739   O     0.46964   0.75000   0.66317   0.00000  Uiso   1.00
O740   O     0.25000   0.53036   0.33683   0.00000  Uiso   1.00
Zn741  Zn    0.20660   0.50000   0.21760   0.00000  Uiso   1.00
Zn742  Zn    0.04340   0.75000   0.28240   0.00000  Uiso   1.00
Zn743  Zn    0.25000   0.95660   0.71760   0.00000  Uiso   1.00
Zn744  Zn    0.25000   0.54340   0.28240   0.00000  Uiso   1.00
Zn745  Zn    0.04340   0.75000   0.71760   0.00000  Uiso   1.00
Zn746  Zn    0.45660   0.75000   0.28240   0.00000  Uiso   1.00
Zn747  Zn    0.25000   0.54340   0.71760   0.00000  Uiso   1.00
Zn748  Zn    0.25000   0.95660   0.28240   0.00000  Uiso   1.00
Zn749  Zn    0.29340   0.50000   0.78240   0.00000  Uiso   1.00
Zn750  Zn    0.00000   0.70660   0.21760   0.00000  Uiso   1.00
Zn751  Zn    0.00000   0.79340   0.78240   0.00000  Uiso   1.00
Zn752  Zn    0.29340   0.50000   0.21760   0.00000  Uiso   1.00
Zn753  Zn    0.20660   0.50000   0.78240   0.00000  Uiso   1.00
Zn754  Zn    0.00000   0.79340   0.21760   0.00000  Uiso   1.00
Zn755  Zn    0.00000   0.70660   0.78240   0.00000  Uiso   1.00
Zn756  Zn    0.45660   0.75000   0.71760   0.00000  Uiso   1.00
C757   C     0.72597   0.52317   0.04131   0.00000  Uiso   1.00
C758   C     0.52397   0.77322   0.45868   0.00000  Uiso   1.00
C759   C     0.84809   0.90195   0.75019   0.00000  Uiso   1.00
C760   C     0.90195   0.65191   0.24982   0.00000  Uiso   1.00
C761   C     0.59809   0.84805   0.74982   0.00000  Uiso   1.00
C762   C     0.84805   0.90191   0.25018   0.00000  Uiso   1.00
C763   C     0.65191   0.59805   0.75018   0.00000  Uiso   1.00
C764   C     0.59805   0.65191   0.75018   0.00000  Uiso   1.00
C765   C     0.90191   0.84805   0.25018   0.00000  Uiso   1.00
C766   C     0.65195   0.90191   0.74982   0.00000  Uiso   1.00
C767   C     0.84809   0.59805   0.24982   0.00000  Uiso   1.00
C768   C     0.90195   0.84809   0.75019   0.00000  Uiso   1.00
C769   C     0.77309   0.97595   0.54129   0.00000  Uiso   1.00
C770   C     0.59809   0.65195   0.25018   0.00000  Uiso   1.00
C771   C     0.84805   0.59809   0.74982   0.00000  Uiso   1.00
C772   C     0.65191   0.90195   0.24982   0.00000  Uiso   1.00
C773   C     0.75000   0.50001   0.10222   0.00000  Uiso   1.00
C774   C     0.75000   0.50001   0.89777   0.00000  Uiso   1.00
C775   C     0.99999   0.75000   0.10222   0.00000  Uiso   1.00
C776   C     0.99999   0.75000   0.89777   0.00000  Uiso   1.00
C777   C     0.50000   0.74998   0.60222   0.00000  Uiso   1.00
C778   C     0.50000   0.74999   0.39777   0.00000  Uiso   1.00
C779   C     0.74998   0.50000   0.60222   0.00000  Uiso   1.00
C780   C     0.77320   0.52397   0.45869   0.00000  Uiso   1.00
C781   C     0.74998   0.50000   0.39777   0.00000  Uiso   1.00
C782   C     0.52406   0.72683   0.54131   0.00000  Uiso   1.00
C783   C     0.97608   0.72672   0.45868   0.00000  Uiso   1.00
C784   C     0.72682   0.52406   0.54131   0.00000  Uiso   1.00
C785   C     0.72671   0.97607   0.45868   0.00000  Uiso   1.00
C786   C     0.72590   0.52323   0.08176   0.00000  Uiso   1.00
C787   C     0.77403   0.52331   0.91822   0.00000  Uiso   1.00
C788   C     0.52323   0.72591   0.08176   0.00000  Uiso   1.00
C789   C     0.77397   0.52325   0.95868   0.00000  Uiso   1.00
C790   C     0.52327   0.77403   0.91824   0.00000  Uiso   1.00
C791   C     0.77411   0.97680   0.08176   0.00000  Uiso   1.00
C792   C     0.72597   0.97672   0.91824   0.00000  Uiso   1.00
C793   C     0.97675   0.77408   0.08177   0.00000  Uiso   1.00
C794   C     0.97669   0.72597   0.91822   0.00000  Uiso   1.00
C795   C     0.97588   0.77317   0.58175   0.00000  Uiso   1.00
C796   C     0.52403   0.77329   0.41823   0.00000  Uiso   1.00
C797   C     0.77317   0.97588   0.58175   0.00000  Uiso   1.00
C798   C     0.77328   0.52403   0.41823   0.00000  Uiso   1.00
C799   C     0.52412   0.72677   0.58177   0.00000  Uiso   1.00
C800   C     0.52315   0.72597   0.04130   0.00000  Uiso   1.00
C801   C     0.97599   0.72668   0.41822   0.00000  Uiso   1.00
C802   C     0.72677   0.52412   0.58177   0.00000  Uiso   1.00
C803   C     0.72667   0.97599   0.41822   0.00000  Uiso   1.00
C804   C     0.75001   0.50003   0.02121   0.00000  Uiso   1.00
C805   C     0.75001   0.50003   0.97878   0.00000  Uiso   1.00
C806   C     0.99997   0.74999   0.02121   0.00000  Uiso   1.00
C807   C     0.99997   0.74999   0.97878   0.00000  Uiso   1.00
C808   C     0.50002   0.74996   0.52121   0.00000  Uiso   1.00
C809   C     0.50003   0.74996   0.47878   0.00000  Uiso   1.00
C810   C     0.74995   0.50001   0.52121   0.00000  Uiso   1.00
C811   C     0.52321   0.77396   0.95869   0.00000  Uiso   1.00
C812   C     0.74995   0.50002   0.47877   0.00000  Uiso   1.00
C813   C     0.75000   0.50000   0.35527   0.00000  Uiso   1.00
C814   C     0.75000   0.50000   0.64473   0.00000  Uiso   1.00
C815   C     0.50000   0.75000   0.35527   0.00000  Uiso   1.00
C816   C     0.50000   0.75000   0.64473   0.00000  Uiso   1.00
C817   C     0.50000   0.75000   0.85527   0.00000  Uiso   1.00
C818   C     0.50000   0.75000   0.14473   0.00000  Uiso   1.00
C819   C     0.75000   0.50000   0.85527   0.00000  Uiso   1.00
C820   C     0.75000   0.50000   0.14473   0.00000  Uiso   1.00
C821   C     0.67997   0.56998   0.25007   0.00000  Uiso   1.00
C822   C     0.77405   0.97687   0.04130   0.00000  Uiso   1.00
C823   C     0.81998   0.92996   0.75008   0.00000  Uiso   1.00
C824   C     0.92997   0.68002   0.24993   0.00000  Uiso   1.00
C825   C     0.56998   0.82003   0.74992   0.00000  Uiso   1.00
C826   C     0.82003   0.93002   0.25007   0.00000  Uiso   1.00
C827   C     0.68002   0.57003   0.75007   0.00000  Uiso   1.00
C828   C     0.57003   0.81998   0.24993   0.00000  Uiso   1.00
C829   C     0.93002   0.67997   0.74993   0.00000  Uiso   1.00
C830   C     0.67997   0.93002   0.74992   0.00000  Uiso   1.00
C831   C     0.81998   0.57003   0.24993   0.00000  Uiso   1.00
C832   C     0.92996   0.81998   0.75008   0.00000  Uiso   1.00
C833   C     0.72604   0.97679   0.95869   0.00000  Uiso   1.00
C834   C     0.56998   0.67997   0.25007   0.00000  Uiso   1.00
C835   C     0.82003   0.56998   0.74993   0.00000  Uiso   1.00
C836   C     0.68002   0.92997   0.24993   0.00000  Uiso   1.00
C837   C     0.57003   0.68002   0.75007   0.00000  Uiso   1.00
C838   C     0.93002   0.82003   0.25007   0.00000  Uiso   1.00
C839   C     0.64828   0.87878   0.21764   0.00000  Uiso   1.00
C840   C     0.85133   0.62164   0.78170   0.00000  Uiso   1.00
C841   C     0.62157   0.64860   0.21825   0.00000  Uiso   1.00
C842   C     0.87900   0.85194   0.78253   0.00000  Uiso   1.00
C843   C     0.85176   0.62118   0.21761   0.00000  Uiso   1.00
C844   C     0.97680   0.77401   0.04131   0.00000  Uiso   1.00
C845   C     0.64861   0.87843   0.78175   0.00000  Uiso   1.00
C846   C     0.87843   0.85140   0.21825   0.00000  Uiso   1.00
C847   C     0.62115   0.64821   0.78241   0.00000  Uiso   1.00
C848   C     0.64821   0.62115   0.78241   0.00000  Uiso   1.00
C849   C     0.85140   0.87843   0.21825   0.00000  Uiso   1.00
C850   C     0.62157   0.85139   0.78175   0.00000  Uiso   1.00
C851   C     0.87882   0.64824   0.21761   0.00000  Uiso   1.00
C852   C     0.85194   0.87900   0.78253   0.00000  Uiso   1.00
C853   C     0.64860   0.62157   0.21825   0.00000  Uiso   1.00
C854   C     0.87836   0.64867   0.78170   0.00000  Uiso   1.00
C855   C     0.97675   0.72603   0.95868   0.00000  Uiso   1.00
C856   C     0.62122   0.85172   0.21764   0.00000  Uiso   1.00
C857   C     0.89829   0.62877   0.71764   0.00000  Uiso   1.00
C858   C     0.60133   0.87163   0.28171   0.00000  Uiso   1.00
C859   C     0.87144   0.89846   0.71815   0.00000  Uiso   1.00
C860   C     0.62884   0.60178   0.28241   0.00000  Uiso   1.00
C861   C     0.60178   0.87116   0.71759   0.00000  Uiso   1.00
C862   C     0.89863   0.62840   0.28173   0.00000  Uiso   1.00
C863   C     0.62843   0.60140   0.71824   0.00000  Uiso   1.00
C864   C     0.87116   0.89822   0.28241   0.00000  Uiso   1.00
C865   C     0.89822   0.87116   0.28241   0.00000  Uiso   1.00
C866   C     0.97596   0.77311   0.54129   0.00000  Uiso   1.00
C867   C     0.60140   0.62843   0.71824   0.00000  Uiso   1.00
C868   C     0.87160   0.60137   0.28173   0.00000  Uiso   1.00
C869   C     0.62884   0.89822   0.71759   0.00000  Uiso   1.00
C870   C     0.60178   0.62884   0.28241   0.00000  Uiso   1.00
C871   C     0.89847   0.87144   0.71815   0.00000  Uiso   1.00
C872   C     0.62836   0.89867   0.28171   0.00000  Uiso   1.00
C873   C     0.87123   0.60171   0.71764   0.00000  Uiso   1.00
C874   C     0.59805   0.84809   0.24982   0.00000  Uiso   1.00
C875   C     0.90191   0.65195   0.74982   0.00000  Uiso   1.00
C876   C     0.65195   0.59809   0.25018   0.00000  Uiso   1.00
Cl877  Cl    0.69604   0.55242   0.01556   0.00000  Uiso   1.00
Cl878  Cl    0.55378   0.80258   0.48443   0.00000  Uiso   1.00
Cl879  Cl    0.80231   0.94600   0.51553   0.00000  Uiso   1.00
Cl880  Cl    0.80256   0.55379   0.48444   0.00000  Uiso   1.00
Cl881  Cl    0.55402   0.69759   0.51558   0.00000  Uiso   1.00
Cl882  Cl    0.94627   0.69734   0.48442   0.00000  Uiso   1.00
Cl883  Cl    0.69758   0.55401   0.51558   0.00000  Uiso   1.00
Cl884  Cl    0.69734   0.94625   0.48441   0.00000  Uiso   1.00
Cl885  Cl    0.67818   0.88308   0.17768   0.00000  Uiso   1.00
Cl886  Cl    0.82051   0.61840   0.82093   0.00000  Uiso   1.00
Cl887  Cl    0.61825   0.67933   0.17895   0.00000  Uiso   1.00
Cl888  Cl    0.80381   0.55260   0.98441   0.00000  Uiso   1.00
Cl889  Cl    0.88356   0.82231   0.82269   0.00000  Uiso   1.00
Cl890  Cl    0.82191   0.61683   0.17761   0.00000  Uiso   1.00
Cl891  Cl    0.67934   0.88174   0.82104   0.00000  Uiso   1.00
Cl892  Cl    0.88175   0.82066   0.17896   0.00000  Uiso   1.00
Cl893  Cl    0.61676   0.67802   0.82244   0.00000  Uiso   1.00
Cl894  Cl    0.67802   0.61676   0.82244   0.00000  Uiso   1.00
Cl895  Cl    0.82066   0.88175   0.17896   0.00000  Uiso   1.00
Cl896  Cl    0.61825   0.82065   0.82104   0.00000  Uiso   1.00
Cl897  Cl    0.88317   0.67809   0.17761   0.00000  Uiso   1.00
Cl898  Cl    0.82231   0.88356   0.82269   0.00000  Uiso   1.00
Cl899  Cl    0.55242   0.69606   0.01556   0.00000  Uiso   1.00
Cl900  Cl    0.67933   0.61824   0.17895   0.00000  Uiso   1.00
Cl901  Cl    0.88161   0.67949   0.82093   0.00000  Uiso   1.00
Cl902  Cl    0.61693   0.82182   0.17768   0.00000  Uiso   1.00
Cl903  Cl    0.92819   0.63307   0.67768   0.00000  Uiso   1.00
Cl904  Cl    0.57053   0.86838   0.32094   0.00000  Uiso   1.00
Cl905  Cl    0.86797   0.92905   0.67874   0.00000  Uiso   1.00
Cl906  Cl    0.63322   0.57197   0.32243   0.00000  Uiso   1.00
Cl907  Cl    0.57197   0.86678   0.67757   0.00000  Uiso   1.00
Cl908  Cl    0.92941   0.63169   0.32099   0.00000  Uiso   1.00
Cl909  Cl    0.63177   0.57068   0.67894   0.00000  Uiso   1.00
Cl910  Cl    0.55254   0.80381   0.98444   0.00000  Uiso   1.00
Cl911  Cl    0.86678   0.92803   0.32243   0.00000  Uiso   1.00
Cl912  Cl    0.92803   0.86678   0.32243   0.00000  Uiso   1.00
Cl913  Cl    0.57068   0.63177   0.67894   0.00000  Uiso   1.00
Cl914  Cl    0.86831   0.57060   0.32100   0.00000  Uiso   1.00
Cl915  Cl    0.63322   0.92803   0.67757   0.00000  Uiso   1.00
Cl916  Cl    0.57197   0.63322   0.32243   0.00000  Uiso   1.00
Cl917  Cl    0.92905   0.86797   0.67874   0.00000  Uiso   1.00
Cl918  Cl    0.63162   0.92947   0.32095   0.00000  Uiso   1.00
Cl919  Cl    0.86693   0.57182   0.67767   0.00000  Uiso   1.00
Cl920  Cl    0.69645   0.55380   0.10629   0.00000  Uiso   1.00
Cl921  Cl    0.80399   0.94764   0.01555   0.00000  Uiso   1.00
Cl922  Cl    0.80337   0.55399   0.89368   0.00000  Uiso   1.00
Cl923  Cl    0.55385   0.69651   0.10628   0.00000  Uiso   1.00
Cl924  Cl    0.55394   0.80339   0.89371   0.00000  Uiso   1.00
Cl925  Cl    0.80355   0.94621   0.10628   0.00000  Uiso   1.00
Cl926  Cl    0.69662   0.94604   0.89371   0.00000  Uiso   1.00
Cl927  Cl    0.94614   0.80349   0.10630   0.00000  Uiso   1.00
Cl928  Cl    0.94602   0.69663   0.89368   0.00000  Uiso   1.00
Cl929  Cl    0.94640   0.80373   0.60625   0.00000  Uiso   1.00
Cl930  Cl    0.55335   0.80398   0.39369   0.00000  Uiso   1.00
Cl931  Cl    0.80372   0.94640   0.60625   0.00000  Uiso   1.00
Cl932  Cl    0.69620   0.94746   0.98444   0.00000  Uiso   1.00
Cl933  Cl    0.80398   0.55335   0.39370   0.00000  Uiso   1.00
Cl934  Cl    0.55358   0.69621   0.60630   0.00000  Uiso   1.00
Cl935  Cl    0.94666   0.69601   0.39369   0.00000  Uiso   1.00
Cl936  Cl    0.69621   0.55358   0.60631   0.00000  Uiso   1.00
Cl937  Cl    0.69599   0.94666   0.39368   0.00000  Uiso   1.00
Cl938  Cl    0.94752   0.80391   0.01557   0.00000  Uiso   1.00
Cl939  Cl    0.94741   0.69618   0.98441   0.00000  Uiso   1.00
Cl940  Cl    0.94601   0.80233   0.51553   0.00000  Uiso   1.00
O941   O     0.75000   0.50000   0.25000   0.00000  Uiso   1.00
O942   O     0.75000   0.96964   0.66317   0.00000  Uiso   1.00
O943   O     0.96964   0.75000   0.33683   0.00000  Uiso   1.00
O944   O     0.53036   0.75000   0.66317   0.00000  Uiso   1.00
O945   O     0.50000   0.71964   0.83683   0.00000  Uiso   1.00
O946   O     0.50000   0.78036   0.16317   0.00000  Uiso   1.00
O947   O     0.78036   0.50000   0.83683   0.00000  Uiso   1.00
O948   O     0.71964   0.50000   0.16317   0.00000  Uiso   1.00
O949   O     0.50000   0.78036   0.83683   0.00000  Uiso   1.00
O950   O     0.50000   0.71964   0.16317   0.00000  Uiso   1.00
O951   O     0.71964   0.50000   0.83683   0.00000  Uiso   1.00
O952   O     0.75000   0.50000   0.75000   0.00000  Uiso   1.00
O953   O     0.78036   0.50000   0.16317   0.00000  Uiso   1.00
O954   O     0.70726   0.57307   0.27282   0.00000  Uiso   1.00
O955   O     0.79275   0.92693   0.72718   0.00000  Uiso   1.00
O956   O     0.92693   0.70726   0.27282   0.00000  Uiso   1.00
O957   O     0.57307   0.79274   0.72718   0.00000  Uiso   1.00
O958   O     0.79275   0.92693   0.27282   0.00000  Uiso   1.00
O959   O     0.70726   0.57307   0.72718   0.00000  Uiso   1.00
O960   O     0.57307   0.79274   0.27282   0.00000  Uiso   1.00
O961   O     0.92693   0.70726   0.72718   0.00000  Uiso   1.00
O962   O     0.70726   0.92693   0.72718   0.00000  Uiso   1.00
O963   O     0.50000   0.75000   0.25000   0.00000  Uiso   1.00
O964   O     0.79275   0.57307   0.27282   0.00000  Uiso   1.00
O965   O     0.92693   0.79275   0.72718   0.00000  Uiso   1.00
O966   O     0.57307   0.70725   0.27282   0.00000  Uiso   1.00
O967   O     0.79275   0.57307   0.72718   0.00000  Uiso   1.00
O968   O     0.70726   0.92693   0.27282   0.00000  Uiso   1.00
O969   O     0.57307   0.70725   0.72718   0.00000  Uiso   1.00
O970   O     0.92693   0.79275   0.27282   0.00000  Uiso   1.00
O971   O     0.95726   0.82307   0.77282   0.00000  Uiso   1.00
O972   O     0.54275   0.67693   0.22718   0.00000  Uiso   1.00
O973   O     0.67693   0.95725   0.77282   0.00000  Uiso   1.00
O974   O     0.50000   0.75000   0.75000   0.00000  Uiso   1.00
O975   O     0.82307   0.54275   0.22718   0.00000  Uiso   1.00
O976   O     0.54275   0.67693   0.77282   0.00000  Uiso   1.00
O977   O     0.95726   0.82307   0.22718   0.00000  Uiso   1.00
O978   O     0.82307   0.54275   0.77282   0.00000  Uiso   1.00
O979   O     0.67693   0.95725   0.22718   0.00000  Uiso   1.00
O980   O     0.95726   0.67693   0.22718   0.00000  Uiso   1.00
O981   O     0.54275   0.82307   0.77282   0.00000  Uiso   1.00
O982   O     0.67693   0.54275   0.22718   0.00000  Uiso   1.00
O983   O     0.82307   0.95726   0.77282   0.00000  Uiso   1.00
O984   O     0.54275   0.82307   0.22718   0.00000  Uiso   1.00
O985   O     0.75000   0.96964   0.33683   0.00000  Uiso   1.00
O986   O     0.95726   0.67693   0.77282   0.00000  Uiso   1.00
O987   O     0.82307   0.95726   0.22718   0.00000  Uiso   1.00
O988   O     0.67693   0.54275   0.77282   0.00000  Uiso   1.00
O989   O     0.75000   0.53036   0.66317   0.00000  Uiso   1.00
O990   O     0.53036   0.75000   0.33683   0.00000  Uiso   1.00
O991   O     0.96964   0.75000   0.66317   0.00000  Uiso   1.00
O992   O     0.75000   0.53036   0.33683   0.00000  Uiso   1.00
Zn993  Zn    0.70660   0.50000   0.21760   0.00000  Uiso   1.00
Zn994  Zn    0.54340   0.75000   0.28240   0.00000  Uiso   1.00
Zn995  Zn    0.75000   0.95660   0.71760   0.00000  Uiso   1.00
Zn996  Zn    0.75000   0.54340   0.28240   0.00000  Uiso   1.00
Zn997  Zn    0.54340   0.75000   0.71760   0.00000  Uiso   1.00
Zn998  Zn    0.95660   0.75000   0.28240   0.00000  Uiso   1.00
Zn999  Zn    0.75000   0.54340   0.71760   0.00000  Uiso   1.00
Zn1000 Zn    0.75000   0.95660   0.28240   0.00000  Uiso   1.00
Zn1001 Zn    0.79340   0.50000   0.78240   0.00000  Uiso   1.00
Zn1002 Zn    0.50000   0.70660   0.21760   0.00000  Uiso   1.00
Zn1003 Zn    0.50000   0.79340   0.78240   0.00000  Uiso   1.00
Zn1004 Zn    0.79340   0.50000   0.21760   0.00000  Uiso   1.00
Zn1005 Zn    0.70660   0.50000   0.78240   0.00000  Uiso   1.00
Zn1006 Zn    0.50000   0.79340   0.21760   0.00000  Uiso   1.00
Zn1007 Zn    0.50000   0.70660   0.78240   0.00000  Uiso   1.00
Zn1008 Zn    0.95660   0.75000   0.71760   0.00000  Uiso   1.00
loop_
_geom_bond_atom_site_label_1
_geom_bond_atom_site_label_2
_geom_bond_distance
_geom_bond_site_symmetry_2
_ccdc_geom_bond_type
C1     C48     1.404   .     A
C1     C30     1.400   .     A
C1     Cl121   1.770   .     S
C2     C40     1.400   .     A
C2     Cl122   1.769   .     S
C2     C53     1.404   .     A
C3     C96     1.406   .     A
C3     C67     1.450   .     S
C3     C103    1.405   .     A
C4     C68     1.450   .     S
C4     C106    1.405   .     A
C4     C95     1.405   .     A
C5     C94     1.405   .     A
C5     C69     1.450   .     S
C5     C105    1.405   .     A
C6     C93     1.405   .     A
C6     C70     1.450   .     S
C6     C108    1.405   .     A
C7     C71     1.450   .     S
C7     C92     1.405   .     A
C7     C107    1.405   .     A
C8     C81     1.450   .     S
C8     C111    1.405   .     A
C8     C91     1.405   .     A
C9     C109    1.405   .     A
C9     C90     1.404   .     A
C9     C82     1.450   .     S
C10    C89     1.405   .     A
C10    C113    1.405   .     A
C10    C74     1.450   .     S
C11    C87     1.405   .     A
C11    C112    1.405   .     A
C11    C75     1.450   .     S
C12    C86     1.406   .     A
C12    C115    1.405   .     A
C12    C76     1.450   .     S
C13    C41     1.400   .     A
C13    Cl123   1.770   .     S
C13    C558    1.404   .     S
C14    C114    1.406   .     A
C14    C85     1.405   .     A
C14    C78     1.450   .     S
C15    C79     1.450   .     S
C15    C117    1.405   .     A
C15    C84     1.405   .     A
C16    C116    1.404   .     A
C16    C83     1.405   .     A
C16    C80     1.450   .     S
C17    C64     1.471   .     S
C17    C30     1.413   .     A
C17    C539    1.413   1_545 S
C18    C63     1.471   .     S
C18    C31     1.413   .     A
C18    C540    1.413   1_545 S
C19    C314    1.471   .     S
C19    C37     1.413   .     A
C19    C284    1.413   .     S
C20    C38     1.413   .     A
C20    C313    1.471   .     S
C20    C286    1.413   .     S
C21    C60     1.471   .     S
C21    C43     1.413   .     A
C21    C291    1.413   1_455 S
C22    C40     1.413   .     A
C22    C59     1.471   .     S
C22    C297    1.413   1_455 S
C23    C46     1.413   .     A
C23    C58     1.471   .     S
C23    C545    1.413   1_545 S
C24    C42     1.400   .     A
C24    Cl124   1.770   .     S
C24    C56     1.404   .     A
C25    C57     1.471   .     S
C25    C42     1.413   .     A
C25    C551    1.413   1_545 S
C26    C43     1.400   .     A
C26    C52     1.404   .     A
C26    Cl125   1.770   .     S
C27    C45     1.400   .     A
C27    Cl126   1.770   .     S
C27    C305    1.404   .     S
C28    C46     1.400   .     A
C28    Cl127   1.770   .     S
C28    C54     1.404   .     A
C29    C47     1.400   .     A
C29    Cl128   1.770   .     S
C29    C560    1.404   .     S
C30    Cl164   1.768   .     S
C31    C33     1.400   .     A
C31    Cl166   1.768   .     S
C32    Cl167   1.768   .     S
C32    C44     1.400   .     A
C32    C271    1.413   1_455 S
C33    C49     1.404   .     A
C33    Cl132   1.769   .     S
C34    C55     1.400   .     A
C34    Cl168   1.768   .     S
C34    C272    1.413   1_455 S
C35    C66     1.400   .     A
C35    Cl169   1.768   .     S
C35    C521    1.413   .     S
C36    C77     1.400   .     A
C36    Cl170   1.768   .     S
C36    C522    1.413   .     S
C37    C88     1.400   .     A
C37    Cl171   1.768   .     S
C38    C99     1.400   .     A
C38    Cl172   1.768   .     S
C39    C110    1.400   .     A
C39    Cl173   1.768   .     S
C39    C273    1.413   .     S
C40    Cl174   1.768   .     S
C41    Cl175   1.768   .     S
C41    C527    1.413   .     S
C42    Cl177   1.768   .     S
C43    Cl178   1.768   .     S
C44    Cl143   1.770   .     S
C44    C302    1.404   1_455 S
C45    Cl179   1.768   .     S
C45    C274    1.413   .     S
C46    Cl180   1.768   .     S
C47    Cl181   1.768   .     S
C47    C529    1.413   .     S
C48    C49     1.469   1_554 S
C48    C570    1.404   1_545 S
C49    C48     1.469   1_556 S
C49    C581    1.404   1_545 S
C50    C88     1.404   .     A
C50    C296    1.404   .     S
C50    C51     1.469   1_554 S
C51    C99     1.404   .     A
C51    C50     1.469   1_556 S
C51    C307    1.404   .     S
C52    C53     1.469   .     S
C52    C362    1.404   1_455 S
C53    C279    1.404   1_455 S
C54    C56     1.469   .     S
C54    C517    1.404   1_545 S
C55    Cl154   1.770   .     S
C55    C303    1.404   1_455 S
C56    C533    1.404   1_545 S
C57    O236    1.280   .     A
C57    O733    1.280   1_545 S
C58    O233    1.280   .     A
C58    O690    1.280   1_545 S
C59    O234    1.280   .     A
C59    O439    1.280   1_455 S
C60    O188    1.280   .     A
C60    O487    1.280   1_455 S
C61    O189    1.280   .     A
C61    C272    1.471   1_455 S
C61    O193    1.280   .     S
C62    O190    1.280   .     A
C62    C271    1.471   1_455 S
C62    O194    1.280   .     S
C63    O191    1.280   .     A
C63    O195    1.280   .     A
C64    O197    1.280   .     A
C64    O192    1.280   .     A
C65    O198    1.275   .     A
C65    O226    1.277   .     A
C65    C120    1.450   .     S
C66    Cl165   1.769   .     S
C66    C552    1.404   .     S
C67    O199    1.277   .     A
C67    O227    1.275   .     A
C68    O224    1.275   .     A
C68    O200    1.277   .     A
C69    O201    1.275   .     A
C69    O225    1.277   .     A
C70    O231    1.277   .     A
C70    O202    1.275   .     A
C71    O232    1.275   .     A
C71    O203    1.277   .     A
C72    O228    1.275   .     A
C72    C118    1.450   .     S
C72    O204    1.277   .     A
C73    C119    1.450   .     S
C73    O230    1.277   .     A
C73    O205    1.275   .     A
C74    O206    1.275   .     A
C74    O217    1.277   .     A
C75    O219    1.275   .     A
C75    O208    1.277   .     A
C76    O209    1.277   .     A
C76    O215    1.275   .     A
C77    Cl176   1.770   .     S
C77    C553    1.404   .     S
C78    O210    1.275   .     A
C78    O216    1.277   .     A
C79    O211    1.275   .     A
C79    O222    1.277   .     A
C80    O212    1.277   .     A
C80    O223    1.275   .     A
C81    O213    1.277   .     A
C81    O220    1.275   .     A
C82    O221    1.277   .     A
C82    O214    1.275   .     A
C83    Cl129   1.769   .     S
C83    C100    1.398   .     A
C84    C98     1.397   .     A
C84    Cl130   1.768   .     S
C85    Cl131   1.768   .     S
C85    C97     1.397   .     A
C86    Cl133   1.770   .     S
C86    C96     1.398   .     A
C87    C95     1.398   .     A
C87    Cl134   1.769   .     S
C88    Cl182   1.770   .     S
C89    Cl135   1.768   .     S
C89    C94     1.397   .     A
C90    C93     1.397   .     A
C90    Cl136   1.768   .     S
C91    Cl137   1.769   .     S
C91    C92     1.398   .     A
C92    Cl138   1.769   .     S
C93    Cl139   1.768   .     S
C94    Cl140   1.768   .     S
C95    Cl141   1.769   .     S
C96    Cl142   1.770   .     S
C97    Cl144   1.768   .     S
C97    C120    1.405   .     A
C98    C119    1.404   .     A
C98    Cl145   1.768   .     S
C99    Cl183   1.769   .     S
C100   C118    1.405   .     A
C100   Cl146   1.769   .     S
C101   C119    1.405   .     A
C101   Cl147   1.769   .     S
C101   C117    1.398   .     A
C102   Cl148   1.768   .     S
C102   C118    1.404   .     A
C102   C116    1.397   .     A
C103   C115    1.396   .     A
C103   Cl149   1.768   .     S
C104   Cl150   1.769   .     S
C104   C120    1.406   .     A
C104   C114    1.398   .     A
C105   C113    1.398   .     A
C105   Cl151   1.769   .     S
C106   C112    1.397   .     A
C106   Cl152   1.768   .     S
C107   Cl153   1.768   .     S
C107   C111    1.397   .     A
C108   C109    1.398   .     A
C108   Cl155   1.769   .     S
C109   Cl156   1.769   .     S
C110   Cl184   1.770   .     S
C110   C304    1.404   .     S
C111   Cl157   1.768   .     S
C112   Cl158   1.768   .     S
C113   Cl159   1.769   .     S
C114   Cl160   1.769   .     S
C115   Cl161   1.768   .     S
C116   Cl162   1.768   .     S
C117   Cl163   1.769   .     S
O185   Zn240   1.942   .     S
O185   Zn237   1.942   .     S
O185   Zn248   1.942   .     S
O185   Zn748   1.942   1_545 S
O186   Zn239   1.943   .     S
O186   C562    1.280   .     S
O187   Zn242   1.943   .     S
O187   C311    1.280   .     S
O188   Zn241   1.943   .     S
O189   Zn251   1.943   .     S
O190   Zn250   1.943   .     S
O191   Zn245   1.943   .     S
O192   Zn237   1.943   .     S
O193   Zn247   1.943   .     S
O194   Zn246   1.943   .     S
O195   Zn249   1.943   .     S
O196   Zn743   1.942   1_545 S
O196   Zn243   1.942   .     S
O196   Zn245   1.942   .     S
O196   Zn249   1.942   .     S
O197   Zn248   1.943   .     S
O198   Zn240   1.930   .     S
O199   Zn239   1.930   .     S
O200   Zn242   1.930   .     S
O201   Zn241   1.930   .     S
O202   Zn244   1.930   .     S
O203   Zn243   1.930   .     S
O204   Zn238   1.930   .     S
O205   Zn252   1.930   .     S
O206   Zn239   1.930   .     S
O207   Zn238   1.942   .     S
O207   Zn494   1.942   1_455 S
O207   Zn246   1.942   .     S
O207   Zn250   1.942   .     S
O208   Zn240   1.930   .     S
O209   Zn252   1.930   .     S
O210   Zn238   1.930   .     S
O211   Zn243   1.930   .     S
O212   Zn244   1.930   .     S
O213   Zn241   1.930   .     S
O214   Zn242   1.930   .     S
O215   Zn499   1.930   .     S
O216   Zn246   1.930   .     S
O217   Zn753   1.930   .     S
O218   Zn251   1.942   .     S
O218   Zn241   1.942   .     S
O218   Zn247   1.942   .     S
O218   Zn504   1.942   1_455 S
O219   Zn248   1.930   .     S
O220   Zn251   1.930   .     S
O221   Zn502   1.930   .     S
O222   Zn245   1.930   .     S
O223   Zn741   1.930   .     S
O224   Zn498   1.930   .     S
O225   Zn247   1.930   .     S
O226   Zn237   1.930   .     S
O227   Zn749   1.930   .     S
O228   Zn250   1.930   .     S
O229   Zn244   1.943   .     S
O229   C561    1.280   .     S
O230   Zn503   1.930   .     S
O231   Zn752   1.930   .     S
O232   Zn249   1.930   .     S
O233   Zn243   1.943   .     S
O234   Zn238   1.943   .     S
O235   Zn252   1.943   .     S
O235   C312    1.280   .     S
O236   Zn240   1.943   .     S
Zn237  O727    1.930   1_545 S
Zn239  O700    1.942   .     S
Zn242  O459    1.942   .     S
Zn244  O689    1.942   .     S
Zn245  O731    1.930   1_545 S
Zn246  O476    1.930   1_455 S
Zn247  O467    1.930   1_455 S
Zn248  O735    1.930   1_545 S
Zn249  O721    1.930   1_545 S
Zn250  O473    1.930   1_455 S
Zn251  O482    1.930   1_455 S
Zn252  O470    1.942   .     S
C253   C300    1.404   .     A
C253   C282    1.400   .     A
C253   Cl373   1.770   .     S
C254   C292    1.400   .     A
C254   Cl374   1.769   .     S
C254   C305    1.404   .     A
C255   C348    1.406   .     A
C255   C319    1.450   .     S
C255   C355    1.405   .     A
C256   C320    1.450   .     S
C256   C358    1.405   .     A
C256   C347    1.405   .     A
C257   C346    1.405   .     A
C257   C321    1.450   .     S
C257   C357    1.405   .     A
C258   C345    1.405   .     A
C258   C322    1.450   .     S
C258   C360    1.405   .     A
C259   C323    1.450   .     S
C259   C344    1.405   .     A
C259   C359    1.405   .     A
C260   C333    1.450   .     S
C260   C363    1.405   .     A
C260   C343    1.405   .     A
C261   C361    1.405   .     A
C261   C342    1.404   .     A
C261   C334    1.450   .     S
C262   C341    1.405   .     A
C262   C365    1.405   .     A
C262   C326    1.450   .     S
C263   C339    1.405   .     A
C263   C364    1.405   .     A
C263   C327    1.450   .     S
C264   C338    1.406   .     A
C264   C367    1.405   .     A
C264   C328    1.450   .     S
C265   C293    1.400   .     A
C265   Cl375   1.770   .     S
C265   C810    1.404   .     S
C266   C366    1.406   .     A
C266   C337    1.405   .     A
C266   C330    1.450   .     S
C267   C331    1.450   .     S
C267   C369    1.405   .     A
C267   C336    1.405   .     A
C268   C368    1.404   .     A
C268   C335    1.405   .     A
C268   C332    1.450   .     S
C269   C316    1.471   .     S
C269   C282    1.413   .     A
C269   C791    1.413   1_545 S
C270   C315    1.471   .     S
C270   C283    1.413   .     A
C270   C792    1.413   1_545 S
C271   C62     1.471   1_655 S
C271   C289    1.413   .     A
C271   C32     1.413   1_655 S
C272   C290    1.413   .     A
C272   C61     1.471   1_655 S
C272   C34     1.413   1_655 S
C273   C312    1.471   .     S
C273   C295    1.413   .     A
C274   C292    1.413   .     A
C274   C311    1.471   .     S
C275   C298    1.413   .     A
C275   C310    1.471   .     S
C275   C797    1.413   1_545 S
C276   C294    1.400   .     A
C276   Cl376   1.770   .     S
C276   C308    1.404   .     A
C277   C309    1.471   .     S
C277   C294    1.413   .     A
C277   C803    1.413   1_545 S
C278   C295    1.400   .     A
C278   C304    1.404   .     A
C278   Cl377   1.770   .     S
C279   C297    1.400   .     A
C279   Cl378   1.770   .     S
C279   C53     1.404   1_655 S
C280   C298    1.400   .     A
C280   Cl379   1.770   .     S
C280   C306    1.404   .     A
C281   C299    1.400   .     A
C281   Cl380   1.770   .     S
C281   C812    1.404   .     S
C282   Cl416   1.768   .     S
C283   C285    1.400   .     A
C283   Cl418   1.768   .     S
C284   Cl419   1.768   .     S
C284   C296    1.400   .     A
C285   C301    1.404   .     A
C285   Cl384   1.769   .     S
C286   C307    1.400   .     A
C286   Cl420   1.768   .     S
C287   C318    1.400   .     A
C287   Cl421   1.768   .     S
C287   C773    1.413   .     S
C288   C329    1.400   .     A
C288   Cl422   1.768   .     S
C288   C774    1.413   .     S
C289   C340    1.400   .     A
C289   Cl423   1.768   .     S
C290   C351    1.400   .     A
C290   Cl424   1.768   .     S
C291   C362    1.400   .     A
C291   Cl425   1.768   .     S
C291   C21     1.413   1_655 S
C292   Cl426   1.768   .     S
C293   Cl427   1.768   .     S
C293   C779    1.413   .     S
C294   Cl429   1.768   .     S
C295   Cl430   1.768   .     S
C296   Cl395   1.770   .     S
C297   Cl431   1.768   .     S
C297   C22     1.413   1_655 S
C298   Cl432   1.768   .     S
C299   Cl433   1.768   .     S
C299   C781    1.413   .     S
C300   C301    1.469   1_554 S
C300   C822    1.404   1_545 S
C301   C300    1.469   1_556 S
C301   C833    1.404   1_545 S
C302   C340    1.404   .     A
C302   C44     1.404   1_655 S
C302   C303    1.469   1_554 S
C303   C351    1.404   .     A
C303   C302    1.469   1_556 S
C303   C55     1.404   1_655 S
C304   C305    1.469   .     S
C306   C308    1.469   .     S
C306   C769    1.404   1_545 S
C307   Cl406   1.770   .     S
C308   C785    1.404   1_545 S
C309   O488    1.280   .     A
C309   O985    1.280   1_545 S
C310   O485    1.280   .     A
C310   O942    1.280   1_545 S
C311   O486    1.280   .     A
C312   O440    1.280   .     A
C313   O441    1.280   .     A
C313   O445    1.280   .     S
C314   O442    1.280   .     A
C314   O446    1.280   .     S
C315   O443    1.280   .     A
C315   O447    1.280   .     A
C316   O449    1.280   .     A
C316   O444    1.280   .     A
C317   O450    1.275   .     A
C317   O478    1.277   .     A
C317   C372    1.450   .     S
C318   Cl417   1.769   .     S
C318   C804    1.404   .     S
C319   O451    1.277   .     A
C319   O479    1.275   .     A
C320   O476    1.275   .     A
C320   O452    1.277   .     A
C321   O453    1.275   .     A
C321   O477    1.277   .     A
C322   O483    1.277   .     A
C322   O454    1.275   .     A
C323   O484    1.275   .     A
C323   O455    1.277   .     A
C324   O480    1.275   .     A
C324   C370    1.450   .     S
C324   O456    1.277   .     A
C325   C371    1.450   .     S
C325   O482    1.277   .     A
C325   O457    1.275   .     A
C326   O458    1.275   .     A
C326   O469    1.277   .     A
C327   O471    1.275   .     A
C327   O460    1.277   .     A
C328   O461    1.277   .     A
C328   O467    1.275   .     A
C329   Cl428   1.770   .     S
C329   C805    1.404   .     S
C330   O462    1.275   .     A
C330   O468    1.277   .     A
C331   O463    1.275   .     A
C331   O474    1.277   .     A
C332   O464    1.277   .     A
C332   O475    1.275   .     A
C333   O465    1.277   .     A
C333   O472    1.275   .     A
C334   O473    1.277   .     A
C334   O466    1.275   .     A
C335   Cl381   1.769   .     S
C335   C352    1.398   .     A
C336   C350    1.397   .     A
C336   Cl382   1.768   .     S
C337   Cl383   1.768   .     S
C337   C349    1.397   .     A
C338   Cl385   1.770   .     S
C338   C348    1.398   .     A
C339   C347    1.398   .     A
C339   Cl386   1.769   .     S
C340   Cl434   1.770   .     S
C341   Cl387   1.768   .     S
C341   C346    1.397   .     A
C342   C345    1.397   .     A
C342   Cl388   1.768   .     S
C343   Cl389   1.769   .     S
C343   C344    1.398   .     A
C344   Cl390   1.769   .     S
C345   Cl391   1.768   .     S
C346   Cl392   1.768   .     S
C347   Cl393   1.769   .     S
C348   Cl394   1.770   .     S
C349   Cl396   1.768   .     S
C349   C372    1.405   .     A
C350   C371    1.404   .     A
C350   Cl397   1.768   .     S
C351   Cl435   1.769   .     S
C352   C370    1.405   .     A
C352   Cl398   1.769   .     S
C353   C371    1.405   .     A
C353   Cl399   1.769   .     S
C353   C369    1.398   .     A
C354   Cl400   1.768   .     S
C354   C370    1.404   .     A
C354   C368    1.397   .     A
C355   C367    1.396   .     A
C355   Cl401   1.768   .     S
C356   Cl402   1.769   .     S
C356   C372    1.406   .     A
C356   C366    1.398   .     A
C357   C365    1.398   .     A
C357   Cl403   1.769   .     S
C358   C364    1.397   .     A
C358   Cl404   1.768   .     S
C359   Cl405   1.768   .     S
C359   C363    1.397   .     A
C360   C361    1.398   .     A
C360   Cl407   1.769   .     S
C361   Cl408   1.769   .     S
C362   Cl436   1.770   .     S
C362   C52     1.404   1_655 S
C363   Cl409   1.768   .     S
C364   Cl410   1.768   .     S
C365   Cl411   1.769   .     S
C366   Cl412   1.769   .     S
C367   Cl413   1.768   .     S
C368   Cl414   1.768   .     S
C369   Cl415   1.769   .     S
O437   Zn492   1.942   .     S
O437   Zn489   1.942   .     S
O437   Zn500   1.942   .     S
O437   Zn1000  1.942   1_545 S
O438   Zn491   1.943   .     S
O438   C814    1.280   .     S
O439   Zn494   1.943   .     S
O439   C59     1.280   1_655 S
O440   Zn493   1.943   .     S
O441   Zn503   1.943   .     S
O442   Zn502   1.943   .     S
O443   Zn497   1.943   .     S
O444   Zn489   1.943   .     S
O445   Zn499   1.943   .     S
O446   Zn498   1.943   .     S
O447   Zn501   1.943   .     S
O448   Zn995   1.942   1_545 S
O448   Zn495   1.942   .     S
O448   Zn497   1.942   .     S
O448   Zn501   1.942   .     S
O449   Zn500   1.943   .     S
O450   Zn492   1.930   .     S
O451   Zn491   1.930   .     S
O452   Zn494   1.930   .     S
O453   Zn493   1.930   .     S
O454   Zn496   1.930   .     S
O455   Zn495   1.930   .     S
O456   Zn490   1.930   .     S
O457   Zn504   1.930   .     S
O458   Zn491   1.930   .     S
O459   Zn490   1.942   .     S
O459   Zn498   1.942   .     S
O459   Zn502   1.942   .     S
O460   Zn492   1.930   .     S
O461   Zn504   1.930   .     S
O462   Zn490   1.930   .     S
O463   Zn495   1.930   .     S
O464   Zn496   1.930   .     S
O465   Zn493   1.930   .     S
O466   Zn494   1.930   .     S
O467   Zn247   1.930   1_655 S
O468   Zn498   1.930   .     S
O469   Zn1005  1.930   .     S
O470   Zn503   1.942   .     S
O470   Zn493   1.942   .     S
O470   Zn499   1.942   .     S
O471   Zn500   1.930   .     S
O472   Zn503   1.930   .     S
O473   Zn250   1.930   1_655 S
O474   Zn497   1.930   .     S
O475   Zn993   1.930   .     S
O476   Zn246   1.930   1_655 S
O477   Zn499   1.930   .     S
O478   Zn489   1.930   .     S
O479   Zn1001  1.930   .     S
O480   Zn502   1.930   .     S
O481   Zn496   1.943   .     S
O481   C813    1.280   .     S
O482   Zn251   1.930   1_655 S
O483   Zn1004  1.930   .     S
O484   Zn501   1.930   .     S
O485   Zn495   1.943   .     S
O486   Zn490   1.943   .     S
O487   Zn504   1.943   .     S
O487   C60     1.280   1_655 S
O488   Zn492   1.943   .     S
Zn489  O979    1.930   1_545 S
Zn491  O952    1.942   .     S
Zn494  O207    1.942   1_655 S
Zn496  O941    1.942   .     S
Zn497  O983    1.930   1_545 S
Zn500  O987    1.930   1_545 S
Zn501  O973    1.930   1_545 S
Zn504  O218    1.942   1_655 S
C505   C552    1.404   .     A
C505   C534    1.400   .     A
C505   Cl625   1.770   .     S
C506   C544    1.400   .     A
C506   Cl626   1.769   .     S
C506   C557    1.404   .     A
C507   C600    1.406   .     A
C507   C571    1.450   .     S
C507   C607    1.405   .     A
C508   C572    1.450   .     S
C508   C610    1.405   .     A
C508   C599    1.405   .     A
C509   C598    1.405   .     A
C509   C573    1.450   .     S
C509   C609    1.405   .     A
C510   C597    1.405   .     A
C510   C574    1.450   .     S
C510   C612    1.405   .     A
C511   C575    1.450   .     S
C511   C596    1.405   .     A
C511   C611    1.405   .     A
C512   C585    1.450   .     S
C512   C615    1.405   .     A
C512   C595    1.405   .     A
C513   C613    1.405   .     A
C513   C594    1.404   .     A
C513   C586    1.450   .     S
C514   C593    1.405   .     A
C514   C617    1.405   .     A
C514   C578    1.450   .     S
C515   C591    1.405   .     A
C515   C616    1.405   .     A
C515   C579    1.450   .     S
C516   C590    1.406   .     A
C516   C619    1.405   .     A
C516   C580    1.450   .     S
C517   C545    1.400   .     A
C517   Cl627   1.770   .     S
C517   C54     1.404   1_565 S
C518   C618    1.406   .     A
C518   C589    1.405   .     A
C518   C582    1.450   .     S
C519   C583    1.450   .     S
C519   C621    1.405   .     A
C519   C588    1.405   .     A
C520   C620    1.404   .     A
C520   C587    1.405   .     A
C520   C584    1.450   .     S
C521   C568    1.471   .     S
C521   C534    1.413   .     A
C522   C567    1.471   .     S
C522   C535    1.413   .     A
C523   C818    1.471   .     S
C523   C541    1.413   .     A
C523   C788    1.413   .     S
C524   C542    1.413   .     A
C524   C817    1.471   .     S
C524   C790    1.413   .     S
C525   C564    1.471   .     S
C525   C547    1.413   .     A
C525   C795    1.413   1_455 S
C526   C544    1.413   .     A
C526   C563    1.471   .     S
C526   C801    1.413   1_455 S
C527   C550    1.413   .     A
C527   C562    1.471   .     S
C528   C546    1.400   .     A
C528   Cl628   1.770   .     S
C528   C560    1.404   .     A
C529   C561    1.471   .     S
C529   C546    1.413   .     A
C530   C547    1.400   .     A
C530   C556    1.404   .     A
C530   Cl629   1.770   .     S
C531   C549    1.400   .     A
C531   Cl630   1.770   .     S
C531   C809    1.404   .     S
C532   C550    1.400   .     A
C532   Cl631   1.770   .     S
C532   C558    1.404   .     A
C533   C551    1.400   .     A
C533   Cl632   1.770   .     S
C533   C56     1.404   1_565 S
C534   Cl668   1.768   .     S
C535   C537    1.400   .     A
C535   Cl670   1.768   .     S
C536   Cl671   1.768   .     S
C536   C548    1.400   .     A
C536   C775    1.413   1_455 S
C537   C553    1.404   .     A
C537   Cl636   1.769   .     S
C538   C559    1.400   .     A
C538   Cl672   1.768   .     S
C538   C776    1.413   1_455 S
C539   C570    1.400   .     A
C539   Cl673   1.768   .     S
C539   C17     1.413   1_565 S
C540   C581    1.400   .     A
C540   Cl674   1.768   .     S
C540   C18     1.413   1_565 S
C541   C592    1.400   .     A
C541   Cl675   1.768   .     S
C542   C603    1.400   .     A
C542   Cl676   1.768   .     S
C543   C614    1.400   .     A
C543   Cl677   1.768   .     S
C543   C777    1.413   .     S
C544   Cl678   1.768   .     S
C545   Cl679   1.768   .     S
C545   C23     1.413   1_565 S
C546   Cl681   1.768   .     S
C547   Cl682   1.768   .     S
C548   Cl647   1.770   .     S
C548   C806    1.404   1_455 S
C549   Cl683   1.768   .     S
C549   C778    1.413   .     S
C550   Cl684   1.768   .     S
C551   Cl685   1.768   .     S
C551   C25     1.413   1_565 S
C552   C553    1.469   1_554 S
C553   C552    1.469   1_556 S
C554   C592    1.404   .     A
C554   C800    1.404   .     S
C554   C555    1.469   1_554 S
C555   C603    1.404   .     A
C555   C554    1.469   1_556 S
C555   C811    1.404   .     S
C556   C557    1.469   .     S
C556   C866    1.404   1_455 S
C557   C783    1.404   1_455 S
C558   C560    1.469   .     S
C559   Cl658   1.770   .     S
C559   C807    1.404   1_455 S
C561   O740    1.280   .     A
C562   O737    1.280   .     A
C563   O738    1.280   .     A
C563   O943    1.280   1_455 S
C564   O692    1.280   .     A
C564   O991    1.280   1_455 S
C565   O693    1.280   .     A
C565   C776    1.471   1_455 S
C565   O697    1.280   .     S
C566   O694    1.280   .     A
C566   C775    1.471   1_455 S
C566   O698    1.280   .     S
C567   O695    1.280   .     A
C567   O699    1.280   .     A
C568   O701    1.280   .     A
C568   O696    1.280   .     A
C569   O702    1.275   .     A
C569   O730    1.277   .     A
C569   C624    1.450   .     S
C570   Cl669   1.769   .     S
C570   C48     1.404   1_565 S
C571   O703    1.277   .     A
C571   O731    1.275   .     A
C572   O728    1.275   .     A
C572   O704    1.277   .     A
C573   O705    1.275   .     A
C573   O729    1.277   .     A
C574   O735    1.277   .     A
C574   O706    1.275   .     A
C575   O736    1.275   .     A
C575   O707    1.277   .     A
C576   O732    1.275   .     A
C576   C622    1.450   .     S
C576   O708    1.277   .     A
C577   C623    1.450   .     S
C577   O734    1.277   .     A
C577   O709    1.275   .     A
C578   O710    1.275   .     A
C578   O721    1.277   .     A
C579   O723    1.275   .     A
C579   O712    1.277   .     A
C580   O713    1.277   .     A
C580   O719    1.275   .     A
C581   Cl680   1.770   .     S
C581   C49     1.404   1_565 S
C582   O714    1.275   .     A
C582   O720    1.277   .     A
C583   O715    1.275   .     A
C583   O726    1.277   .     A
C584   O716    1.277   .     A
C584   O727    1.275   .     A
C585   O717    1.277   .     A
C585   O724    1.275   .     A
C586   O725    1.277   .     A
C586   O718    1.275   .     A
C587   Cl633   1.769   .     S
C587   C604    1.398   .     A
C588   C602    1.397   .     A
C588   Cl634   1.768   .     S
C589   Cl635   1.768   .     S
C589   C601    1.397   .     A
C590   Cl637   1.770   .     S
C590   C600    1.398   .     A
C591   C599    1.398   .     A
C591   Cl638   1.769   .     S
C592   Cl686   1.770   .     S
C593   Cl639   1.768   .     S
C593   C598    1.397   .     A
C594   C597    1.397   .     A
C594   Cl640   1.768   .     S
C595   Cl641   1.769   .     S
C595   C596    1.398   .     A
C596   Cl642   1.769   .     S
C597   Cl643   1.768   .     S
C598   Cl644   1.768   .     S
C599   Cl645   1.769   .     S
C600   Cl646   1.770   .     S
C601   Cl648   1.768   .     S
C601   C624    1.405   .     A
C602   C623    1.404   .     A
C602   Cl649   1.768   .     S
C603   Cl687   1.769   .     S
C604   C622    1.405   .     A
C604   Cl650   1.769   .     S
C605   C623    1.405   .     A
C605   Cl651   1.769   .     S
C605   C621    1.398   .     A
C606   Cl652   1.768   .     S
C606   C622    1.404   .     A
C606   C620    1.397   .     A
C607   C619    1.396   .     A
C607   Cl653   1.768   .     S
C608   Cl654   1.769   .     S
C608   C624    1.406   .     A
C608   C618    1.398   .     A
C609   C617    1.398   .     A
C609   Cl655   1.769   .     S
C610   C616    1.397   .     A
C610   Cl656   1.768   .     S
C611   Cl657   1.768   .     S
C611   C615    1.397   .     A
C612   C613    1.398   .     A
C612   Cl659   1.769   .     S
C613   Cl660   1.769   .     S
C614   Cl688   1.770   .     S
C614   C808    1.404   .     S
C615   Cl661   1.768   .     S
C616   Cl662   1.768   .     S
C617   Cl663   1.769   .     S
C618   Cl664   1.769   .     S
C619   Cl665   1.768   .     S
C620   Cl666   1.768   .     S
C621   Cl667   1.769   .     S
O689   Zn744   1.942   .     S
O689   Zn741   1.942   .     S
O689   Zn752   1.942   .     S
O690   Zn743   1.943   .     S
O690   C58     1.280   1_565 S
O691   Zn746   1.943   .     S
O691   C815    1.280   .     S
O692   Zn745   1.943   .     S
O693   Zn755   1.943   .     S
O694   Zn754   1.943   .     S
O695   Zn749   1.943   .     S
O696   Zn741   1.943   .     S
O697   Zn751   1.943   .     S
O698   Zn750   1.943   .     S
O699   Zn753   1.943   .     S
O700   Zn747   1.942   .     S
O700   Zn749   1.942   .     S
O700   Zn753   1.942   .     S
O701   Zn752   1.943   .     S
O702   Zn744   1.930   .     S
O703   Zn743   1.930   .     S
O704   Zn746   1.930   .     S
O705   Zn745   1.930   .     S
O706   Zn748   1.930   .     S
O707   Zn747   1.930   .     S
O708   Zn742   1.930   .     S
O709   Zn756   1.930   .     S
O710   Zn743   1.930   .     S
O711   Zn742   1.942   .     S
O711   Zn998   1.942   1_455 S
O711   Zn750   1.942   .     S
O711   Zn754   1.942   .     S
O712   Zn744   1.930   .     S
O713   Zn756   1.930   .     S
O714   Zn742   1.930   .     S
O715   Zn747   1.930   .     S
O716   Zn748   1.930   .     S
O717   Zn745   1.930   .     S
O718   Zn746   1.930   .     S
O719   Zn1003  1.930   .     S
O720   Zn750   1.930   .     S
O721   Zn249   1.930   1_565 S
O722   Zn755   1.942   .     S
O722   Zn745   1.942   .     S
O722   Zn751   1.942   .     S
O722   Zn1008  1.942   1_455 S
O723   Zn752   1.930   .     S
O724   Zn755   1.930   .     S
O725   Zn1006  1.930   .     S
O726   Zn749   1.930   .     S
O727   Zn237   1.930   1_565 S
O728   Zn1002  1.930   .     S
O729   Zn751   1.930   .     S
O730   Zn741   1.930   .     S
O731   Zn245   1.930   1_565 S
O732   Zn754   1.930   .     S
O733   Zn748   1.943   .     S
O733   C57     1.280   1_565 S
O734   Zn1007  1.930   .     S
O735   Zn248   1.930   1_565 S
O736   Zn753   1.930   .     S
O737   Zn747   1.943   .     S
O738   Zn742   1.943   .     S
O739   Zn756   1.943   .     S
O739   C816    1.280   .     S
O740   Zn744   1.943   .     S
Zn743  O196    1.942   1_565 S
Zn746  O963    1.942   .     S
Zn748  O185    1.942   1_565 S
Zn750  O980    1.930   1_455 S
Zn751  O971    1.930   1_455 S
Zn754  O977    1.930   1_455 S
Zn755  O986    1.930   1_455 S
Zn756  O974    1.942   .     S
C757   C804    1.404   .     A
C757   C786    1.400   .     A
C757   Cl877   1.770   .     S
C758   C796    1.400   .     A
C758   Cl878   1.769   .     S
C758   C809    1.404   .     A
C759   C852    1.406   .     A
C759   C823    1.450   .     S
C759   C859    1.405   .     A
C760   C824    1.450   .     S
C760   C862    1.405   .     A
C760   C851    1.405   .     A
C761   C850    1.405   .     A
C761   C825    1.450   .     S
C761   C861    1.405   .     A
C762   C849    1.405   .     A
C762   C826    1.450   .     S
C762   C864    1.405   .     A
C763   C827    1.450   .     S
C763   C848    1.405   .     A
C763   C863    1.405   .     A
C764   C837    1.450   .     S
C764   C867    1.405   .     A
C764   C847    1.405   .     A
C765   C865    1.405   .     A
C765   C846    1.404   .     A
C765   C838    1.450   .     S
C766   C845    1.405   .     A
C766   C869    1.405   .     A
C766   C830    1.450   .     S
C767   C843    1.405   .     A
C767   C868    1.405   .     A
C767   C831    1.450   .     S
C768   C842    1.406   .     A
C768   C871    1.405   .     A
C768   C832    1.450   .     S
C769   C797    1.400   .     A
C769   Cl879   1.770   .     S
C769   C306    1.404   1_565 S
C770   C870    1.406   .     A
C770   C841    1.405   .     A
C770   C834    1.450   .     S
C771   C835    1.450   .     S
C771   C873    1.405   .     A
C771   C840    1.405   .     A
C772   C872    1.404   .     A
C772   C839    1.405   .     A
C772   C836    1.450   .     S
C773   C820    1.471   .     S
C773   C786    1.413   .     A
C774   C819    1.471   .     S
C774   C787    1.413   .     A
C775   C566    1.471   1_655 S
C775   C793    1.413   .     A
C775   C536    1.413   1_655 S
C776   C794    1.413   .     A
C776   C565    1.471   1_655 S
C776   C538    1.413   1_655 S
C777   C816    1.471   .     S
C777   C799    1.413   .     A
C778   C796    1.413   .     A
C778   C815    1.471   .     S
C779   C802    1.413   .     A
C779   C814    1.471   .     S
C780   C798    1.400   .     A
C780   Cl880   1.770   .     S
C780   C812    1.404   .     A
C781   C813    1.471   .     S
C781   C798    1.413   .     A
C782   C799    1.400   .     A
C782   C808    1.404   .     A
C782   Cl881   1.770   .     S
C783   C801    1.400   .     A
C783   Cl882   1.770   .     S
C783   C557    1.404   1_655 S
C784   C802    1.400   .     A
C784   Cl883   1.770   .     S
C784   C810    1.404   .     A
C785   C803    1.400   .     A
C785   Cl884   1.770   .     S
C785   C308    1.404   1_565 S
C786   Cl920   1.768   .     S
C787   C789    1.400   .     A
C787   Cl922   1.768   .     S
C788   Cl923   1.768   .     S
C788   C800    1.400   .     A
C789   C805    1.404   .     A
C789   Cl888   1.769   .     S
C790   C811    1.400   .     A
C790   Cl924   1.768   .     S
C791   C822    1.400   .     A
C791   Cl925   1.768   .     S
C791   C269    1.413   1_565 S
C792   C833    1.400   .     A
C792   Cl926   1.768   .     S
C792   C270    1.413   1_565 S
C793   C844    1.400   .     A
C793   Cl927   1.768   .     S
C794   C855    1.400   .     A
C794   Cl928   1.768   .     S
C795   C866    1.400   .     A
C795   Cl929   1.768   .     S
C795   C525    1.413   1_655 S
C796   Cl930   1.768   .     S
C797   Cl931   1.768   .     S
C797   C275    1.413   1_565 S
C798   Cl933   1.768   .     S
C799   Cl934   1.768   .     S
C800   Cl899   1.770   .     S
C801   Cl935   1.768   .     S
C801   C526    1.413   1_655 S
C802   Cl936   1.768   .     S
C803   Cl937   1.768   .     S
C803   C277    1.413   1_565 S
C804   C805    1.469   1_554 S
C805   C804    1.469   1_556 S
C806   C844    1.404   .     A
C806   C548    1.404   1_655 S
C806   C807    1.469   1_554 S
C807   C855    1.404   .     A
C807   C806    1.469   1_556 S
C807   C559    1.404   1_655 S
C808   C809    1.469   .     S
C810   C812    1.469   .     S
C811   Cl910   1.770   .     S
C813   O992    1.280   .     A
C814   O989    1.280   .     A
C815   O990    1.280   .     A
C816   O944    1.280   .     A
C817   O945    1.280   .     A
C817   O949    1.280   .     S
C818   O946    1.280   .     A
C818   O950    1.280   .     S
C819   O947    1.280   .     A
C819   O951    1.280   .     A
C820   O953    1.280   .     A
C820   O948    1.280   .     A
C821   O954    1.275   .     A
C821   O982    1.277   .     A
C821   C876    1.450   .     S
C822   Cl921   1.769   .     S
C822   C300    1.404   1_565 S
C823   O955    1.277   .     A
C823   O983    1.275   .     A
C824   O980    1.275   .     A
C824   O956    1.277   .     A
C825   O957    1.275   .     A
C825   O981    1.277   .     A
C826   O987    1.277   .     A
C826   O958    1.275   .     A
C827   O988    1.275   .     A
C827   O959    1.277   .     A
C828   O984    1.275   .     A
C828   C874    1.450   .     S
C828   O960    1.277   .     A
C829   C875    1.450   .     S
C829   O986    1.277   .     A
C829   O961    1.275   .     A
C830   O962    1.275   .     A
C830   O973    1.277   .     A
C831   O975    1.275   .     A
C831   O964    1.277   .     A
C832   O965    1.277   .     A
C832   O971    1.275   .     A
C833   Cl932   1.770   .     S
C833   C301    1.404   1_565 S
C834   O966    1.275   .     A
C834   O972    1.277   .     A
C835   O967    1.275   .     A
C835   O978    1.277   .     A
C836   O968    1.277   .     A
C836   O979    1.275   .     A
C837   O969    1.277   .     A
C837   O976    1.275   .     A
C838   O977    1.277   .     A
C838   O970    1.275   .     A
C839   Cl885   1.769   .     S
C839   C856    1.398   .     A
C840   C854    1.397   .     A
C840   Cl886   1.768   .     S
C841   Cl887   1.768   .     S
C841   C853    1.397   .     A
C842   Cl889   1.770   .     S
C842   C852    1.398   .     A
C843   C851    1.398   .     A
C843   Cl890   1.769   .     S
C844   Cl938   1.770   .     S
C845   Cl891   1.768   .     S
C845   C850    1.397   .     A
C846   C849    1.397   .     A
C846   Cl892   1.768   .     S
C847   Cl893   1.769   .     S
C847   C848    1.398   .     A
C848   Cl894   1.769   .     S
C849   Cl895   1.768   .     S
C850   Cl896   1.768   .     S
C851   Cl897   1.769   .     S
C852   Cl898   1.770   .     S
C853   Cl900   1.768   .     S
C853   C876    1.405   .     A
C854   C875    1.404   .     A
C854   Cl901   1.768   .     S
C855   Cl939   1.769   .     S
C856   C874    1.405   .     A
C856   Cl902   1.769   .     S
C857   C875    1.405   .     A
C857   Cl903   1.769   .     S
C857   C873    1.398   .     A
C858   Cl904   1.768   .     S
C858   C874    1.404   .     A
C858   C872    1.397   .     A
C859   C871    1.396   .     A
C859   Cl905   1.768   .     S
C860   Cl906   1.769   .     S
C860   C876    1.406   .     A
C860   C870    1.398   .     A
C861   C869    1.398   .     A
C861   Cl907   1.769   .     S
C862   C868    1.397   .     A
C862   Cl908   1.768   .     S
C863   Cl909   1.768   .     S
C863   C867    1.397   .     A
C864   C865    1.398   .     A
C864   Cl911   1.769   .     S
C865   Cl912   1.769   .     S
C866   Cl940   1.770   .     S
C866   C556    1.404   1_655 S
C867   Cl913   1.768   .     S
C868   Cl914   1.768   .     S
C869   Cl915   1.769   .     S
C870   Cl916   1.769   .     S
C871   Cl917   1.768   .     S
C872   Cl918   1.768   .     S
C873   Cl919   1.769   .     S
O941   Zn996   1.942   .     S
O941   Zn993   1.942   .     S
O941   Zn1004  1.942   .     S
O942   Zn995   1.943   .     S
O942   C310    1.280   1_565 S
O943   Zn998   1.943   .     S
O943   C563    1.280   1_655 S
O944   Zn997   1.943   .     S
O945   Zn1007  1.943   .     S
O946   Zn1006  1.943   .     S
O947   Zn1001  1.943   .     S
O948   Zn993   1.943   .     S
O949   Zn1003  1.943   .     S
O950   Zn1002  1.943   .     S
O951   Zn1005  1.943   .     S
O952   Zn999   1.942   .     S
O952   Zn1001  1.942   .     S
O952   Zn1005  1.942   .     S
O953   Zn1004  1.943   .     S
O954   Zn996   1.930   .     S
O955   Zn995   1.930   .     S
O956   Zn998   1.930   .     S
O957   Zn997   1.930   .     S
O958   Zn1000  1.930   .     S
O959   Zn999   1.930   .     S
O960   Zn994   1.930   .     S
O961   Zn1008  1.930   .     S
O962   Zn995   1.930   .     S
O963   Zn994   1.942   .     S
O963   Zn1002  1.942   .     S
O963   Zn1006  1.942   .     S
O964   Zn996   1.930   .     S
O965   Zn1008  1.930   .     S
O966   Zn994   1.930   .     S
O967   Zn999   1.930   .     S
O968   Zn1000  1.930   .     S
O969   Zn997   1.930   .     S
O970   Zn998   1.930   .     S
O971   Zn751   1.930   1_655 S
O972   Zn1002  1.930   .     S
O973   Zn501   1.930   1_565 S
O974   Zn1007  1.942   .     S
O974   Zn997   1.942   .     S
O974   Zn1003  1.942   .     S
O975   Zn1004  1.930   .     S
O976   Zn1007  1.930   .     S
O977   Zn754   1.930   1_655 S
O978   Zn1001  1.930   .     S
O979   Zn489   1.930   1_565 S
O980   Zn750   1.930   1_655 S
O981   Zn1003  1.930   .     S
O982   Zn993   1.930   .     S
O983   Zn497   1.930   1_565 S
O984   Zn1006  1.930   .     S
O985   Zn1000  1.943   .     S
O985   C309    1.280   1_565 S
O986   Zn755   1.930   1_655 S
O987   Zn500   1.930   1_565 S
O988   Zn1005  1.930   .     S
O989   Zn999   1.943   .     S
O990   Zn994   1.943   .     S
O991   Zn1008  1.943   .     S
O991   C564    1.280   1_655 S
O992   Zn996   1.943   .     S
Zn995  O448    1.942   1_565 S
Zn998  O711    1.942   1_655 S
Zn1000 O437    1.942   1_565 S
Zn1008 O722    1.942   1_655 S
