data_str_m2_o1_o2_pcu_sym.111
_audit_creation_date              2020-01-03
_audit_creation_method            'Materials Studio'
_symmetry_space_group_name_H-M    'P1'
_symmetry_Int_Tables_number       1
_symmetry_cell_setting            triclinic
loop_
_symmetry_equiv_pos_as_xyz
  x,y,z
_cell_length_a                    32.8018
_cell_length_b                    28.5374
_cell_length_c                    30.2693
_cell_angle_alpha                 90.0014
_cell_angle_beta                  90.2597
_cell_angle_gamma                 89.9995
loop_
_atom_site_label
_atom_site_type_symbol
_atom_site_fract_x
_atom_site_fract_y
_atom_site_fract_z
_atom_site_U_iso_or_equiv
_atom_site_adp_type
_atom_site_occupancy
C1     C     0.08731   0.16673   0.24987   0.00000  Uiso   1.00
C2     C     0.24602   0.16673   0.25012   0.00000  Uiso   1.00
C3     C     0.16663   0.16667   0.16496   0.00000  Uiso   1.00
C4     C     0.16670   0.16667   0.33504   0.00000  Uiso   1.00
C5     C     0.15071   0.02475   0.21522   0.00000  Uiso   1.00
C6     C     0.18294   0.30854   0.28462   0.00000  Uiso   1.00
C7     C     0.18263   0.02476   0.28478   0.00000  Uiso   1.00
C8     C     0.15039   0.30854   0.21538   0.00000  Uiso   1.00
C9     C     0.02071   0.12465   0.24532   0.00000  Uiso   1.00
C10    C     0.31245   0.20959   0.24566   0.00000  Uiso   1.00
C11    C     0.31262   0.12465   0.25466   0.00000  Uiso   1.00
C12    C     0.02088   0.20960   0.25431   0.00000  Uiso   1.00
C13    C     0.17907   0.20674   0.04769   0.00000  Uiso   1.00
C14    C     0.17917   0.12667   0.45246   0.00000  Uiso   1.00
C15    C     0.15426   0.20673   0.45231   0.00000  Uiso   1.00
C16    C     0.15417   0.12667   0.04754   0.00000  Uiso   1.00
C17    C     0.17878   0.20683   0.09360   0.00000  Uiso   1.00
C18    C     0.17892   0.12656   0.40654   0.00000  Uiso   1.00
C19    C     0.15455   0.20683   0.40640   0.00000  Uiso   1.00
C20    C     0.15442   0.12656   0.09346   0.00000  Uiso   1.00
C21    C     0.16661   0.16668   0.11673   0.00000  Uiso   1.00
C22    C     0.16673   0.16668   0.38327   0.00000  Uiso   1.00
C23    C     0.16664   0.16670   0.02428   0.00000  Uiso   1.00
C24    C     0.16669   0.16670   0.47572   0.00000  Uiso   1.00
C25    C     0.29066   0.16701   0.25020   0.00000  Uiso   1.00
C26    C     0.04267   0.16701   0.24978   0.00000  Uiso   1.00
Cu27   Cu    0.16667   0.21355   0.25000   0.00000  Uiso   1.00
Cu28   Cu    0.16667   0.11978   0.25000   0.00000  Uiso   1.00
H29    H     0.13781   0.04326   0.18733   0.00000  Uiso   1.00
H30    H     0.19630   0.28999   0.31226   0.00000  Uiso   1.00
H31    H     0.19552   0.04327   0.31267   0.00000  Uiso   1.00
H32    H     0.13703   0.28999   0.18774   0.00000  Uiso   1.00
H33    H     0.18950   0.23777   0.03053   0.00000  Uiso   1.00
H34    H     0.18958   0.09565   0.46974   0.00000  Uiso   1.00
H35    H     0.14383   0.23777   0.46947   0.00000  Uiso   1.00
H36    H     0.14376   0.09564   0.03026   0.00000  Uiso   1.00
H37    H     0.18863   0.23806   0.11099   0.00000  Uiso   1.00
H38    H     0.18879   0.09533   0.38928   0.00000  Uiso   1.00
H39    H     0.14470   0.23806   0.38902   0.00000  Uiso   1.00
H40    H     0.14455   0.09533   0.11072   0.00000  Uiso   1.00
N41    N     0.16667   0.28402   0.25000   0.00000  Uiso   1.00
N42    N     0.16667   0.04931   0.25000   0.00000  Uiso   1.00
O43    O     0.10655   0.20625   0.25000   0.00000  Uiso   1.00
O44    O     0.22679   0.12709   0.25001   0.00000  Uiso   1.00
O45    O     0.22679   0.20625   0.25001   0.00000  Uiso   1.00
O46    O     0.10655   0.12709   0.25000   0.00000  Uiso   1.00
O47    O     0.16666   0.20626   0.18573   0.00000  Uiso   1.00
O48    O     0.16667   0.12707   0.31427   0.00000  Uiso   1.00
O49    O     0.16667   0.20626   0.31427   0.00000  Uiso   1.00
O50    O     0.16666   0.12707   0.18573   0.00000  Uiso   1.00
I51    I     0.04496   0.06164   0.21702   0.00000  Uiso   1.00
I52    I     0.28685   0.27328   0.21935   0.00000  Uiso   1.00
I53    I     0.28838   0.06162   0.28293   0.00000  Uiso   1.00
I54    I     0.04647   0.27329   0.28061   0.00000  Uiso   1.00
C55    C     0.42064   0.16673   0.24987   0.00000  Uiso   1.00
C56    C     0.57936   0.16673   0.25012   0.00000  Uiso   1.00
C57    C     0.49996   0.16667   0.16496   0.00000  Uiso   1.00
C58    C     0.50004   0.16667   0.33504   0.00000  Uiso   1.00
C59    C     0.48404   0.02475   0.21522   0.00000  Uiso   1.00
C60    C     0.51628   0.30854   0.28462   0.00000  Uiso   1.00
C61    C     0.51596   0.02476   0.28478   0.00000  Uiso   1.00
C62    C     0.48372   0.30854   0.21538   0.00000  Uiso   1.00
C63    C     0.35405   0.12465   0.24532   0.00000  Uiso   1.00
C64    C     0.64578   0.20959   0.24566   0.00000  Uiso   1.00
C65    C     0.64595   0.12465   0.25466   0.00000  Uiso   1.00
C66    C     0.35421   0.20960   0.25431   0.00000  Uiso   1.00
C67    C     0.51241   0.20674   0.04769   0.00000  Uiso   1.00
C68    C     0.51250   0.12667   0.45246   0.00000  Uiso   1.00
C69    C     0.48759   0.20673   0.45231   0.00000  Uiso   1.00
C70    C     0.48751   0.12667   0.04754   0.00000  Uiso   1.00
C71    C     0.51212   0.20683   0.09360   0.00000  Uiso   1.00
C72    C     0.51225   0.12656   0.40654   0.00000  Uiso   1.00
C73    C     0.48788   0.20683   0.40640   0.00000  Uiso   1.00
C74    C     0.48775   0.12656   0.09346   0.00000  Uiso   1.00
C75    C     0.49994   0.16668   0.11673   0.00000  Uiso   1.00
C76    C     0.50006   0.16668   0.38327   0.00000  Uiso   1.00
C77    C     0.49998   0.16670   0.02428   0.00000  Uiso   1.00
C78    C     0.50002   0.16670   0.47572   0.00000  Uiso   1.00
C79    C     0.62399   0.16701   0.25020   0.00000  Uiso   1.00
C80    C     0.37601   0.16701   0.24978   0.00000  Uiso   1.00
Cu81   Cu    0.50000   0.21355   0.25000   0.00000  Uiso   1.00
Cu82   Cu    0.50000   0.11978   0.25000   0.00000  Uiso   1.00
H83    H     0.47115   0.04326   0.18733   0.00000  Uiso   1.00
H84    H     0.52964   0.28999   0.31226   0.00000  Uiso   1.00
H85    H     0.52885   0.04327   0.31267   0.00000  Uiso   1.00
H86    H     0.47036   0.28999   0.18774   0.00000  Uiso   1.00
H87    H     0.52283   0.23777   0.03053   0.00000  Uiso   1.00
H88    H     0.52291   0.09565   0.46974   0.00000  Uiso   1.00
H89    H     0.47716   0.23777   0.46947   0.00000  Uiso   1.00
H90    H     0.47709   0.09564   0.03026   0.00000  Uiso   1.00
H91    H     0.52196   0.23806   0.11099   0.00000  Uiso   1.00
H92    H     0.52213   0.09533   0.38928   0.00000  Uiso   1.00
H93    H     0.47803   0.23806   0.38902   0.00000  Uiso   1.00
H94    H     0.47788   0.09533   0.11072   0.00000  Uiso   1.00
N95    N     0.50000   0.28402   0.25000   0.00000  Uiso   1.00
N96    N     0.50000   0.04931   0.25000   0.00000  Uiso   1.00
O97    O     0.43988   0.20625   0.25000   0.00000  Uiso   1.00
O98    O     0.56012   0.12709   0.25001   0.00000  Uiso   1.00
O99    O     0.56012   0.20625   0.25001   0.00000  Uiso   1.00
O100   O     0.43988   0.12709   0.25000   0.00000  Uiso   1.00
O101   O     0.50000   0.20626   0.18573   0.00000  Uiso   1.00
O102   O     0.50000   0.12707   0.31427   0.00000  Uiso   1.00
O103   O     0.50000   0.20626   0.31427   0.00000  Uiso   1.00
O104   O     0.50000   0.12707   0.18573   0.00000  Uiso   1.00
I105   I     0.37829   0.06164   0.21702   0.00000  Uiso   1.00
I106   I     0.62019   0.27328   0.21935   0.00000  Uiso   1.00
I107   I     0.62171   0.06162   0.28293   0.00000  Uiso   1.00
I108   I     0.37980   0.27329   0.28061   0.00000  Uiso   1.00
C109   C     0.75397   0.16673   0.24987   0.00000  Uiso   1.00
C110   C     0.91269   0.16673   0.25012   0.00000  Uiso   1.00
C111   C     0.83330   0.16667   0.16496   0.00000  Uiso   1.00
C112   C     0.83337   0.16667   0.33504   0.00000  Uiso   1.00
C113   C     0.81737   0.02475   0.21522   0.00000  Uiso   1.00
C114   C     0.84961   0.30854   0.28462   0.00000  Uiso   1.00
C115   C     0.84929   0.02476   0.28478   0.00000  Uiso   1.00
C116   C     0.81706   0.30854   0.21538   0.00000  Uiso   1.00
C117   C     0.68738   0.12465   0.24532   0.00000  Uiso   1.00
C118   C     0.97912   0.20959   0.24566   0.00000  Uiso   1.00
C119   C     0.97929   0.12465   0.25466   0.00000  Uiso   1.00
C120   C     0.68755   0.20960   0.25431   0.00000  Uiso   1.00
C121   C     0.84574   0.20674   0.04769   0.00000  Uiso   1.00
C122   C     0.84583   0.12667   0.45246   0.00000  Uiso   1.00
C123   C     0.82092   0.20673   0.45231   0.00000  Uiso   1.00
C124   C     0.82084   0.12667   0.04754   0.00000  Uiso   1.00
C125   C     0.84545   0.20683   0.09360   0.00000  Uiso   1.00
C126   C     0.84559   0.12656   0.40654   0.00000  Uiso   1.00
C127   C     0.82121   0.20683   0.40640   0.00000  Uiso   1.00
C128   C     0.82109   0.12656   0.09346   0.00000  Uiso   1.00
C129   C     0.83327   0.16668   0.11673   0.00000  Uiso   1.00
C130   C     0.83339   0.16668   0.38327   0.00000  Uiso   1.00
C131   C     0.83331   0.16670   0.02428   0.00000  Uiso   1.00
C132   C     0.83336   0.16670   0.47572   0.00000  Uiso   1.00
C133   C     0.95733   0.16701   0.25020   0.00000  Uiso   1.00
C134   C     0.70934   0.16701   0.24978   0.00000  Uiso   1.00
Cu135  Cu    0.83333   0.21355   0.25000   0.00000  Uiso   1.00
Cu136  Cu    0.83333   0.11978   0.25000   0.00000  Uiso   1.00
H137   H     0.80448   0.04326   0.18733   0.00000  Uiso   1.00
H138   H     0.86297   0.28999   0.31226   0.00000  Uiso   1.00
H139   H     0.86219   0.04327   0.31267   0.00000  Uiso   1.00
H140   H     0.80370   0.28999   0.18774   0.00000  Uiso   1.00
H141   H     0.85617   0.23777   0.03053   0.00000  Uiso   1.00
H142   H     0.85625   0.09565   0.46974   0.00000  Uiso   1.00
H143   H     0.81049   0.23777   0.46947   0.00000  Uiso   1.00
H144   H     0.81043   0.09564   0.03026   0.00000  Uiso   1.00
H145   H     0.85529   0.23806   0.11099   0.00000  Uiso   1.00
H146   H     0.85546   0.09533   0.38928   0.00000  Uiso   1.00
H147   H     0.81137   0.23806   0.38902   0.00000  Uiso   1.00
H148   H     0.81121   0.09533   0.11072   0.00000  Uiso   1.00
N149   N     0.83333   0.28402   0.25000   0.00000  Uiso   1.00
N150   N     0.83333   0.04931   0.25000   0.00000  Uiso   1.00
O151   O     0.77321   0.20625   0.25000   0.00000  Uiso   1.00
O152   O     0.89345   0.12709   0.25001   0.00000  Uiso   1.00
O153   O     0.89345   0.20625   0.25001   0.00000  Uiso   1.00
O154   O     0.77321   0.12709   0.25000   0.00000  Uiso   1.00
O155   O     0.83333   0.20626   0.18573   0.00000  Uiso   1.00
O156   O     0.83334   0.12707   0.31427   0.00000  Uiso   1.00
O157   O     0.83334   0.20626   0.31427   0.00000  Uiso   1.00
O158   O     0.83333   0.12707   0.18573   0.00000  Uiso   1.00
I159   I     0.71162   0.06164   0.21702   0.00000  Uiso   1.00
I160   I     0.95352   0.27328   0.21935   0.00000  Uiso   1.00
I161   I     0.95505   0.06162   0.28293   0.00000  Uiso   1.00
I162   I     0.71314   0.27329   0.28061   0.00000  Uiso   1.00
C163   C     0.08731   0.50006   0.24987   0.00000  Uiso   1.00
C164   C     0.24602   0.50006   0.25012   0.00000  Uiso   1.00
C165   C     0.16663   0.50000   0.16496   0.00000  Uiso   1.00
C166   C     0.16670   0.50000   0.33504   0.00000  Uiso   1.00
C167   C     0.15071   0.35809   0.21522   0.00000  Uiso   1.00
C168   C     0.18294   0.64187   0.28462   0.00000  Uiso   1.00
C169   C     0.18263   0.35809   0.28478   0.00000  Uiso   1.00
C170   C     0.15039   0.64187   0.21538   0.00000  Uiso   1.00
C171   C     0.02071   0.45799   0.24532   0.00000  Uiso   1.00
C172   C     0.31245   0.54293   0.24566   0.00000  Uiso   1.00
C173   C     0.31262   0.45798   0.25466   0.00000  Uiso   1.00
C174   C     0.02088   0.54293   0.25431   0.00000  Uiso   1.00
C175   C     0.17907   0.54007   0.04769   0.00000  Uiso   1.00
C176   C     0.17917   0.46001   0.45246   0.00000  Uiso   1.00
C177   C     0.15426   0.54007   0.45231   0.00000  Uiso   1.00
C178   C     0.15417   0.46000   0.04754   0.00000  Uiso   1.00
C179   C     0.17878   0.54017   0.09360   0.00000  Uiso   1.00
C180   C     0.17892   0.45989   0.40654   0.00000  Uiso   1.00
C181   C     0.15455   0.54017   0.40640   0.00000  Uiso   1.00
C182   C     0.15442   0.45989   0.09346   0.00000  Uiso   1.00
C183   C     0.16661   0.50002   0.11673   0.00000  Uiso   1.00
C184   C     0.16673   0.50002   0.38327   0.00000  Uiso   1.00
C185   C     0.16664   0.50004   0.02428   0.00000  Uiso   1.00
C186   C     0.16669   0.50004   0.47572   0.00000  Uiso   1.00
C187   C     0.29066   0.50034   0.25020   0.00000  Uiso   1.00
C188   C     0.04267   0.50035   0.24978   0.00000  Uiso   1.00
Cu189  Cu    0.16667   0.54689   0.25000   0.00000  Uiso   1.00
Cu190  Cu    0.16667   0.45311   0.25000   0.00000  Uiso   1.00
H191   H     0.13781   0.37660   0.18733   0.00000  Uiso   1.00
H192   H     0.19630   0.62333   0.31226   0.00000  Uiso   1.00
H193   H     0.19552   0.37660   0.31267   0.00000  Uiso   1.00
H194   H     0.13703   0.62332   0.18774   0.00000  Uiso   1.00
H195   H     0.18950   0.57110   0.03053   0.00000  Uiso   1.00
H196   H     0.18958   0.42898   0.46974   0.00000  Uiso   1.00
H197   H     0.14383   0.57110   0.46947   0.00000  Uiso   1.00
H198   H     0.14376   0.42898   0.03026   0.00000  Uiso   1.00
H199   H     0.18863   0.57139   0.11099   0.00000  Uiso   1.00
H200   H     0.18879   0.42867   0.38928   0.00000  Uiso   1.00
H201   H     0.14470   0.57139   0.38902   0.00000  Uiso   1.00
H202   H     0.14455   0.42866   0.11072   0.00000  Uiso   1.00
N203   N     0.16667   0.61736   0.25000   0.00000  Uiso   1.00
N204   N     0.16667   0.38264   0.25000   0.00000  Uiso   1.00
O205   O     0.10655   0.53958   0.25000   0.00000  Uiso   1.00
O206   O     0.22679   0.46042   0.25001   0.00000  Uiso   1.00
O207   O     0.22679   0.53958   0.25001   0.00000  Uiso   1.00
O208   O     0.10655   0.46042   0.25000   0.00000  Uiso   1.00
O209   O     0.16666   0.53959   0.18573   0.00000  Uiso   1.00
O210   O     0.16667   0.46041   0.31427   0.00000  Uiso   1.00
O211   O     0.16667   0.53959   0.31427   0.00000  Uiso   1.00
O212   O     0.16666   0.46041   0.18573   0.00000  Uiso   1.00
I213   I     0.04496   0.39497   0.21702   0.00000  Uiso   1.00
I214   I     0.28685   0.60661   0.21935   0.00000  Uiso   1.00
I215   I     0.28838   0.39495   0.28293   0.00000  Uiso   1.00
I216   I     0.04647   0.60663   0.28061   0.00000  Uiso   1.00
C217   C     0.42064   0.50006   0.24987   0.00000  Uiso   1.00
C218   C     0.57936   0.50006   0.25012   0.00000  Uiso   1.00
C219   C     0.49996   0.50000   0.16496   0.00000  Uiso   1.00
C220   C     0.50004   0.50000   0.33504   0.00000  Uiso   1.00
C221   C     0.48404   0.35809   0.21522   0.00000  Uiso   1.00
C222   C     0.51628   0.64187   0.28462   0.00000  Uiso   1.00
C223   C     0.51596   0.35809   0.28478   0.00000  Uiso   1.00
C224   C     0.48372   0.64187   0.21538   0.00000  Uiso   1.00
C225   C     0.35405   0.45799   0.24532   0.00000  Uiso   1.00
C226   C     0.64578   0.54293   0.24566   0.00000  Uiso   1.00
C227   C     0.64595   0.45798   0.25466   0.00000  Uiso   1.00
C228   C     0.35421   0.54293   0.25431   0.00000  Uiso   1.00
C229   C     0.51241   0.54007   0.04769   0.00000  Uiso   1.00
C230   C     0.51250   0.46001   0.45246   0.00000  Uiso   1.00
C231   C     0.48759   0.54007   0.45231   0.00000  Uiso   1.00
C232   C     0.48751   0.46000   0.04754   0.00000  Uiso   1.00
C233   C     0.51212   0.54017   0.09360   0.00000  Uiso   1.00
C234   C     0.51225   0.45989   0.40654   0.00000  Uiso   1.00
C235   C     0.48788   0.54017   0.40640   0.00000  Uiso   1.00
C236   C     0.48775   0.45989   0.09346   0.00000  Uiso   1.00
C237   C     0.49994   0.50002   0.11673   0.00000  Uiso   1.00
C238   C     0.50006   0.50002   0.38327   0.00000  Uiso   1.00
C239   C     0.49998   0.50004   0.02428   0.00000  Uiso   1.00
C240   C     0.50002   0.50004   0.47572   0.00000  Uiso   1.00
C241   C     0.62399   0.50034   0.25020   0.00000  Uiso   1.00
C242   C     0.37601   0.50035   0.24978   0.00000  Uiso   1.00
Cu243  Cu    0.50000   0.54689   0.25000   0.00000  Uiso   1.00
Cu244  Cu    0.50000   0.45311   0.25000   0.00000  Uiso   1.00
H245   H     0.47115   0.37660   0.18733   0.00000  Uiso   1.00
H246   H     0.52964   0.62333   0.31226   0.00000  Uiso   1.00
H247   H     0.52885   0.37660   0.31267   0.00000  Uiso   1.00
H248   H     0.47036   0.62332   0.18774   0.00000  Uiso   1.00
H249   H     0.52283   0.57110   0.03053   0.00000  Uiso   1.00
H250   H     0.52291   0.42898   0.46974   0.00000  Uiso   1.00
H251   H     0.47716   0.57110   0.46947   0.00000  Uiso   1.00
H252   H     0.47709   0.42898   0.03026   0.00000  Uiso   1.00
H253   H     0.52196   0.57139   0.11099   0.00000  Uiso   1.00
H254   H     0.52213   0.42867   0.38928   0.00000  Uiso   1.00
H255   H     0.47803   0.57139   0.38902   0.00000  Uiso   1.00
H256   H     0.47788   0.42866   0.11072   0.00000  Uiso   1.00
N257   N     0.50000   0.61736   0.25000   0.00000  Uiso   1.00
N258   N     0.50000   0.38264   0.25000   0.00000  Uiso   1.00
O259   O     0.43988   0.53958   0.25000   0.00000  Uiso   1.00
O260   O     0.56012   0.46042   0.25001   0.00000  Uiso   1.00
O261   O     0.56012   0.53958   0.25001   0.00000  Uiso   1.00
O262   O     0.43988   0.46042   0.25000   0.00000  Uiso   1.00
O263   O     0.50000   0.53959   0.18573   0.00000  Uiso   1.00
O264   O     0.50000   0.46041   0.31427   0.00000  Uiso   1.00
O265   O     0.50000   0.53959   0.31427   0.00000  Uiso   1.00
O266   O     0.50000   0.46041   0.18573   0.00000  Uiso   1.00
I267   I     0.37829   0.39497   0.21702   0.00000  Uiso   1.00
I268   I     0.62019   0.60661   0.21935   0.00000  Uiso   1.00
I269   I     0.62171   0.39495   0.28293   0.00000  Uiso   1.00
I270   I     0.37980   0.60663   0.28061   0.00000  Uiso   1.00
C271   C     0.75397   0.50006   0.24987   0.00000  Uiso   1.00
C272   C     0.91269   0.50006   0.25012   0.00000  Uiso   1.00
C273   C     0.83330   0.50000   0.16496   0.00000  Uiso   1.00
C274   C     0.83337   0.50000   0.33504   0.00000  Uiso   1.00
C275   C     0.81737   0.35809   0.21522   0.00000  Uiso   1.00
C276   C     0.84961   0.64187   0.28462   0.00000  Uiso   1.00
C277   C     0.84929   0.35809   0.28478   0.00000  Uiso   1.00
C278   C     0.81706   0.64187   0.21538   0.00000  Uiso   1.00
C279   C     0.68738   0.45799   0.24532   0.00000  Uiso   1.00
C280   C     0.97912   0.54293   0.24566   0.00000  Uiso   1.00
C281   C     0.97929   0.45798   0.25466   0.00000  Uiso   1.00
C282   C     0.68755   0.54293   0.25431   0.00000  Uiso   1.00
C283   C     0.84574   0.54007   0.04769   0.00000  Uiso   1.00
C284   C     0.84583   0.46001   0.45246   0.00000  Uiso   1.00
C285   C     0.82092   0.54007   0.45231   0.00000  Uiso   1.00
C286   C     0.82084   0.46000   0.04754   0.00000  Uiso   1.00
C287   C     0.84545   0.54017   0.09360   0.00000  Uiso   1.00
C288   C     0.84559   0.45989   0.40654   0.00000  Uiso   1.00
C289   C     0.82121   0.54017   0.40640   0.00000  Uiso   1.00
C290   C     0.82109   0.45989   0.09346   0.00000  Uiso   1.00
C291   C     0.83327   0.50002   0.11673   0.00000  Uiso   1.00
C292   C     0.83339   0.50002   0.38327   0.00000  Uiso   1.00
C293   C     0.83331   0.50004   0.02428   0.00000  Uiso   1.00
C294   C     0.83336   0.50004   0.47572   0.00000  Uiso   1.00
C295   C     0.95733   0.50034   0.25020   0.00000  Uiso   1.00
C296   C     0.70934   0.50035   0.24978   0.00000  Uiso   1.00
Cu297  Cu    0.83333   0.54689   0.25000   0.00000  Uiso   1.00
Cu298  Cu    0.83333   0.45311   0.25000   0.00000  Uiso   1.00
H299   H     0.80448   0.37660   0.18733   0.00000  Uiso   1.00
H300   H     0.86297   0.62333   0.31226   0.00000  Uiso   1.00
H301   H     0.86219   0.37660   0.31267   0.00000  Uiso   1.00
H302   H     0.80370   0.62332   0.18774   0.00000  Uiso   1.00
H303   H     0.85617   0.57110   0.03053   0.00000  Uiso   1.00
H304   H     0.85625   0.42898   0.46974   0.00000  Uiso   1.00
H305   H     0.81049   0.57110   0.46947   0.00000  Uiso   1.00
H306   H     0.81043   0.42898   0.03026   0.00000  Uiso   1.00
H307   H     0.85529   0.57139   0.11099   0.00000  Uiso   1.00
H308   H     0.85546   0.42867   0.38928   0.00000  Uiso   1.00
H309   H     0.81137   0.57139   0.38902   0.00000  Uiso   1.00
H310   H     0.81121   0.42866   0.11072   0.00000  Uiso   1.00
N311   N     0.83333   0.61736   0.25000   0.00000  Uiso   1.00
N312   N     0.83333   0.38264   0.25000   0.00000  Uiso   1.00
O313   O     0.77321   0.53958   0.25000   0.00000  Uiso   1.00
O314   O     0.89345   0.46042   0.25001   0.00000  Uiso   1.00
O315   O     0.89345   0.53958   0.25001   0.00000  Uiso   1.00
O316   O     0.77321   0.46042   0.25000   0.00000  Uiso   1.00
O317   O     0.83333   0.53959   0.18573   0.00000  Uiso   1.00
O318   O     0.83334   0.46041   0.31427   0.00000  Uiso   1.00
O319   O     0.83334   0.53959   0.31427   0.00000  Uiso   1.00
O320   O     0.83333   0.46041   0.18573   0.00000  Uiso   1.00
I321   I     0.71162   0.39497   0.21702   0.00000  Uiso   1.00
I322   I     0.95352   0.60661   0.21935   0.00000  Uiso   1.00
I323   I     0.95505   0.39495   0.28293   0.00000  Uiso   1.00
I324   I     0.71314   0.60663   0.28061   0.00000  Uiso   1.00
C325   C     0.08731   0.83340   0.24987   0.00000  Uiso   1.00
C326   C     0.24602   0.83339   0.25012   0.00000  Uiso   1.00
C327   C     0.16663   0.83334   0.16496   0.00000  Uiso   1.00
C328   C     0.16670   0.83334   0.33504   0.00000  Uiso   1.00
C329   C     0.15071   0.69142   0.21522   0.00000  Uiso   1.00
C330   C     0.18294   0.97520   0.28462   0.00000  Uiso   1.00
C331   C     0.18263   0.69142   0.28478   0.00000  Uiso   1.00
C332   C     0.15039   0.97520   0.21538   0.00000  Uiso   1.00
C333   C     0.02071   0.79132   0.24532   0.00000  Uiso   1.00
C334   C     0.31245   0.87626   0.24566   0.00000  Uiso   1.00
C335   C     0.31262   0.79132   0.25466   0.00000  Uiso   1.00
C336   C     0.02088   0.87626   0.25431   0.00000  Uiso   1.00
C337   C     0.17907   0.87340   0.04769   0.00000  Uiso   1.00
C338   C     0.17917   0.79334   0.45246   0.00000  Uiso   1.00
C339   C     0.15426   0.87340   0.45231   0.00000  Uiso   1.00
C340   C     0.15417   0.79334   0.04754   0.00000  Uiso   1.00
C341   C     0.17878   0.87350   0.09360   0.00000  Uiso   1.00
C342   C     0.17892   0.79323   0.40654   0.00000  Uiso   1.00
C343   C     0.15455   0.87350   0.40640   0.00000  Uiso   1.00
C344   C     0.15442   0.79322   0.09346   0.00000  Uiso   1.00
C345   C     0.16661   0.83335   0.11673   0.00000  Uiso   1.00
C346   C     0.16673   0.83335   0.38327   0.00000  Uiso   1.00
C347   C     0.16664   0.83337   0.02428   0.00000  Uiso   1.00
C348   C     0.16669   0.83337   0.47572   0.00000  Uiso   1.00
C349   C     0.29066   0.83368   0.25020   0.00000  Uiso   1.00
C350   C     0.04267   0.83368   0.24978   0.00000  Uiso   1.00
Cu351  Cu    0.16667   0.88022   0.25000   0.00000  Uiso   1.00
Cu352  Cu    0.16667   0.78645   0.25000   0.00000  Uiso   1.00
H353   H     0.13781   0.70993   0.18733   0.00000  Uiso   1.00
H354   H     0.19630   0.95666   0.31226   0.00000  Uiso   1.00
H355   H     0.19552   0.70993   0.31267   0.00000  Uiso   1.00
H356   H     0.13703   0.95666   0.18774   0.00000  Uiso   1.00
H357   H     0.18950   0.90444   0.03053   0.00000  Uiso   1.00
H358   H     0.18958   0.76231   0.46974   0.00000  Uiso   1.00
H359   H     0.14383   0.90443   0.46947   0.00000  Uiso   1.00
H360   H     0.14376   0.76231   0.03026   0.00000  Uiso   1.00
H361   H     0.18863   0.90473   0.11099   0.00000  Uiso   1.00
H362   H     0.18879   0.76200   0.38928   0.00000  Uiso   1.00
H363   H     0.14470   0.90473   0.38902   0.00000  Uiso   1.00
H364   H     0.14455   0.76200   0.11072   0.00000  Uiso   1.00
N365   N     0.16667   0.95069   0.25000   0.00000  Uiso   1.00
N366   N     0.16667   0.71598   0.25000   0.00000  Uiso   1.00
O367   O     0.10655   0.87291   0.25000   0.00000  Uiso   1.00
O368   O     0.22679   0.79375   0.25001   0.00000  Uiso   1.00
O369   O     0.22679   0.87291   0.25001   0.00000  Uiso   1.00
O370   O     0.10655   0.79375   0.25000   0.00000  Uiso   1.00
O371   O     0.16666   0.87293   0.18573   0.00000  Uiso   1.00
O372   O     0.16667   0.79374   0.31427   0.00000  Uiso   1.00
O373   O     0.16667   0.87293   0.31427   0.00000  Uiso   1.00
O374   O     0.16666   0.79374   0.18573   0.00000  Uiso   1.00
I375   I     0.04496   0.72830   0.21702   0.00000  Uiso   1.00
I376   I     0.28685   0.93994   0.21935   0.00000  Uiso   1.00
I377   I     0.28838   0.72829   0.28293   0.00000  Uiso   1.00
I378   I     0.04647   0.93996   0.28061   0.00000  Uiso   1.00
C379   C     0.42064   0.83340   0.24987   0.00000  Uiso   1.00
C380   C     0.57936   0.83339   0.25012   0.00000  Uiso   1.00
C381   C     0.49996   0.83334   0.16496   0.00000  Uiso   1.00
C382   C     0.50004   0.83334   0.33504   0.00000  Uiso   1.00
C383   C     0.48404   0.69142   0.21522   0.00000  Uiso   1.00
C384   C     0.51628   0.97520   0.28462   0.00000  Uiso   1.00
C385   C     0.51596   0.69142   0.28478   0.00000  Uiso   1.00
C386   C     0.48372   0.97520   0.21538   0.00000  Uiso   1.00
C387   C     0.35405   0.79132   0.24532   0.00000  Uiso   1.00
C388   C     0.64578   0.87626   0.24566   0.00000  Uiso   1.00
C389   C     0.64595   0.79132   0.25466   0.00000  Uiso   1.00
C390   C     0.35421   0.87626   0.25431   0.00000  Uiso   1.00
C391   C     0.51241   0.87340   0.04769   0.00000  Uiso   1.00
C392   C     0.51250   0.79334   0.45246   0.00000  Uiso   1.00
C393   C     0.48759   0.87340   0.45231   0.00000  Uiso   1.00
C394   C     0.48751   0.79334   0.04754   0.00000  Uiso   1.00
C395   C     0.51212   0.87350   0.09360   0.00000  Uiso   1.00
C396   C     0.51225   0.79323   0.40654   0.00000  Uiso   1.00
C397   C     0.48788   0.87350   0.40640   0.00000  Uiso   1.00
C398   C     0.48775   0.79322   0.09346   0.00000  Uiso   1.00
C399   C     0.49994   0.83335   0.11673   0.00000  Uiso   1.00
C400   C     0.50006   0.83335   0.38327   0.00000  Uiso   1.00
C401   C     0.49998   0.83337   0.02428   0.00000  Uiso   1.00
C402   C     0.50002   0.83337   0.47572   0.00000  Uiso   1.00
C403   C     0.62399   0.83368   0.25020   0.00000  Uiso   1.00
C404   C     0.37601   0.83368   0.24978   0.00000  Uiso   1.00
Cu405  Cu    0.50000   0.88022   0.25000   0.00000  Uiso   1.00
Cu406  Cu    0.50000   0.78645   0.25000   0.00000  Uiso   1.00
H407   H     0.47115   0.70993   0.18733   0.00000  Uiso   1.00
H408   H     0.52964   0.95666   0.31226   0.00000  Uiso   1.00
H409   H     0.52885   0.70993   0.31267   0.00000  Uiso   1.00
H410   H     0.47036   0.95666   0.18774   0.00000  Uiso   1.00
H411   H     0.52283   0.90444   0.03053   0.00000  Uiso   1.00
H412   H     0.52291   0.76231   0.46974   0.00000  Uiso   1.00
H413   H     0.47716   0.90443   0.46947   0.00000  Uiso   1.00
H414   H     0.47709   0.76231   0.03026   0.00000  Uiso   1.00
H415   H     0.52196   0.90473   0.11099   0.00000  Uiso   1.00
H416   H     0.52213   0.76200   0.38928   0.00000  Uiso   1.00
H417   H     0.47803   0.90473   0.38902   0.00000  Uiso   1.00
H418   H     0.47788   0.76200   0.11072   0.00000  Uiso   1.00
N419   N     0.50000   0.95069   0.25000   0.00000  Uiso   1.00
N420   N     0.50000   0.71598   0.25000   0.00000  Uiso   1.00
O421   O     0.43988   0.87291   0.25000   0.00000  Uiso   1.00
O422   O     0.56012   0.79375   0.25001   0.00000  Uiso   1.00
O423   O     0.56012   0.87291   0.25001   0.00000  Uiso   1.00
O424   O     0.43988   0.79375   0.25000   0.00000  Uiso   1.00
O425   O     0.50000   0.87293   0.18573   0.00000  Uiso   1.00
O426   O     0.50000   0.79374   0.31427   0.00000  Uiso   1.00
O427   O     0.50000   0.87293   0.31427   0.00000  Uiso   1.00
O428   O     0.50000   0.79374   0.18573   0.00000  Uiso   1.00
I429   I     0.37829   0.72830   0.21702   0.00000  Uiso   1.00
I430   I     0.62019   0.93994   0.21935   0.00000  Uiso   1.00
I431   I     0.62171   0.72829   0.28293   0.00000  Uiso   1.00
I432   I     0.37980   0.93996   0.28061   0.00000  Uiso   1.00
C433   C     0.75397   0.83340   0.24987   0.00000  Uiso   1.00
C434   C     0.91269   0.83339   0.25012   0.00000  Uiso   1.00
C435   C     0.83330   0.83334   0.16496   0.00000  Uiso   1.00
C436   C     0.83337   0.83334   0.33504   0.00000  Uiso   1.00
C437   C     0.81737   0.69142   0.21522   0.00000  Uiso   1.00
C438   C     0.84961   0.97520   0.28462   0.00000  Uiso   1.00
C439   C     0.84929   0.69142   0.28478   0.00000  Uiso   1.00
C440   C     0.81706   0.97520   0.21538   0.00000  Uiso   1.00
C441   C     0.68738   0.79132   0.24532   0.00000  Uiso   1.00
C442   C     0.97912   0.87626   0.24566   0.00000  Uiso   1.00
C443   C     0.97929   0.79132   0.25466   0.00000  Uiso   1.00
C444   C     0.68755   0.87626   0.25431   0.00000  Uiso   1.00
C445   C     0.84574   0.87340   0.04769   0.00000  Uiso   1.00
C446   C     0.84583   0.79334   0.45246   0.00000  Uiso   1.00
C447   C     0.82092   0.87340   0.45231   0.00000  Uiso   1.00
C448   C     0.82084   0.79334   0.04754   0.00000  Uiso   1.00
C449   C     0.84545   0.87350   0.09360   0.00000  Uiso   1.00
C450   C     0.84559   0.79323   0.40654   0.00000  Uiso   1.00
C451   C     0.82121   0.87350   0.40640   0.00000  Uiso   1.00
C452   C     0.82109   0.79322   0.09346   0.00000  Uiso   1.00
C453   C     0.83327   0.83335   0.11673   0.00000  Uiso   1.00
C454   C     0.83339   0.83335   0.38327   0.00000  Uiso   1.00
C455   C     0.83331   0.83337   0.02428   0.00000  Uiso   1.00
C456   C     0.83336   0.83337   0.47572   0.00000  Uiso   1.00
C457   C     0.95733   0.83368   0.25020   0.00000  Uiso   1.00
C458   C     0.70934   0.83368   0.24978   0.00000  Uiso   1.00
Cu459  Cu    0.83333   0.88022   0.25000   0.00000  Uiso   1.00
Cu460  Cu    0.83333   0.78645   0.25000   0.00000  Uiso   1.00
H461   H     0.80448   0.70993   0.18733   0.00000  Uiso   1.00
H462   H     0.86297   0.95666   0.31226   0.00000  Uiso   1.00
H463   H     0.86219   0.70993   0.31267   0.00000  Uiso   1.00
H464   H     0.80370   0.95666   0.18774   0.00000  Uiso   1.00
H465   H     0.85617   0.90444   0.03053   0.00000  Uiso   1.00
H466   H     0.85625   0.76231   0.46974   0.00000  Uiso   1.00
H467   H     0.81049   0.90443   0.46947   0.00000  Uiso   1.00
H468   H     0.81043   0.76231   0.03026   0.00000  Uiso   1.00
H469   H     0.85529   0.90473   0.11099   0.00000  Uiso   1.00
H470   H     0.85546   0.76200   0.38928   0.00000  Uiso   1.00
H471   H     0.81137   0.90473   0.38902   0.00000  Uiso   1.00
H472   H     0.81121   0.76200   0.11072   0.00000  Uiso   1.00
N473   N     0.83333   0.95069   0.25000   0.00000  Uiso   1.00
N474   N     0.83333   0.71598   0.25000   0.00000  Uiso   1.00
O475   O     0.77321   0.87291   0.25000   0.00000  Uiso   1.00
O476   O     0.89345   0.79375   0.25001   0.00000  Uiso   1.00
O477   O     0.89345   0.87291   0.25001   0.00000  Uiso   1.00
O478   O     0.77321   0.79375   0.25000   0.00000  Uiso   1.00
O479   O     0.83333   0.87293   0.18573   0.00000  Uiso   1.00
O480   O     0.83334   0.79374   0.31427   0.00000  Uiso   1.00
O481   O     0.83334   0.87293   0.31427   0.00000  Uiso   1.00
O482   O     0.83333   0.79374   0.18573   0.00000  Uiso   1.00
I483   I     0.71162   0.72830   0.21702   0.00000  Uiso   1.00
I484   I     0.95352   0.93994   0.21935   0.00000  Uiso   1.00
I485   I     0.95505   0.72829   0.28293   0.00000  Uiso   1.00
I486   I     0.71314   0.93996   0.28061   0.00000  Uiso   1.00
C487   C     0.08731   0.16673   0.74987   0.00000  Uiso   1.00
C488   C     0.24602   0.16673   0.75012   0.00000  Uiso   1.00
C489   C     0.16663   0.16667   0.66496   0.00000  Uiso   1.00
C490   C     0.16670   0.16667   0.83504   0.00000  Uiso   1.00
C491   C     0.15071   0.02475   0.71522   0.00000  Uiso   1.00
C492   C     0.18294   0.30854   0.78462   0.00000  Uiso   1.00
C493   C     0.18263   0.02476   0.78478   0.00000  Uiso   1.00
C494   C     0.15039   0.30854   0.71538   0.00000  Uiso   1.00
C495   C     0.02071   0.12465   0.74532   0.00000  Uiso   1.00
C496   C     0.31245   0.20959   0.74566   0.00000  Uiso   1.00
C497   C     0.31262   0.12465   0.75466   0.00000  Uiso   1.00
C498   C     0.02088   0.20960   0.75431   0.00000  Uiso   1.00
C499   C     0.17907   0.20674   0.54769   0.00000  Uiso   1.00
C500   C     0.17917   0.12667   0.95246   0.00000  Uiso   1.00
C501   C     0.15426   0.20673   0.95231   0.00000  Uiso   1.00
C502   C     0.15417   0.12667   0.54754   0.00000  Uiso   1.00
C503   C     0.17878   0.20683   0.59360   0.00000  Uiso   1.00
C504   C     0.17892   0.12656   0.90654   0.00000  Uiso   1.00
C505   C     0.15455   0.20683   0.90640   0.00000  Uiso   1.00
C506   C     0.15442   0.12656   0.59346   0.00000  Uiso   1.00
C507   C     0.16661   0.16668   0.61673   0.00000  Uiso   1.00
C508   C     0.16673   0.16668   0.88327   0.00000  Uiso   1.00
C509   C     0.16664   0.16670   0.52428   0.00000  Uiso   1.00
C510   C     0.16669   0.16670   0.97572   0.00000  Uiso   1.00
C511   C     0.29066   0.16701   0.75020   0.00000  Uiso   1.00
C512   C     0.04267   0.16701   0.74978   0.00000  Uiso   1.00
Cu513  Cu    0.16667   0.21355   0.75000   0.00000  Uiso   1.00
Cu514  Cu    0.16667   0.11978   0.75000   0.00000  Uiso   1.00
H515   H     0.13781   0.04326   0.68733   0.00000  Uiso   1.00
H516   H     0.19630   0.28999   0.81226   0.00000  Uiso   1.00
H517   H     0.19552   0.04327   0.81267   0.00000  Uiso   1.00
H518   H     0.13703   0.28999   0.68774   0.00000  Uiso   1.00
H519   H     0.18950   0.23777   0.53053   0.00000  Uiso   1.00
H520   H     0.18958   0.09565   0.96974   0.00000  Uiso   1.00
H521   H     0.14383   0.23777   0.96947   0.00000  Uiso   1.00
H522   H     0.14376   0.09564   0.53026   0.00000  Uiso   1.00
H523   H     0.18863   0.23806   0.61099   0.00000  Uiso   1.00
H524   H     0.18879   0.09533   0.88928   0.00000  Uiso   1.00
H525   H     0.14470   0.23806   0.88902   0.00000  Uiso   1.00
H526   H     0.14455   0.09533   0.61072   0.00000  Uiso   1.00
N527   N     0.16667   0.28402   0.75000   0.00000  Uiso   1.00
N528   N     0.16667   0.04931   0.75000   0.00000  Uiso   1.00
O529   O     0.10655   0.20625   0.75000   0.00000  Uiso   1.00
O530   O     0.22679   0.12709   0.75001   0.00000  Uiso   1.00
O531   O     0.22679   0.20625   0.75001   0.00000  Uiso   1.00
O532   O     0.10655   0.12709   0.75000   0.00000  Uiso   1.00
O533   O     0.16666   0.20626   0.68573   0.00000  Uiso   1.00
O534   O     0.16667   0.12707   0.81427   0.00000  Uiso   1.00
O535   O     0.16667   0.20626   0.81427   0.00000  Uiso   1.00
O536   O     0.16666   0.12707   0.68573   0.00000  Uiso   1.00
I537   I     0.04496   0.06164   0.71702   0.00000  Uiso   1.00
I538   I     0.28685   0.27328   0.71935   0.00000  Uiso   1.00
I539   I     0.28838   0.06162   0.78293   0.00000  Uiso   1.00
I540   I     0.04647   0.27329   0.78061   0.00000  Uiso   1.00
C541   C     0.42064   0.16673   0.74987   0.00000  Uiso   1.00
C542   C     0.57936   0.16673   0.75012   0.00000  Uiso   1.00
C543   C     0.49996   0.16667   0.66496   0.00000  Uiso   1.00
C544   C     0.50004   0.16667   0.83504   0.00000  Uiso   1.00
C545   C     0.48404   0.02475   0.71522   0.00000  Uiso   1.00
C546   C     0.51628   0.30854   0.78462   0.00000  Uiso   1.00
C547   C     0.51596   0.02476   0.78478   0.00000  Uiso   1.00
C548   C     0.48372   0.30854   0.71538   0.00000  Uiso   1.00
C549   C     0.35405   0.12465   0.74532   0.00000  Uiso   1.00
C550   C     0.64578   0.20959   0.74566   0.00000  Uiso   1.00
C551   C     0.64595   0.12465   0.75466   0.00000  Uiso   1.00
C552   C     0.35421   0.20960   0.75431   0.00000  Uiso   1.00
C553   C     0.51241   0.20674   0.54769   0.00000  Uiso   1.00
C554   C     0.51250   0.12667   0.95246   0.00000  Uiso   1.00
C555   C     0.48759   0.20673   0.95231   0.00000  Uiso   1.00
C556   C     0.48751   0.12667   0.54754   0.00000  Uiso   1.00
C557   C     0.51212   0.20683   0.59360   0.00000  Uiso   1.00
C558   C     0.51225   0.12656   0.90654   0.00000  Uiso   1.00
C559   C     0.48788   0.20683   0.90640   0.00000  Uiso   1.00
C560   C     0.48775   0.12656   0.59346   0.00000  Uiso   1.00
C561   C     0.49994   0.16668   0.61673   0.00000  Uiso   1.00
C562   C     0.50006   0.16668   0.88327   0.00000  Uiso   1.00
C563   C     0.49998   0.16670   0.52428   0.00000  Uiso   1.00
C564   C     0.50002   0.16670   0.97572   0.00000  Uiso   1.00
C565   C     0.62399   0.16701   0.75020   0.00000  Uiso   1.00
C566   C     0.37601   0.16701   0.74978   0.00000  Uiso   1.00
Cu567  Cu    0.50000   0.21355   0.75000   0.00000  Uiso   1.00
Cu568  Cu    0.50000   0.11978   0.75000   0.00000  Uiso   1.00
H569   H     0.47115   0.04326   0.68733   0.00000  Uiso   1.00
H570   H     0.52964   0.28999   0.81226   0.00000  Uiso   1.00
H571   H     0.52885   0.04327   0.81267   0.00000  Uiso   1.00
H572   H     0.47036   0.28999   0.68774   0.00000  Uiso   1.00
H573   H     0.52283   0.23777   0.53053   0.00000  Uiso   1.00
H574   H     0.52291   0.09565   0.96974   0.00000  Uiso   1.00
H575   H     0.47716   0.23777   0.96947   0.00000  Uiso   1.00
H576   H     0.47709   0.09564   0.53026   0.00000  Uiso   1.00
H577   H     0.52196   0.23806   0.61099   0.00000  Uiso   1.00
H578   H     0.52213   0.09533   0.88928   0.00000  Uiso   1.00
H579   H     0.47803   0.23806   0.88902   0.00000  Uiso   1.00
H580   H     0.47788   0.09533   0.61072   0.00000  Uiso   1.00
N581   N     0.50000   0.28402   0.75000   0.00000  Uiso   1.00
N582   N     0.50000   0.04931   0.75000   0.00000  Uiso   1.00
O583   O     0.43988   0.20625   0.75000   0.00000  Uiso   1.00
O584   O     0.56012   0.12709   0.75001   0.00000  Uiso   1.00
O585   O     0.56012   0.20625   0.75001   0.00000  Uiso   1.00
O586   O     0.43988   0.12709   0.75000   0.00000  Uiso   1.00
O587   O     0.50000   0.20626   0.68573   0.00000  Uiso   1.00
O588   O     0.50000   0.12707   0.81427   0.00000  Uiso   1.00
O589   O     0.50000   0.20626   0.81427   0.00000  Uiso   1.00
O590   O     0.50000   0.12707   0.68573   0.00000  Uiso   1.00
I591   I     0.37829   0.06164   0.71702   0.00000  Uiso   1.00
I592   I     0.62019   0.27328   0.71935   0.00000  Uiso   1.00
I593   I     0.62171   0.06162   0.78293   0.00000  Uiso   1.00
I594   I     0.37980   0.27329   0.78061   0.00000  Uiso   1.00
C595   C     0.75397   0.16673   0.74987   0.00000  Uiso   1.00
C596   C     0.91269   0.16673   0.75012   0.00000  Uiso   1.00
C597   C     0.83330   0.16667   0.66496   0.00000  Uiso   1.00
C598   C     0.83337   0.16667   0.83504   0.00000  Uiso   1.00
C599   C     0.81737   0.02475   0.71522   0.00000  Uiso   1.00
C600   C     0.84961   0.30854   0.78462   0.00000  Uiso   1.00
C601   C     0.84929   0.02476   0.78478   0.00000  Uiso   1.00
C602   C     0.81706   0.30854   0.71538   0.00000  Uiso   1.00
C603   C     0.68738   0.12465   0.74532   0.00000  Uiso   1.00
C604   C     0.97912   0.20959   0.74566   0.00000  Uiso   1.00
C605   C     0.97929   0.12465   0.75466   0.00000  Uiso   1.00
C606   C     0.68755   0.20960   0.75431   0.00000  Uiso   1.00
C607   C     0.84574   0.20674   0.54769   0.00000  Uiso   1.00
C608   C     0.84583   0.12667   0.95246   0.00000  Uiso   1.00
C609   C     0.82092   0.20673   0.95231   0.00000  Uiso   1.00
C610   C     0.82084   0.12667   0.54754   0.00000  Uiso   1.00
C611   C     0.84545   0.20683   0.59360   0.00000  Uiso   1.00
C612   C     0.84559   0.12656   0.90654   0.00000  Uiso   1.00
C613   C     0.82121   0.20683   0.90640   0.00000  Uiso   1.00
C614   C     0.82109   0.12656   0.59346   0.00000  Uiso   1.00
C615   C     0.83327   0.16668   0.61673   0.00000  Uiso   1.00
C616   C     0.83339   0.16668   0.88327   0.00000  Uiso   1.00
C617   C     0.83331   0.16670   0.52428   0.00000  Uiso   1.00
C618   C     0.83336   0.16670   0.97572   0.00000  Uiso   1.00
C619   C     0.95733   0.16701   0.75020   0.00000  Uiso   1.00
C620   C     0.70934   0.16701   0.74978   0.00000  Uiso   1.00
Cu621  Cu    0.83333   0.21355   0.75000   0.00000  Uiso   1.00
Cu622  Cu    0.83333   0.11978   0.75000   0.00000  Uiso   1.00
H623   H     0.80448   0.04326   0.68733   0.00000  Uiso   1.00
H624   H     0.86297   0.28999   0.81226   0.00000  Uiso   1.00
H625   H     0.86219   0.04327   0.81267   0.00000  Uiso   1.00
H626   H     0.80370   0.28999   0.68774   0.00000  Uiso   1.00
H627   H     0.85617   0.23777   0.53053   0.00000  Uiso   1.00
H628   H     0.85625   0.09565   0.96974   0.00000  Uiso   1.00
H629   H     0.81049   0.23777   0.96947   0.00000  Uiso   1.00
H630   H     0.81043   0.09564   0.53026   0.00000  Uiso   1.00
H631   H     0.85529   0.23806   0.61099   0.00000  Uiso   1.00
H632   H     0.85546   0.09533   0.88928   0.00000  Uiso   1.00
H633   H     0.81137   0.23806   0.88902   0.00000  Uiso   1.00
H634   H     0.81121   0.09533   0.61072   0.00000  Uiso   1.00
N635   N     0.83333   0.28402   0.75000   0.00000  Uiso   1.00
N636   N     0.83333   0.04931   0.75000   0.00000  Uiso   1.00
O637   O     0.77321   0.20625   0.75000   0.00000  Uiso   1.00
O638   O     0.89345   0.12709   0.75001   0.00000  Uiso   1.00
O639   O     0.89345   0.20625   0.75001   0.00000  Uiso   1.00
O640   O     0.77321   0.12709   0.75000   0.00000  Uiso   1.00
O641   O     0.83333   0.20626   0.68573   0.00000  Uiso   1.00
O642   O     0.83334   0.12707   0.81427   0.00000  Uiso   1.00
O643   O     0.83334   0.20626   0.81427   0.00000  Uiso   1.00
O644   O     0.83333   0.12707   0.68573   0.00000  Uiso   1.00
I645   I     0.71162   0.06164   0.71702   0.00000  Uiso   1.00
I646   I     0.95352   0.27328   0.71935   0.00000  Uiso   1.00
I647   I     0.95505   0.06162   0.78293   0.00000  Uiso   1.00
I648   I     0.71314   0.27329   0.78061   0.00000  Uiso   1.00
C649   C     0.08731   0.50006   0.74987   0.00000  Uiso   1.00
C650   C     0.24602   0.50006   0.75012   0.00000  Uiso   1.00
C651   C     0.16663   0.50000   0.66496   0.00000  Uiso   1.00
C652   C     0.16670   0.50000   0.83504   0.00000  Uiso   1.00
C653   C     0.15071   0.35809   0.71522   0.00000  Uiso   1.00
C654   C     0.18294   0.64187   0.78462   0.00000  Uiso   1.00
C655   C     0.18263   0.35809   0.78478   0.00000  Uiso   1.00
C656   C     0.15039   0.64187   0.71538   0.00000  Uiso   1.00
C657   C     0.02071   0.45799   0.74532   0.00000  Uiso   1.00
C658   C     0.31245   0.54293   0.74566   0.00000  Uiso   1.00
C659   C     0.31262   0.45798   0.75466   0.00000  Uiso   1.00
C660   C     0.02088   0.54293   0.75431   0.00000  Uiso   1.00
C661   C     0.17907   0.54007   0.54769   0.00000  Uiso   1.00
C662   C     0.17917   0.46001   0.95246   0.00000  Uiso   1.00
C663   C     0.15426   0.54007   0.95231   0.00000  Uiso   1.00
C664   C     0.15417   0.46000   0.54754   0.00000  Uiso   1.00
C665   C     0.17878   0.54017   0.59360   0.00000  Uiso   1.00
C666   C     0.17892   0.45989   0.90654   0.00000  Uiso   1.00
C667   C     0.15455   0.54017   0.90640   0.00000  Uiso   1.00
C668   C     0.15442   0.45989   0.59346   0.00000  Uiso   1.00
C669   C     0.16661   0.50002   0.61673   0.00000  Uiso   1.00
C670   C     0.16673   0.50002   0.88327   0.00000  Uiso   1.00
C671   C     0.16664   0.50004   0.52428   0.00000  Uiso   1.00
C672   C     0.16669   0.50004   0.97572   0.00000  Uiso   1.00
C673   C     0.29066   0.50034   0.75020   0.00000  Uiso   1.00
C674   C     0.04267   0.50035   0.74978   0.00000  Uiso   1.00
Cu675  Cu    0.16667   0.54689   0.75000   0.00000  Uiso   1.00
Cu676  Cu    0.16667   0.45311   0.75000   0.00000  Uiso   1.00
H677   H     0.13781   0.37660   0.68733   0.00000  Uiso   1.00
H678   H     0.19630   0.62333   0.81226   0.00000  Uiso   1.00
H679   H     0.19552   0.37660   0.81267   0.00000  Uiso   1.00
H680   H     0.13703   0.62332   0.68774   0.00000  Uiso   1.00
H681   H     0.18950   0.57110   0.53053   0.00000  Uiso   1.00
H682   H     0.18958   0.42898   0.96974   0.00000  Uiso   1.00
H683   H     0.14383   0.57110   0.96947   0.00000  Uiso   1.00
H684   H     0.14376   0.42898   0.53026   0.00000  Uiso   1.00
H685   H     0.18863   0.57139   0.61099   0.00000  Uiso   1.00
H686   H     0.18879   0.42867   0.88928   0.00000  Uiso   1.00
H687   H     0.14470   0.57139   0.88902   0.00000  Uiso   1.00
H688   H     0.14455   0.42866   0.61072   0.00000  Uiso   1.00
N689   N     0.16667   0.61736   0.75000   0.00000  Uiso   1.00
N690   N     0.16667   0.38264   0.75000   0.00000  Uiso   1.00
O691   O     0.10655   0.53958   0.75000   0.00000  Uiso   1.00
O692   O     0.22679   0.46042   0.75001   0.00000  Uiso   1.00
O693   O     0.22679   0.53958   0.75001   0.00000  Uiso   1.00
O694   O     0.10655   0.46042   0.75000   0.00000  Uiso   1.00
O695   O     0.16666   0.53959   0.68573   0.00000  Uiso   1.00
O696   O     0.16667   0.46041   0.81427   0.00000  Uiso   1.00
O697   O     0.16667   0.53959   0.81427   0.00000  Uiso   1.00
O698   O     0.16666   0.46041   0.68573   0.00000  Uiso   1.00
I699   I     0.04496   0.39497   0.71702   0.00000  Uiso   1.00
I700   I     0.28685   0.60661   0.71935   0.00000  Uiso   1.00
I701   I     0.28838   0.39495   0.78293   0.00000  Uiso   1.00
I702   I     0.04647   0.60663   0.78061   0.00000  Uiso   1.00
C703   C     0.42064   0.50006   0.74987   0.00000  Uiso   1.00
C704   C     0.57936   0.50006   0.75012   0.00000  Uiso   1.00
C705   C     0.49996   0.50000   0.66496   0.00000  Uiso   1.00
C706   C     0.50004   0.50000   0.83504   0.00000  Uiso   1.00
C707   C     0.48404   0.35809   0.71522   0.00000  Uiso   1.00
C708   C     0.51628   0.64187   0.78462   0.00000  Uiso   1.00
C709   C     0.51596   0.35809   0.78478   0.00000  Uiso   1.00
C710   C     0.48372   0.64187   0.71538   0.00000  Uiso   1.00
C711   C     0.35405   0.45799   0.74532   0.00000  Uiso   1.00
C712   C     0.64578   0.54293   0.74566   0.00000  Uiso   1.00
C713   C     0.64595   0.45798   0.75466   0.00000  Uiso   1.00
C714   C     0.35421   0.54293   0.75431   0.00000  Uiso   1.00
C715   C     0.51241   0.54007   0.54769   0.00000  Uiso   1.00
C716   C     0.51250   0.46001   0.95246   0.00000  Uiso   1.00
C717   C     0.48759   0.54007   0.95231   0.00000  Uiso   1.00
C718   C     0.48751   0.46000   0.54754   0.00000  Uiso   1.00
C719   C     0.51212   0.54017   0.59360   0.00000  Uiso   1.00
C720   C     0.51225   0.45989   0.90654   0.00000  Uiso   1.00
C721   C     0.48788   0.54017   0.90640   0.00000  Uiso   1.00
C722   C     0.48775   0.45989   0.59346   0.00000  Uiso   1.00
C723   C     0.49994   0.50002   0.61673   0.00000  Uiso   1.00
C724   C     0.50006   0.50002   0.88327   0.00000  Uiso   1.00
C725   C     0.49998   0.50004   0.52428   0.00000  Uiso   1.00
C726   C     0.50002   0.50004   0.97572   0.00000  Uiso   1.00
C727   C     0.62399   0.50034   0.75020   0.00000  Uiso   1.00
C728   C     0.37601   0.50035   0.74978   0.00000  Uiso   1.00
Cu729  Cu    0.50000   0.54689   0.75000   0.00000  Uiso   1.00
Cu730  Cu    0.50000   0.45311   0.75000   0.00000  Uiso   1.00
H731   H     0.47115   0.37660   0.68733   0.00000  Uiso   1.00
H732   H     0.52964   0.62333   0.81226   0.00000  Uiso   1.00
H733   H     0.52885   0.37660   0.81267   0.00000  Uiso   1.00
H734   H     0.47036   0.62332   0.68774   0.00000  Uiso   1.00
H735   H     0.52283   0.57110   0.53053   0.00000  Uiso   1.00
H736   H     0.52291   0.42898   0.96974   0.00000  Uiso   1.00
H737   H     0.47716   0.57110   0.96947   0.00000  Uiso   1.00
H738   H     0.47709   0.42898   0.53026   0.00000  Uiso   1.00
H739   H     0.52196   0.57139   0.61099   0.00000  Uiso   1.00
H740   H     0.52213   0.42867   0.88928   0.00000  Uiso   1.00
H741   H     0.47803   0.57139   0.88902   0.00000  Uiso   1.00
H742   H     0.47788   0.42866   0.61072   0.00000  Uiso   1.00
N743   N     0.50000   0.61736   0.75000   0.00000  Uiso   1.00
N744   N     0.50000   0.38264   0.75000   0.00000  Uiso   1.00
O745   O     0.43988   0.53958   0.75000   0.00000  Uiso   1.00
O746   O     0.56012   0.46042   0.75001   0.00000  Uiso   1.00
O747   O     0.56012   0.53958   0.75001   0.00000  Uiso   1.00
O748   O     0.43988   0.46042   0.75000   0.00000  Uiso   1.00
O749   O     0.50000   0.53959   0.68573   0.00000  Uiso   1.00
O750   O     0.50000   0.46041   0.81427   0.00000  Uiso   1.00
O751   O     0.50000   0.53959   0.81427   0.00000  Uiso   1.00
O752   O     0.50000   0.46041   0.68573   0.00000  Uiso   1.00
I753   I     0.37829   0.39497   0.71702   0.00000  Uiso   1.00
I754   I     0.62019   0.60661   0.71935   0.00000  Uiso   1.00
I755   I     0.62171   0.39495   0.78293   0.00000  Uiso   1.00
I756   I     0.37980   0.60663   0.78061   0.00000  Uiso   1.00
C757   C     0.75397   0.50006   0.74987   0.00000  Uiso   1.00
C758   C     0.91269   0.50006   0.75012   0.00000  Uiso   1.00
C759   C     0.83330   0.50000   0.66496   0.00000  Uiso   1.00
C760   C     0.83337   0.50000   0.83504   0.00000  Uiso   1.00
C761   C     0.81737   0.35809   0.71522   0.00000  Uiso   1.00
C762   C     0.84961   0.64187   0.78462   0.00000  Uiso   1.00
C763   C     0.84929   0.35809   0.78478   0.00000  Uiso   1.00
C764   C     0.81706   0.64187   0.71538   0.00000  Uiso   1.00
C765   C     0.68738   0.45799   0.74532   0.00000  Uiso   1.00
C766   C     0.97912   0.54293   0.74566   0.00000  Uiso   1.00
C767   C     0.97929   0.45798   0.75466   0.00000  Uiso   1.00
C768   C     0.68755   0.54293   0.75431   0.00000  Uiso   1.00
C769   C     0.84574   0.54007   0.54769   0.00000  Uiso   1.00
C770   C     0.84583   0.46001   0.95246   0.00000  Uiso   1.00
C771   C     0.82092   0.54007   0.95231   0.00000  Uiso   1.00
C772   C     0.82084   0.46000   0.54754   0.00000  Uiso   1.00
C773   C     0.84545   0.54017   0.59360   0.00000  Uiso   1.00
C774   C     0.84559   0.45989   0.90654   0.00000  Uiso   1.00
C775   C     0.82121   0.54017   0.90640   0.00000  Uiso   1.00
C776   C     0.82109   0.45989   0.59346   0.00000  Uiso   1.00
C777   C     0.83327   0.50002   0.61673   0.00000  Uiso   1.00
C778   C     0.83339   0.50002   0.88327   0.00000  Uiso   1.00
C779   C     0.83331   0.50004   0.52428   0.00000  Uiso   1.00
C780   C     0.83336   0.50004   0.97572   0.00000  Uiso   1.00
C781   C     0.95733   0.50034   0.75020   0.00000  Uiso   1.00
C782   C     0.70934   0.50035   0.74978   0.00000  Uiso   1.00
Cu783  Cu    0.83333   0.54689   0.75000   0.00000  Uiso   1.00
Cu784  Cu    0.83333   0.45311   0.75000   0.00000  Uiso   1.00
H785   H     0.80448   0.37660   0.68733   0.00000  Uiso   1.00
H786   H     0.86297   0.62333   0.81226   0.00000  Uiso   1.00
H787   H     0.86219   0.37660   0.81267   0.00000  Uiso   1.00
H788   H     0.80370   0.62332   0.68774   0.00000  Uiso   1.00
H789   H     0.85617   0.57110   0.53053   0.00000  Uiso   1.00
H790   H     0.85625   0.42898   0.96974   0.00000  Uiso   1.00
H791   H     0.81049   0.57110   0.96947   0.00000  Uiso   1.00
H792   H     0.81043   0.42898   0.53026   0.00000  Uiso   1.00
H793   H     0.85529   0.57139   0.61099   0.00000  Uiso   1.00
H794   H     0.85546   0.42867   0.88928   0.00000  Uiso   1.00
H795   H     0.81137   0.57139   0.88902   0.00000  Uiso   1.00
H796   H     0.81121   0.42866   0.61072   0.00000  Uiso   1.00
N797   N     0.83333   0.61736   0.75000   0.00000  Uiso   1.00
N798   N     0.83333   0.38264   0.75000   0.00000  Uiso   1.00
O799   O     0.77321   0.53958   0.75000   0.00000  Uiso   1.00
O800   O     0.89345   0.46042   0.75001   0.00000  Uiso   1.00
O801   O     0.89345   0.53958   0.75001   0.00000  Uiso   1.00
O802   O     0.77321   0.46042   0.75000   0.00000  Uiso   1.00
O803   O     0.83333   0.53959   0.68573   0.00000  Uiso   1.00
O804   O     0.83334   0.46041   0.81427   0.00000  Uiso   1.00
O805   O     0.83334   0.53959   0.81427   0.00000  Uiso   1.00
O806   O     0.83333   0.46041   0.68573   0.00000  Uiso   1.00
I807   I     0.71162   0.39497   0.71702   0.00000  Uiso   1.00
I808   I     0.95352   0.60661   0.71935   0.00000  Uiso   1.00
I809   I     0.95505   0.39495   0.78293   0.00000  Uiso   1.00
I810   I     0.71314   0.60663   0.78061   0.00000  Uiso   1.00
C811   C     0.08731   0.83340   0.74987   0.00000  Uiso   1.00
C812   C     0.24602   0.83339   0.75012   0.00000  Uiso   1.00
C813   C     0.16663   0.83334   0.66496   0.00000  Uiso   1.00
C814   C     0.16670   0.83334   0.83504   0.00000  Uiso   1.00
C815   C     0.15071   0.69142   0.71522   0.00000  Uiso   1.00
C816   C     0.18294   0.97520   0.78462   0.00000  Uiso   1.00
C817   C     0.18263   0.69142   0.78478   0.00000  Uiso   1.00
C818   C     0.15039   0.97520   0.71538   0.00000  Uiso   1.00
C819   C     0.02071   0.79132   0.74532   0.00000  Uiso   1.00
C820   C     0.31245   0.87626   0.74566   0.00000  Uiso   1.00
C821   C     0.31262   0.79132   0.75466   0.00000  Uiso   1.00
C822   C     0.02088   0.87626   0.75431   0.00000  Uiso   1.00
C823   C     0.17907   0.87340   0.54769   0.00000  Uiso   1.00
C824   C     0.17917   0.79334   0.95246   0.00000  Uiso   1.00
C825   C     0.15426   0.87340   0.95231   0.00000  Uiso   1.00
C826   C     0.15417   0.79334   0.54754   0.00000  Uiso   1.00
C827   C     0.17878   0.87350   0.59360   0.00000  Uiso   1.00
C828   C     0.17892   0.79323   0.90654   0.00000  Uiso   1.00
C829   C     0.15455   0.87350   0.90640   0.00000  Uiso   1.00
C830   C     0.15442   0.79322   0.59346   0.00000  Uiso   1.00
C831   C     0.16661   0.83335   0.61673   0.00000  Uiso   1.00
C832   C     0.16673   0.83335   0.88327   0.00000  Uiso   1.00
C833   C     0.16664   0.83337   0.52428   0.00000  Uiso   1.00
C834   C     0.16669   0.83337   0.97572   0.00000  Uiso   1.00
C835   C     0.29066   0.83368   0.75020   0.00000  Uiso   1.00
C836   C     0.04267   0.83368   0.74978   0.00000  Uiso   1.00
Cu837  Cu    0.16667   0.88022   0.75000   0.00000  Uiso   1.00
Cu838  Cu    0.16667   0.78645   0.75000   0.00000  Uiso   1.00
H839   H     0.13781   0.70993   0.68733   0.00000  Uiso   1.00
H840   H     0.19630   0.95666   0.81226   0.00000  Uiso   1.00
H841   H     0.19552   0.70993   0.81267   0.00000  Uiso   1.00
H842   H     0.13703   0.95666   0.68774   0.00000  Uiso   1.00
H843   H     0.18950   0.90444   0.53053   0.00000  Uiso   1.00
H844   H     0.18958   0.76231   0.96974   0.00000  Uiso   1.00
H845   H     0.14383   0.90443   0.96947   0.00000  Uiso   1.00
H846   H     0.14376   0.76231   0.53026   0.00000  Uiso   1.00
H847   H     0.18863   0.90473   0.61099   0.00000  Uiso   1.00
H848   H     0.18879   0.76200   0.88928   0.00000  Uiso   1.00
H849   H     0.14470   0.90473   0.88902   0.00000  Uiso   1.00
H850   H     0.14455   0.76200   0.61072   0.00000  Uiso   1.00
N851   N     0.16667   0.95069   0.75000   0.00000  Uiso   1.00
N852   N     0.16667   0.71598   0.75000   0.00000  Uiso   1.00
O853   O     0.10655   0.87291   0.75000   0.00000  Uiso   1.00
O854   O     0.22679   0.79375   0.75001   0.00000  Uiso   1.00
O855   O     0.22679   0.87291   0.75001   0.00000  Uiso   1.00
O856   O     0.10655   0.79375   0.75000   0.00000  Uiso   1.00
O857   O     0.16666   0.87293   0.68573   0.00000  Uiso   1.00
O858   O     0.16667   0.79374   0.81427   0.00000  Uiso   1.00
O859   O     0.16667   0.87293   0.81427   0.00000  Uiso   1.00
O860   O     0.16666   0.79374   0.68573   0.00000  Uiso   1.00
I861   I     0.04496   0.72830   0.71702   0.00000  Uiso   1.00
I862   I     0.28685   0.93994   0.71935   0.00000  Uiso   1.00
I863   I     0.28838   0.72829   0.78293   0.00000  Uiso   1.00
I864   I     0.04647   0.93996   0.78061   0.00000  Uiso   1.00
C865   C     0.42064   0.83340   0.74987   0.00000  Uiso   1.00
C866   C     0.57936   0.83339   0.75012   0.00000  Uiso   1.00
C867   C     0.49996   0.83334   0.66496   0.00000  Uiso   1.00
C868   C     0.50004   0.83334   0.83504   0.00000  Uiso   1.00
C869   C     0.48404   0.69142   0.71522   0.00000  Uiso   1.00
C870   C     0.51628   0.97520   0.78462   0.00000  Uiso   1.00
C871   C     0.51596   0.69142   0.78478   0.00000  Uiso   1.00
C872   C     0.48372   0.97520   0.71538   0.00000  Uiso   1.00
C873   C     0.35405   0.79132   0.74532   0.00000  Uiso   1.00
C874   C     0.64578   0.87626   0.74566   0.00000  Uiso   1.00
C875   C     0.64595   0.79132   0.75466   0.00000  Uiso   1.00
C876   C     0.35421   0.87626   0.75431   0.00000  Uiso   1.00
C877   C     0.51241   0.87340   0.54769   0.00000  Uiso   1.00
C878   C     0.51250   0.79334   0.95246   0.00000  Uiso   1.00
C879   C     0.48759   0.87340   0.95231   0.00000  Uiso   1.00
C880   C     0.48751   0.79334   0.54754   0.00000  Uiso   1.00
C881   C     0.51212   0.87350   0.59360   0.00000  Uiso   1.00
C882   C     0.51225   0.79323   0.90654   0.00000  Uiso   1.00
C883   C     0.48788   0.87350   0.90640   0.00000  Uiso   1.00
C884   C     0.48775   0.79322   0.59346   0.00000  Uiso   1.00
C885   C     0.49994   0.83335   0.61673   0.00000  Uiso   1.00
C886   C     0.50006   0.83335   0.88327   0.00000  Uiso   1.00
C887   C     0.49998   0.83337   0.52428   0.00000  Uiso   1.00
C888   C     0.50002   0.83337   0.97572   0.00000  Uiso   1.00
C889   C     0.62399   0.83368   0.75020   0.00000  Uiso   1.00
C890   C     0.37601   0.83368   0.74978   0.00000  Uiso   1.00
Cu891  Cu    0.50000   0.88022   0.75000   0.00000  Uiso   1.00
Cu892  Cu    0.50000   0.78645   0.75000   0.00000  Uiso   1.00
H893   H     0.47115   0.70993   0.68733   0.00000  Uiso   1.00
H894   H     0.52964   0.95666   0.81226   0.00000  Uiso   1.00
H895   H     0.52885   0.70993   0.81267   0.00000  Uiso   1.00
H896   H     0.47036   0.95666   0.68774   0.00000  Uiso   1.00
H897   H     0.52283   0.90444   0.53053   0.00000  Uiso   1.00
H898   H     0.52291   0.76231   0.96974   0.00000  Uiso   1.00
H899   H     0.47716   0.90443   0.96947   0.00000  Uiso   1.00
H900   H     0.47709   0.76231   0.53026   0.00000  Uiso   1.00
H901   H     0.52196   0.90473   0.61099   0.00000  Uiso   1.00
H902   H     0.52213   0.76200   0.88928   0.00000  Uiso   1.00
H903   H     0.47803   0.90473   0.88902   0.00000  Uiso   1.00
H904   H     0.47788   0.76200   0.61072   0.00000  Uiso   1.00
N905   N     0.50000   0.95069   0.75000   0.00000  Uiso   1.00
N906   N     0.50000   0.71598   0.75000   0.00000  Uiso   1.00
O907   O     0.43988   0.87291   0.75000   0.00000  Uiso   1.00
O908   O     0.56012   0.79375   0.75001   0.00000  Uiso   1.00
O909   O     0.56012   0.87291   0.75001   0.00000  Uiso   1.00
O910   O     0.43988   0.79375   0.75000   0.00000  Uiso   1.00
O911   O     0.50000   0.87293   0.68573   0.00000  Uiso   1.00
O912   O     0.50000   0.79374   0.81427   0.00000  Uiso   1.00
O913   O     0.50000   0.87293   0.81427   0.00000  Uiso   1.00
O914   O     0.50000   0.79374   0.68573   0.00000  Uiso   1.00
I915   I     0.37829   0.72830   0.71702   0.00000  Uiso   1.00
I916   I     0.62019   0.93994   0.71935   0.00000  Uiso   1.00
I917   I     0.62171   0.72829   0.78293   0.00000  Uiso   1.00
I918   I     0.37980   0.93996   0.78061   0.00000  Uiso   1.00
C919   C     0.75397   0.83340   0.74987   0.00000  Uiso   1.00
C920   C     0.91269   0.83339   0.75012   0.00000  Uiso   1.00
C921   C     0.83330   0.83334   0.66496   0.00000  Uiso   1.00
C922   C     0.83337   0.83334   0.83504   0.00000  Uiso   1.00
C923   C     0.81737   0.69142   0.71522   0.00000  Uiso   1.00
C924   C     0.84961   0.97520   0.78462   0.00000  Uiso   1.00
C925   C     0.84929   0.69142   0.78478   0.00000  Uiso   1.00
C926   C     0.81706   0.97520   0.71538   0.00000  Uiso   1.00
C927   C     0.68738   0.79132   0.74532   0.00000  Uiso   1.00
C928   C     0.97912   0.87626   0.74566   0.00000  Uiso   1.00
C929   C     0.97929   0.79132   0.75466   0.00000  Uiso   1.00
C930   C     0.68755   0.87626   0.75431   0.00000  Uiso   1.00
C931   C     0.84574   0.87340   0.54769   0.00000  Uiso   1.00
C932   C     0.84583   0.79334   0.95246   0.00000  Uiso   1.00
C933   C     0.82092   0.87340   0.95231   0.00000  Uiso   1.00
C934   C     0.82084   0.79334   0.54754   0.00000  Uiso   1.00
C935   C     0.84545   0.87350   0.59360   0.00000  Uiso   1.00
C936   C     0.84559   0.79323   0.90654   0.00000  Uiso   1.00
C937   C     0.82121   0.87350   0.90640   0.00000  Uiso   1.00
C938   C     0.82109   0.79322   0.59346   0.00000  Uiso   1.00
C939   C     0.83327   0.83335   0.61673   0.00000  Uiso   1.00
C940   C     0.83339   0.83335   0.88327   0.00000  Uiso   1.00
C941   C     0.83331   0.83337   0.52428   0.00000  Uiso   1.00
C942   C     0.83336   0.83337   0.97572   0.00000  Uiso   1.00
C943   C     0.95733   0.83368   0.75020   0.00000  Uiso   1.00
C944   C     0.70934   0.83368   0.74978   0.00000  Uiso   1.00
Cu945  Cu    0.83333   0.88022   0.75000   0.00000  Uiso   1.00
Cu946  Cu    0.83333   0.78645   0.75000   0.00000  Uiso   1.00
H947   H     0.80448   0.70993   0.68733   0.00000  Uiso   1.00
H948   H     0.86297   0.95666   0.81226   0.00000  Uiso   1.00
H949   H     0.86219   0.70993   0.81267   0.00000  Uiso   1.00
H950   H     0.80370   0.95666   0.68774   0.00000  Uiso   1.00
H951   H     0.85617   0.90444   0.53053   0.00000  Uiso   1.00
H952   H     0.85625   0.76231   0.96974   0.00000  Uiso   1.00
H953   H     0.81049   0.90443   0.96947   0.00000  Uiso   1.00
H954   H     0.81043   0.76231   0.53026   0.00000  Uiso   1.00
H955   H     0.85529   0.90473   0.61099   0.00000  Uiso   1.00
H956   H     0.85546   0.76200   0.88928   0.00000  Uiso   1.00
H957   H     0.81137   0.90473   0.88902   0.00000  Uiso   1.00
H958   H     0.81121   0.76200   0.61072   0.00000  Uiso   1.00
N959   N     0.83333   0.95069   0.75000   0.00000  Uiso   1.00
N960   N     0.83333   0.71598   0.75000   0.00000  Uiso   1.00
O961   O     0.77321   0.87291   0.75000   0.00000  Uiso   1.00
O962   O     0.89345   0.79375   0.75001   0.00000  Uiso   1.00
O963   O     0.89345   0.87291   0.75001   0.00000  Uiso   1.00
O964   O     0.77321   0.79375   0.75000   0.00000  Uiso   1.00
O965   O     0.83333   0.87293   0.68573   0.00000  Uiso   1.00
O966   O     0.83334   0.79374   0.81427   0.00000  Uiso   1.00
O967   O     0.83334   0.87293   0.81427   0.00000  Uiso   1.00
O968   O     0.83333   0.79374   0.68573   0.00000  Uiso   1.00
I969   I     0.71162   0.72830   0.71702   0.00000  Uiso   1.00
I970   I     0.95352   0.93994   0.71935   0.00000  Uiso   1.00
I971   I     0.95505   0.72829   0.78293   0.00000  Uiso   1.00
I972   I     0.71314   0.93996   0.78061   0.00000  Uiso   1.00
loop_
_geom_bond_atom_site_label_1
_geom_bond_atom_site_label_2
_geom_bond_distance
_geom_bond_site_symmetry_2
_ccdc_geom_bond_type
C1     O43     1.292   .     A
C1     C26     1.464   .     S
C1     O46     1.295   .     A
C2     O44     1.295   .     A
C2     C25     1.464   .     S
C2     O45     1.292   .     A
C3     O47     1.293   .     A
C3     O50     1.293   .     A
C3     C21     1.460   .     S
C4     C22     1.460   .     S
C4     O49     1.293   .     A
C4     O48     1.293   .     A
C5     H29     1.081   .     S
C5     N42     1.367   .     A
C5     C332    1.414   1_545 S
C6     H30     1.081   .     S
C6     N41     1.367   .     A
C6     C169    1.414   .     S
C7     H31     1.081   .     S
C7     N42     1.367   .     A
C7     C330    1.414   1_545 S
C8     N41     1.367   .     A
C8     H32     1.081   .     S
C8     C167    1.414   .     S
C9     C26     1.413   .     A
C9     I51     2.146   .     S
C9     C119    1.389   1_455 S
C10    I52     2.153   .     S
C10    C25     1.417   .     A
C10    C66     1.394   .     S
C11    I53     2.146   .     S
C11    C25     1.413   .     A
C11    C63     1.389   .     S
C12    I54     2.153   .     S
C12    C26     1.417   .     A
C12    C118    1.394   1_455 S
C13    H33     1.083   .     S
C13    C17     1.390   .     A
C13    C23     1.404   .     A
C14    H34     1.083   .     S
C14    C18     1.390   .     A
C14    C24     1.404   .     A
C15    C19     1.390   .     A
C15    C24     1.404   .     A
C15    H35     1.083   .     S
C16    C20     1.390   .     A
C16    H36     1.083   .     S
C16    C23     1.404   .     A
C17    H37     1.083   .     S
C17    C21     1.402   .     A
C18    H38     1.083   .     S
C18    C22     1.402   .     A
C19    H39     1.083   .     S
C19    C22     1.402   .     A
C20    H40     1.083   .     S
C20    C21     1.402   .     A
C23    C510    1.470   1_554 S
C24    C509    1.470   .     S
Cu27   O47     1.957   .     S
Cu27   O45     1.983   .     S
Cu27   O43     1.983   .     S
Cu27   Cu28    2.676   .     S
Cu27   N41     2.011   .     S
Cu27   O49     1.957   .     S
Cu28   O46     1.983   .     S
Cu28   N42     2.011   .     S
Cu28   O48     1.957   .     S
Cu28   O50     1.957   .     S
Cu28   O44     1.983   .     S
C55    O97     1.292   .     A
C55    C80     1.464   .     S
C55    O100    1.295   .     A
C56    O98     1.295   .     A
C56    C79     1.464   .     S
C56    O99     1.292   .     A
C57    O101    1.293   .     A
C57    O104    1.293   .     A
C57    C75     1.460   .     S
C58    C76     1.460   .     S
C58    O103    1.293   .     A
C58    O102    1.293   .     A
C59    H83     1.081   .     S
C59    N96     1.367   .     A
C59    C386    1.414   1_545 S
C60    H84     1.081   .     S
C60    N95     1.367   .     A
C60    C223    1.414   .     S
C61    H85     1.081   .     S
C61    N96     1.367   .     A
C61    C384    1.414   1_545 S
C62    N95     1.367   .     A
C62    H86     1.081   .     S
C62    C221    1.414   .     S
C63    C80     1.413   .     A
C63    I105    2.146   .     S
C64    I106    2.153   .     S
C64    C79     1.417   .     A
C64    C120    1.394   .     S
C65    I107    2.146   .     S
C65    C79     1.413   .     A
C65    C117    1.389   .     S
C66    I108    2.153   .     S
C66    C80     1.417   .     A
C67    H87     1.083   .     S
C67    C71     1.390   .     A
C67    C77     1.404   .     A
C68    H88     1.083   .     S
C68    C72     1.390   .     A
C68    C78     1.404   .     A
C69    C73     1.390   .     A
C69    C78     1.404   .     A
C69    H89     1.083   .     S
C70    C74     1.390   .     A
C70    H90     1.083   .     S
C70    C77     1.404   .     A
C71    H91     1.083   .     S
C71    C75     1.402   .     A
C72    H92     1.083   .     S
C72    C76     1.402   .     A
C73    H93     1.083   .     S
C73    C76     1.402   .     A
C74    H94     1.083   .     S
C74    C75     1.402   .     A
C77    C564    1.470   1_554 S
C78    C563    1.470   .     S
Cu81   O101    1.957   .     S
Cu81   O99     1.983   .     S
Cu81   O97     1.983   .     S
Cu81   Cu82    2.676   .     S
Cu81   N95     2.011   .     S
Cu81   O103    1.957   .     S
Cu82   O100    1.983   .     S
Cu82   N96     2.011   .     S
Cu82   O102    1.957   .     S
Cu82   O104    1.957   .     S
Cu82   O98     1.983   .     S
C109   O151    1.292   .     A
C109   C134    1.464   .     S
C109   O154    1.295   .     A
C110   O152    1.295   .     A
C110   C133    1.464   .     S
C110   O153    1.292   .     A
C111   O155    1.293   .     A
C111   O158    1.293   .     A
C111   C129    1.460   .     S
C112   C130    1.460   .     S
C112   O157    1.293   .     A
C112   O156    1.293   .     A
C113   H137    1.081   .     S
C113   N150    1.367   .     A
C113   C440    1.414   1_545 S
C114   H138    1.081   .     S
C114   N149    1.367   .     A
C114   C277    1.414   .     S
C115   H139    1.081   .     S
C115   N150    1.367   .     A
C115   C438    1.414   1_545 S
C116   N149    1.367   .     A
C116   H140    1.081   .     S
C116   C275    1.414   .     S
C117   C134    1.413   .     A
C117   I159    2.146   .     S
C118   I160    2.153   .     S
C118   C133    1.417   .     A
C118   C12     1.394   1_655 S
C119   I161    2.146   .     S
C119   C133    1.413   .     A
C119   C9      1.389   1_655 S
C120   I162    2.153   .     S
C120   C134    1.417   .     A
C121   H141    1.083   .     S
C121   C125    1.390   .     A
C121   C131    1.404   .     A
C122   H142    1.083   .     S
C122   C126    1.390   .     A
C122   C132    1.404   .     A
C123   C127    1.390   .     A
C123   C132    1.404   .     A
C123   H143    1.083   .     S
C124   C128    1.390   .     A
C124   H144    1.083   .     S
C124   C131    1.404   .     A
C125   H145    1.083   .     S
C125   C129    1.402   .     A
C126   H146    1.083   .     S
C126   C130    1.402   .     A
C127   H147    1.083   .     S
C127   C130    1.402   .     A
C128   H148    1.083   .     S
C128   C129    1.402   .     A
C131   C618    1.470   1_554 S
C132   C617    1.470   .     S
Cu135  O155    1.957   .     S
Cu135  O153    1.983   .     S
Cu135  O151    1.983   .     S
Cu135  Cu136   2.676   .     S
Cu135  N149    2.011   .     S
Cu135  O157    1.957   .     S
Cu136  O154    1.983   .     S
Cu136  N150    2.011   .     S
Cu136  O156    1.957   .     S
Cu136  O158    1.957   .     S
Cu136  O152    1.983   .     S
C163   O205    1.292   .     A
C163   C188    1.464   .     S
C163   O208    1.295   .     A
C164   O206    1.295   .     A
C164   C187    1.464   .     S
C164   O207    1.292   .     A
C165   O209    1.293   .     A
C165   O212    1.293   .     A
C165   C183    1.460   .     S
C166   C184    1.460   .     S
C166   O211    1.293   .     A
C166   O210    1.293   .     A
C167   H191    1.081   .     S
C167   N204    1.367   .     A
C168   H192    1.081   .     S
C168   N203    1.367   .     A
C168   C331    1.414   .     S
C169   H193    1.081   .     S
C169   N204    1.367   .     A
C170   N203    1.367   .     A
C170   H194    1.081   .     S
C170   C329    1.414   .     S
C171   C188    1.413   .     A
C171   I213    2.146   .     S
C171   C281    1.389   1_455 S
C172   I214    2.153   .     S
C172   C187    1.417   .     A
C172   C228    1.394   .     S
C173   I215    2.146   .     S
C173   C187    1.413   .     A
C173   C225    1.389   .     S
C174   I216    2.153   .     S
C174   C188    1.417   .     A
C174   C280    1.394   1_455 S
C175   H195    1.083   .     S
C175   C179    1.390   .     A
C175   C185    1.404   .     A
C176   H196    1.083   .     S
C176   C180    1.390   .     A
C176   C186    1.404   .     A
C177   C181    1.390   .     A
C177   C186    1.404   .     A
C177   H197    1.083   .     S
C178   C182    1.390   .     A
C178   H198    1.083   .     S
C178   C185    1.404   .     A
C179   H199    1.083   .     S
C179   C183    1.402   .     A
C180   H200    1.083   .     S
C180   C184    1.402   .     A
C181   H201    1.083   .     S
C181   C184    1.402   .     A
C182   H202    1.083   .     S
C182   C183    1.402   .     A
C185   C672    1.470   1_554 S
C186   C671    1.470   .     S
Cu189  O209    1.957   .     S
Cu189  O207    1.983   .     S
Cu189  O205    1.983   .     S
Cu189  Cu190   2.676   .     S
Cu189  N203    2.011   .     S
Cu189  O211    1.957   .     S
Cu190  O208    1.983   .     S
Cu190  N204    2.011   .     S
Cu190  O210    1.957   .     S
Cu190  O212    1.957   .     S
Cu190  O206    1.983   .     S
C217   O259    1.292   .     A
C217   C242    1.464   .     S
C217   O262    1.295   .     A
C218   O260    1.295   .     A
C218   C241    1.464   .     S
C218   O261    1.292   .     A
C219   O263    1.293   .     A
C219   O266    1.293   .     A
C219   C237    1.460   .     S
C220   C238    1.460   .     S
C220   O265    1.293   .     A
C220   O264    1.293   .     A
C221   H245    1.081   .     S
C221   N258    1.367   .     A
C222   H246    1.081   .     S
C222   N257    1.367   .     A
C222   C385    1.414   .     S
C223   H247    1.081   .     S
C223   N258    1.367   .     A
C224   N257    1.367   .     A
C224   H248    1.081   .     S
C224   C383    1.414   .     S
C225   C242    1.413   .     A
C225   I267    2.146   .     S
C226   I268    2.153   .     S
C226   C241    1.417   .     A
C226   C282    1.394   .     S
C227   I269    2.146   .     S
C227   C241    1.413   .     A
C227   C279    1.389   .     S
C228   I270    2.153   .     S
C228   C242    1.417   .     A
C229   H249    1.083   .     S
C229   C233    1.390   .     A
C229   C239    1.404   .     A
C230   H250    1.083   .     S
C230   C234    1.390   .     A
C230   C240    1.404   .     A
C231   C235    1.390   .     A
C231   C240    1.404   .     A
C231   H251    1.083   .     S
C232   C236    1.390   .     A
C232   H252    1.083   .     S
C232   C239    1.404   .     A
C233   H253    1.083   .     S
C233   C237    1.402   .     A
C234   H254    1.083   .     S
C234   C238    1.402   .     A
C235   H255    1.083   .     S
C235   C238    1.402   .     A
C236   H256    1.083   .     S
C236   C237    1.402   .     A
C239   C726    1.470   1_554 S
C240   C725    1.470   .     S
Cu243  O263    1.957   .     S
Cu243  O261    1.983   .     S
Cu243  O259    1.983   .     S
Cu243  Cu244   2.676   .     S
Cu243  N257    2.011   .     S
Cu243  O265    1.957   .     S
Cu244  O262    1.983   .     S
Cu244  N258    2.011   .     S
Cu244  O264    1.957   .     S
Cu244  O266    1.957   .     S
Cu244  O260    1.983   .     S
C271   O313    1.292   .     A
C271   C296    1.464   .     S
C271   O316    1.295   .     A
C272   O314    1.295   .     A
C272   C295    1.464   .     S
C272   O315    1.292   .     A
C273   O317    1.293   .     A
C273   O320    1.293   .     A
C273   C291    1.460   .     S
C274   C292    1.460   .     S
C274   O319    1.293   .     A
C274   O318    1.293   .     A
C275   H299    1.081   .     S
C275   N312    1.367   .     A
C276   H300    1.081   .     S
C276   N311    1.367   .     A
C276   C439    1.414   .     S
C277   H301    1.081   .     S
C277   N312    1.367   .     A
C278   N311    1.367   .     A
C278   H302    1.081   .     S
C278   C437    1.414   .     S
C279   C296    1.413   .     A
C279   I321    2.146   .     S
C280   I322    2.153   .     S
C280   C295    1.417   .     A
C280   C174    1.394   1_655 S
C281   I323    2.146   .     S
C281   C295    1.413   .     A
C281   C171    1.389   1_655 S
C282   I324    2.153   .     S
C282   C296    1.417   .     A
C283   H303    1.083   .     S
C283   C287    1.390   .     A
C283   C293    1.404   .     A
C284   H304    1.083   .     S
C284   C288    1.390   .     A
C284   C294    1.404   .     A
C285   C289    1.390   .     A
C285   C294    1.404   .     A
C285   H305    1.083   .     S
C286   C290    1.390   .     A
C286   H306    1.083   .     S
C286   C293    1.404   .     A
C287   H307    1.083   .     S
C287   C291    1.402   .     A
C288   H308    1.083   .     S
C288   C292    1.402   .     A
C289   H309    1.083   .     S
C289   C292    1.402   .     A
C290   H310    1.083   .     S
C290   C291    1.402   .     A
C293   C780    1.470   1_554 S
C294   C779    1.470   .     S
Cu297  O317    1.957   .     S
Cu297  O315    1.983   .     S
Cu297  O313    1.983   .     S
Cu297  Cu298   2.676   .     S
Cu297  N311    2.011   .     S
Cu297  O319    1.957   .     S
Cu298  O316    1.983   .     S
Cu298  N312    2.011   .     S
Cu298  O318    1.957   .     S
Cu298  O320    1.957   .     S
Cu298  O314    1.983   .     S
C325   O367    1.292   .     A
C325   C350    1.464   .     S
C325   O370    1.295   .     A
C326   O368    1.295   .     A
C326   C349    1.464   .     S
C326   O369    1.292   .     A
C327   O371    1.293   .     A
C327   O374    1.293   .     A
C327   C345    1.460   .     S
C328   C346    1.460   .     S
C328   O373    1.293   .     A
C328   O372    1.293   .     A
C329   H353    1.081   .     S
C329   N366    1.367   .     A
C330   H354    1.081   .     S
C330   N365    1.367   .     A
C330   C7      1.414   1_565 S
C331   H355    1.081   .     S
C331   N366    1.367   .     A
C332   N365    1.367   .     A
C332   H356    1.081   .     S
C332   C5      1.414   1_565 S
C333   C350    1.413   .     A
C333   I375    2.146   .     S
C333   C443    1.389   1_455 S
C334   I376    2.153   .     S
C334   C349    1.417   .     A
C334   C390    1.394   .     S
C335   I377    2.146   .     S
C335   C349    1.413   .     A
C335   C387    1.389   .     S
C336   I378    2.153   .     S
C336   C350    1.417   .     A
C336   C442    1.394   1_455 S
C337   H357    1.083   .     S
C337   C341    1.390   .     A
C337   C347    1.404   .     A
C338   H358    1.083   .     S
C338   C342    1.390   .     A
C338   C348    1.404   .     A
C339   C343    1.390   .     A
C339   C348    1.404   .     A
C339   H359    1.083   .     S
C340   C344    1.390   .     A
C340   H360    1.083   .     S
C340   C347    1.404   .     A
C341   H361    1.083   .     S
C341   C345    1.402   .     A
C342   H362    1.083   .     S
C342   C346    1.402   .     A
C343   H363    1.083   .     S
C343   C346    1.402   .     A
C344   H364    1.083   .     S
C344   C345    1.402   .     A
C347   C834    1.470   1_554 S
C348   C833    1.470   .     S
Cu351  O371    1.957   .     S
Cu351  O369    1.983   .     S
Cu351  O367    1.983   .     S
Cu351  Cu352   2.676   .     S
Cu351  N365    2.011   .     S
Cu351  O373    1.957   .     S
Cu352  O370    1.983   .     S
Cu352  N366    2.011   .     S
Cu352  O372    1.957   .     S
Cu352  O374    1.957   .     S
Cu352  O368    1.983   .     S
C379   O421    1.292   .     A
C379   C404    1.464   .     S
C379   O424    1.295   .     A
C380   O422    1.295   .     A
C380   C403    1.464   .     S
C380   O423    1.292   .     A
C381   O425    1.293   .     A
C381   O428    1.293   .     A
C381   C399    1.460   .     S
C382   C400    1.460   .     S
C382   O427    1.293   .     A
C382   O426    1.293   .     A
C383   H407    1.081   .     S
C383   N420    1.367   .     A
C384   H408    1.081   .     S
C384   N419    1.367   .     A
C384   C61     1.414   1_565 S
C385   H409    1.081   .     S
C385   N420    1.367   .     A
C386   N419    1.367   .     A
C386   H410    1.081   .     S
C386   C59     1.414   1_565 S
C387   C404    1.413   .     A
C387   I429    2.146   .     S
C388   I430    2.153   .     S
C388   C403    1.417   .     A
C388   C444    1.394   .     S
C389   I431    2.146   .     S
C389   C403    1.413   .     A
C389   C441    1.389   .     S
C390   I432    2.153   .     S
C390   C404    1.417   .     A
C391   H411    1.083   .     S
C391   C395    1.390   .     A
C391   C401    1.404   .     A
C392   H412    1.083   .     S
C392   C396    1.390   .     A
C392   C402    1.404   .     A
C393   C397    1.390   .     A
C393   C402    1.404   .     A
C393   H413    1.083   .     S
C394   C398    1.390   .     A
C394   H414    1.083   .     S
C394   C401    1.404   .     A
C395   H415    1.083   .     S
C395   C399    1.402   .     A
C396   H416    1.083   .     S
C396   C400    1.402   .     A
C397   H417    1.083   .     S
C397   C400    1.402   .     A
C398   H418    1.083   .     S
C398   C399    1.402   .     A
C401   C888    1.470   1_554 S
C402   C887    1.470   .     S
Cu405  O425    1.957   .     S
Cu405  O423    1.983   .     S
Cu405  O421    1.983   .     S
Cu405  Cu406   2.676   .     S
Cu405  N419    2.011   .     S
Cu405  O427    1.957   .     S
Cu406  O424    1.983   .     S
Cu406  N420    2.011   .     S
Cu406  O426    1.957   .     S
Cu406  O428    1.957   .     S
Cu406  O422    1.983   .     S
C433   O475    1.292   .     A
C433   C458    1.464   .     S
C433   O478    1.295   .     A
C434   O476    1.295   .     A
C434   C457    1.464   .     S
C434   O477    1.292   .     A
C435   O479    1.293   .     A
C435   O482    1.293   .     A
C435   C453    1.460   .     S
C436   C454    1.460   .     S
C436   O481    1.293   .     A
C436   O480    1.293   .     A
C437   H461    1.081   .     S
C437   N474    1.367   .     A
C438   H462    1.081   .     S
C438   N473    1.367   .     A
C438   C115    1.414   1_565 S
C439   H463    1.081   .     S
C439   N474    1.367   .     A
C440   N473    1.367   .     A
C440   H464    1.081   .     S
C440   C113    1.414   1_565 S
C441   C458    1.413   .     A
C441   I483    2.146   .     S
C442   I484    2.153   .     S
C442   C457    1.417   .     A
C442   C336    1.394   1_655 S
C443   I485    2.146   .     S
C443   C457    1.413   .     A
C443   C333    1.389   1_655 S
C444   I486    2.153   .     S
C444   C458    1.417   .     A
C445   H465    1.083   .     S
C445   C449    1.390   .     A
C445   C455    1.404   .     A
C446   H466    1.083   .     S
C446   C450    1.390   .     A
C446   C456    1.404   .     A
C447   C451    1.390   .     A
C447   C456    1.404   .     A
C447   H467    1.083   .     S
C448   C452    1.390   .     A
C448   H468    1.083   .     S
C448   C455    1.404   .     A
C449   H469    1.083   .     S
C449   C453    1.402   .     A
C450   H470    1.083   .     S
C450   C454    1.402   .     A
C451   H471    1.083   .     S
C451   C454    1.402   .     A
C452   H472    1.083   .     S
C452   C453    1.402   .     A
C455   C942    1.470   1_554 S
C456   C941    1.470   .     S
Cu459  O479    1.957   .     S
Cu459  O477    1.983   .     S
Cu459  O475    1.983   .     S
Cu459  Cu460   2.676   .     S
Cu459  N473    2.011   .     S
Cu459  O481    1.957   .     S
Cu460  O478    1.983   .     S
Cu460  N474    2.011   .     S
Cu460  O480    1.957   .     S
Cu460  O482    1.957   .     S
Cu460  O476    1.983   .     S
C487   O529    1.292   .     A
C487   C512    1.464   .     S
C487   O532    1.295   .     A
C488   O530    1.295   .     A
C488   C511    1.464   .     S
C488   O531    1.292   .     A
C489   O533    1.293   .     A
C489   O536    1.293   .     A
C489   C507    1.460   .     S
C490   C508    1.460   .     S
C490   O535    1.293   .     A
C490   O534    1.293   .     A
C491   H515    1.081   .     S
C491   N528    1.367   .     A
C491   C818    1.414   1_545 S
C492   H516    1.081   .     S
C492   N527    1.367   .     A
C492   C655    1.414   .     S
C493   H517    1.081   .     S
C493   N528    1.367   .     A
C493   C816    1.414   1_545 S
C494   N527    1.367   .     A
C494   H518    1.081   .     S
C494   C653    1.414   .     S
C495   C512    1.413   .     A
C495   I537    2.146   .     S
C495   C605    1.389   1_455 S
C496   I538    2.153   .     S
C496   C511    1.417   .     A
C496   C552    1.394   .     S
C497   I539    2.146   .     S
C497   C511    1.413   .     A
C497   C549    1.389   .     S
C498   I540    2.153   .     S
C498   C512    1.417   .     A
C498   C604    1.394   1_455 S
C499   H519    1.083   .     S
C499   C503    1.390   .     A
C499   C509    1.404   .     A
C500   H520    1.083   .     S
C500   C504    1.390   .     A
C500   C510    1.404   .     A
C501   C505    1.390   .     A
C501   C510    1.404   .     A
C501   H521    1.083   .     S
C502   C506    1.390   .     A
C502   H522    1.083   .     S
C502   C509    1.404   .     A
C503   H523    1.083   .     S
C503   C507    1.402   .     A
C504   H524    1.083   .     S
C504   C508    1.402   .     A
C505   H525    1.083   .     S
C505   C508    1.402   .     A
C506   H526    1.083   .     S
C506   C507    1.402   .     A
C510   C23     1.470   1_556 S
Cu513  O533    1.957   .     S
Cu513  O531    1.983   .     S
Cu513  O529    1.983   .     S
Cu513  Cu514   2.676   .     S
Cu513  N527    2.011   .     S
Cu513  O535    1.957   .     S
Cu514  O532    1.983   .     S
Cu514  N528    2.011   .     S
Cu514  O534    1.957   .     S
Cu514  O536    1.957   .     S
Cu514  O530    1.983   .     S
C541   O583    1.292   .     A
C541   C566    1.464   .     S
C541   O586    1.295   .     A
C542   O584    1.295   .     A
C542   C565    1.464   .     S
C542   O585    1.292   .     A
C543   O587    1.293   .     A
C543   O590    1.293   .     A
C543   C561    1.460   .     S
C544   C562    1.460   .     S
C544   O589    1.293   .     A
C544   O588    1.293   .     A
C545   H569    1.081   .     S
C545   N582    1.367   .     A
C545   C872    1.414   1_545 S
C546   H570    1.081   .     S
C546   N581    1.367   .     A
C546   C709    1.414   .     S
C547   H571    1.081   .     S
C547   N582    1.367   .     A
C547   C870    1.414   1_545 S
C548   N581    1.367   .     A
C548   H572    1.081   .     S
C548   C707    1.414   .     S
C549   C566    1.413   .     A
C549   I591    2.146   .     S
C550   I592    2.153   .     S
C550   C565    1.417   .     A
C550   C606    1.394   .     S
C551   I593    2.146   .     S
C551   C565    1.413   .     A
C551   C603    1.389   .     S
C552   I594    2.153   .     S
C552   C566    1.417   .     A
C553   H573    1.083   .     S
C553   C557    1.390   .     A
C553   C563    1.404   .     A
C554   H574    1.083   .     S
C554   C558    1.390   .     A
C554   C564    1.404   .     A
C555   C559    1.390   .     A
C555   C564    1.404   .     A
C555   H575    1.083   .     S
C556   C560    1.390   .     A
C556   H576    1.083   .     S
C556   C563    1.404   .     A
C557   H577    1.083   .     S
C557   C561    1.402   .     A
C558   H578    1.083   .     S
C558   C562    1.402   .     A
C559   H579    1.083   .     S
C559   C562    1.402   .     A
C560   H580    1.083   .     S
C560   C561    1.402   .     A
C564   C77     1.470   1_556 S
Cu567  O587    1.957   .     S
Cu567  O585    1.983   .     S
Cu567  O583    1.983   .     S
Cu567  Cu568   2.676   .     S
Cu567  N581    2.011   .     S
Cu567  O589    1.957   .     S
Cu568  O586    1.983   .     S
Cu568  N582    2.011   .     S
Cu568  O588    1.957   .     S
Cu568  O590    1.957   .     S
Cu568  O584    1.983   .     S
C595   O637    1.292   .     A
C595   C620    1.464   .     S
C595   O640    1.295   .     A
C596   O638    1.295   .     A
C596   C619    1.464   .     S
C596   O639    1.292   .     A
C597   O641    1.293   .     A
C597   O644    1.293   .     A
C597   C615    1.460   .     S
C598   C616    1.460   .     S
C598   O643    1.293   .     A
C598   O642    1.293   .     A
C599   H623    1.081   .     S
C599   N636    1.367   .     A
C599   C926    1.414   1_545 S
C600   H624    1.081   .     S
C600   N635    1.367   .     A
C600   C763    1.414   .     S
C601   H625    1.081   .     S
C601   N636    1.367   .     A
C601   C924    1.414   1_545 S
C602   N635    1.367   .     A
C602   H626    1.081   .     S
C602   C761    1.414   .     S
C603   C620    1.413   .     A
C603   I645    2.146   .     S
C604   I646    2.153   .     S
C604   C619    1.417   .     A
C604   C498    1.394   1_655 S
C605   I647    2.146   .     S
C605   C619    1.413   .     A
C605   C495    1.389   1_655 S
C606   I648    2.153   .     S
C606   C620    1.417   .     A
C607   H627    1.083   .     S
C607   C611    1.390   .     A
C607   C617    1.404   .     A
C608   H628    1.083   .     S
C608   C612    1.390   .     A
C608   C618    1.404   .     A
C609   C613    1.390   .     A
C609   C618    1.404   .     A
C609   H629    1.083   .     S
C610   C614    1.390   .     A
C610   H630    1.083   .     S
C610   C617    1.404   .     A
C611   H631    1.083   .     S
C611   C615    1.402   .     A
C612   H632    1.083   .     S
C612   C616    1.402   .     A
C613   H633    1.083   .     S
C613   C616    1.402   .     A
C614   H634    1.083   .     S
C614   C615    1.402   .     A
C618   C131    1.470   1_556 S
Cu621  O641    1.957   .     S
Cu621  O639    1.983   .     S
Cu621  O637    1.983   .     S
Cu621  Cu622   2.676   .     S
Cu621  N635    2.011   .     S
Cu621  O643    1.957   .     S
Cu622  O640    1.983   .     S
Cu622  N636    2.011   .     S
Cu622  O642    1.957   .     S
Cu622  O644    1.957   .     S
Cu622  O638    1.983   .     S
C649   O691    1.292   .     A
C649   C674    1.464   .     S
C649   O694    1.295   .     A
C650   O692    1.295   .     A
C650   C673    1.464   .     S
C650   O693    1.292   .     A
C651   O695    1.293   .     A
C651   O698    1.293   .     A
C651   C669    1.460   .     S
C652   C670    1.460   .     S
C652   O697    1.293   .     A
C652   O696    1.293   .     A
C653   H677    1.081   .     S
C653   N690    1.367   .     A
C654   H678    1.081   .     S
C654   N689    1.367   .     A
C654   C817    1.414   .     S
C655   H679    1.081   .     S
C655   N690    1.367   .     A
C656   N689    1.367   .     A
C656   H680    1.081   .     S
C656   C815    1.414   .     S
C657   C674    1.413   .     A
C657   I699    2.146   .     S
C657   C767    1.389   1_455 S
C658   I700    2.153   .     S
C658   C673    1.417   .     A
C658   C714    1.394   .     S
C659   I701    2.146   .     S
C659   C673    1.413   .     A
C659   C711    1.389   .     S
C660   I702    2.153   .     S
C660   C674    1.417   .     A
C660   C766    1.394   1_455 S
C661   H681    1.083   .     S
C661   C665    1.390   .     A
C661   C671    1.404   .     A
C662   H682    1.083   .     S
C662   C666    1.390   .     A
C662   C672    1.404   .     A
C663   C667    1.390   .     A
C663   C672    1.404   .     A
C663   H683    1.083   .     S
C664   C668    1.390   .     A
C664   H684    1.083   .     S
C664   C671    1.404   .     A
C665   H685    1.083   .     S
C665   C669    1.402   .     A
C666   H686    1.083   .     S
C666   C670    1.402   .     A
C667   H687    1.083   .     S
C667   C670    1.402   .     A
C668   H688    1.083   .     S
C668   C669    1.402   .     A
C672   C185    1.470   1_556 S
Cu675  O695    1.957   .     S
Cu675  O693    1.983   .     S
Cu675  O691    1.983   .     S
Cu675  Cu676   2.676   .     S
Cu675  N689    2.011   .     S
Cu675  O697    1.957   .     S
Cu676  O694    1.983   .     S
Cu676  N690    2.011   .     S
Cu676  O696    1.957   .     S
Cu676  O698    1.957   .     S
Cu676  O692    1.983   .     S
C703   O745    1.292   .     A
C703   C728    1.464   .     S
C703   O748    1.295   .     A
C704   O746    1.295   .     A
C704   C727    1.464   .     S
C704   O747    1.292   .     A
C705   O749    1.293   .     A
C705   O752    1.293   .     A
C705   C723    1.460   .     S
C706   C724    1.460   .     S
C706   O751    1.293   .     A
C706   O750    1.293   .     A
C707   H731    1.081   .     S
C707   N744    1.367   .     A
C708   H732    1.081   .     S
C708   N743    1.367   .     A
C708   C871    1.414   .     S
C709   H733    1.081   .     S
C709   N744    1.367   .     A
C710   N743    1.367   .     A
C710   H734    1.081   .     S
C710   C869    1.414   .     S
C711   C728    1.413   .     A
C711   I753    2.146   .     S
C712   I754    2.153   .     S
C712   C727    1.417   .     A
C712   C768    1.394   .     S
C713   I755    2.146   .     S
C713   C727    1.413   .     A
C713   C765    1.389   .     S
C714   I756    2.153   .     S
C714   C728    1.417   .     A
C715   H735    1.083   .     S
C715   C719    1.390   .     A
C715   C725    1.404   .     A
C716   H736    1.083   .     S
C716   C720    1.390   .     A
C716   C726    1.404   .     A
C717   C721    1.390   .     A
C717   C726    1.404   .     A
C717   H737    1.083   .     S
C718   C722    1.390   .     A
C718   H738    1.083   .     S
C718   C725    1.404   .     A
C719   H739    1.083   .     S
C719   C723    1.402   .     A
C720   H740    1.083   .     S
C720   C724    1.402   .     A
C721   H741    1.083   .     S
C721   C724    1.402   .     A
C722   H742    1.083   .     S
C722   C723    1.402   .     A
C726   C239    1.470   1_556 S
Cu729  O749    1.957   .     S
Cu729  O747    1.983   .     S
Cu729  O745    1.983   .     S
Cu729  Cu730   2.676   .     S
Cu729  N743    2.011   .     S
Cu729  O751    1.957   .     S
Cu730  O748    1.983   .     S
Cu730  N744    2.011   .     S
Cu730  O750    1.957   .     S
Cu730  O752    1.957   .     S
Cu730  O746    1.983   .     S
C757   O799    1.292   .     A
C757   C782    1.464   .     S
C757   O802    1.295   .     A
C758   O800    1.295   .     A
C758   C781    1.464   .     S
C758   O801    1.292   .     A
C759   O803    1.293   .     A
C759   O806    1.293   .     A
C759   C777    1.460   .     S
C760   C778    1.460   .     S
C760   O805    1.293   .     A
C760   O804    1.293   .     A
C761   H785    1.081   .     S
C761   N798    1.367   .     A
C762   H786    1.081   .     S
C762   N797    1.367   .     A
C762   C925    1.414   .     S
C763   H787    1.081   .     S
C763   N798    1.367   .     A
C764   N797    1.367   .     A
C764   H788    1.081   .     S
C764   C923    1.414   .     S
C765   C782    1.413   .     A
C765   I807    2.146   .     S
C766   I808    2.153   .     S
C766   C781    1.417   .     A
C766   C660    1.394   1_655 S
C767   I809    2.146   .     S
C767   C781    1.413   .     A
C767   C657    1.389   1_655 S
C768   I810    2.153   .     S
C768   C782    1.417   .     A
C769   H789    1.083   .     S
C769   C773    1.390   .     A
C769   C779    1.404   .     A
C770   H790    1.083   .     S
C770   C774    1.390   .     A
C770   C780    1.404   .     A
C771   C775    1.390   .     A
C771   C780    1.404   .     A
C771   H791    1.083   .     S
C772   C776    1.390   .     A
C772   H792    1.083   .     S
C772   C779    1.404   .     A
C773   H793    1.083   .     S
C773   C777    1.402   .     A
C774   H794    1.083   .     S
C774   C778    1.402   .     A
C775   H795    1.083   .     S
C775   C778    1.402   .     A
C776   H796    1.083   .     S
C776   C777    1.402   .     A
C780   C293    1.470   1_556 S
Cu783  O803    1.957   .     S
Cu783  O801    1.983   .     S
Cu783  O799    1.983   .     S
Cu783  Cu784   2.676   .     S
Cu783  N797    2.011   .     S
Cu783  O805    1.957   .     S
Cu784  O802    1.983   .     S
Cu784  N798    2.011   .     S
Cu784  O804    1.957   .     S
Cu784  O806    1.957   .     S
Cu784  O800    1.983   .     S
C811   O853    1.292   .     A
C811   C836    1.464   .     S
C811   O856    1.295   .     A
C812   O854    1.295   .     A
C812   C835    1.464   .     S
C812   O855    1.292   .     A
C813   O857    1.293   .     A
C813   O860    1.293   .     A
C813   C831    1.460   .     S
C814   C832    1.460   .     S
C814   O859    1.293   .     A
C814   O858    1.293   .     A
C815   H839    1.081   .     S
C815   N852    1.367   .     A
C816   H840    1.081   .     S
C816   N851    1.367   .     A
C816   C493    1.414   1_565 S
C817   H841    1.081   .     S
C817   N852    1.367   .     A
C818   N851    1.367   .     A
C818   H842    1.081   .     S
C818   C491    1.414   1_565 S
C819   C836    1.413   .     A
C819   I861    2.146   .     S
C819   C929    1.389   1_455 S
C820   I862    2.153   .     S
C820   C835    1.417   .     A
C820   C876    1.394   .     S
C821   I863    2.146   .     S
C821   C835    1.413   .     A
C821   C873    1.389   .     S
C822   I864    2.153   .     S
C822   C836    1.417   .     A
C822   C928    1.394   1_455 S
C823   H843    1.083   .     S
C823   C827    1.390   .     A
C823   C833    1.404   .     A
C824   H844    1.083   .     S
C824   C828    1.390   .     A
C824   C834    1.404   .     A
C825   C829    1.390   .     A
C825   C834    1.404   .     A
C825   H845    1.083   .     S
C826   C830    1.390   .     A
C826   H846    1.083   .     S
C826   C833    1.404   .     A
C827   H847    1.083   .     S
C827   C831    1.402   .     A
C828   H848    1.083   .     S
C828   C832    1.402   .     A
C829   H849    1.083   .     S
C829   C832    1.402   .     A
C830   H850    1.083   .     S
C830   C831    1.402   .     A
C834   C347    1.470   1_556 S
Cu837  O857    1.957   .     S
Cu837  O855    1.983   .     S
Cu837  O853    1.983   .     S
Cu837  Cu838   2.676   .     S
Cu837  N851    2.011   .     S
Cu837  O859    1.957   .     S
Cu838  O856    1.983   .     S
Cu838  N852    2.011   .     S
Cu838  O858    1.957   .     S
Cu838  O860    1.957   .     S
Cu838  O854    1.983   .     S
C865   O907    1.292   .     A
C865   C890    1.464   .     S
C865   O910    1.295   .     A
C866   O908    1.295   .     A
C866   C889    1.464   .     S
C866   O909    1.292   .     A
C867   O911    1.293   .     A
C867   O914    1.293   .     A
C867   C885    1.460   .     S
C868   C886    1.460   .     S
C868   O913    1.293   .     A
C868   O912    1.293   .     A
C869   H893    1.081   .     S
C869   N906    1.367   .     A
C870   H894    1.081   .     S
C870   N905    1.367   .     A
C870   C547    1.414   1_565 S
C871   H895    1.081   .     S
C871   N906    1.367   .     A
C872   N905    1.367   .     A
C872   H896    1.081   .     S
C872   C545    1.414   1_565 S
C873   C890    1.413   .     A
C873   I915    2.146   .     S
C874   I916    2.153   .     S
C874   C889    1.417   .     A
C874   C930    1.394   .     S
C875   I917    2.146   .     S
C875   C889    1.413   .     A
C875   C927    1.389   .     S
C876   I918    2.153   .     S
C876   C890    1.417   .     A
C877   H897    1.083   .     S
C877   C881    1.390   .     A
C877   C887    1.404   .     A
C878   H898    1.083   .     S
C878   C882    1.390   .     A
C878   C888    1.404   .     A
C879   C883    1.390   .     A
C879   C888    1.404   .     A
C879   H899    1.083   .     S
C880   C884    1.390   .     A
C880   H900    1.083   .     S
C880   C887    1.404   .     A
C881   H901    1.083   .     S
C881   C885    1.402   .     A
C882   H902    1.083   .     S
C882   C886    1.402   .     A
C883   H903    1.083   .     S
C883   C886    1.402   .     A
C884   H904    1.083   .     S
C884   C885    1.402   .     A
C888   C401    1.470   1_556 S
Cu891  O911    1.957   .     S
Cu891  O909    1.983   .     S
Cu891  O907    1.983   .     S
Cu891  Cu892   2.676   .     S
Cu891  N905    2.011   .     S
Cu891  O913    1.957   .     S
Cu892  O910    1.983   .     S
Cu892  N906    2.011   .     S
Cu892  O912    1.957   .     S
Cu892  O914    1.957   .     S
Cu892  O908    1.983   .     S
C919   O961    1.292   .     A
C919   C944    1.464   .     S
C919   O964    1.295   .     A
C920   O962    1.295   .     A
C920   C943    1.464   .     S
C920   O963    1.292   .     A
C921   O965    1.293   .     A
C921   O968    1.293   .     A
C921   C939    1.460   .     S
C922   C940    1.460   .     S
C922   O967    1.293   .     A
C922   O966    1.293   .     A
C923   H947    1.081   .     S
C923   N960    1.367   .     A
C924   H948    1.081   .     S
C924   N959    1.367   .     A
C924   C601    1.414   1_565 S
C925   H949    1.081   .     S
C925   N960    1.367   .     A
C926   N959    1.367   .     A
C926   H950    1.081   .     S
C926   C599    1.414   1_565 S
C927   C944    1.413   .     A
C927   I969    2.146   .     S
C928   I970    2.153   .     S
C928   C943    1.417   .     A
C928   C822    1.394   1_655 S
C929   I971    2.146   .     S
C929   C943    1.413   .     A
C929   C819    1.389   1_655 S
C930   I972    2.153   .     S
C930   C944    1.417   .     A
C931   H951    1.083   .     S
C931   C935    1.390   .     A
C931   C941    1.404   .     A
C932   H952    1.083   .     S
C932   C936    1.390   .     A
C932   C942    1.404   .     A
C933   C937    1.390   .     A
C933   C942    1.404   .     A
C933   H953    1.083   .     S
C934   C938    1.390   .     A
C934   H954    1.083   .     S
C934   C941    1.404   .     A
C935   H955    1.083   .     S
C935   C939    1.402   .     A
C936   H956    1.083   .     S
C936   C940    1.402   .     A
C937   H957    1.083   .     S
C937   C940    1.402   .     A
C938   H958    1.083   .     S
C938   C939    1.402   .     A
C942   C455    1.470   1_556 S
Cu945  O965    1.957   .     S
Cu945  O963    1.983   .     S
Cu945  O961    1.983   .     S
Cu945  Cu946   2.676   .     S
Cu945  N959    2.011   .     S
Cu945  O967    1.957   .     S
Cu946  O964    1.983   .     S
Cu946  N960    2.011   .     S
Cu946  O966    1.957   .     S
Cu946  O968    1.957   .     S
Cu946  O962    1.983   .     S
