data_str_m3_o1_o16_pcu_sym.230
_audit_creation_date              2020-01-03
_audit_creation_method            'Materials Studio'
_symmetry_space_group_name_H-M    'P1'
_symmetry_Int_Tables_number       1
_symmetry_cell_setting            triclinic
loop_
_symmetry_equiv_pos_as_xyz
  x,y,z
_cell_length_a                    29.6373
_cell_length_b                    31.9714
_cell_length_c                    26.1604
_cell_angle_alpha                 90.9775
_cell_angle_beta                  69.9055
_cell_angle_gamma                 90.1230
loop_
_atom_site_label
_atom_site_type_symbol
_atom_site_fract_x
_atom_site_fract_y
_atom_site_fract_z
_atom_site_U_iso_or_equiv
_atom_site_adp_type
_atom_site_occupancy
C1     C     0.16653   0.24643   0.25057   0.00000  Uiso   1.00
C2     C     0.14381   0.15617   0.49211   0.00000  Uiso   1.00
C3     C     0.15398   0.14539   0.43714   0.00000  Uiso   1.00
C4     C     0.18153   0.15411   0.01361   0.00000  Uiso   1.00
C5     C     0.22420   0.13113   0.48479   0.00000  Uiso   1.00
C6     C     0.22982   0.11357   0.43327   0.00000  Uiso   1.00
C7     C     0.19516   0.12117   0.40976   0.00000  Uiso   1.00
C8     C     0.17903   0.17530   0.06201   0.00000  Uiso   1.00
C9     C     0.25229   0.14143   0.06087   0.00000  Uiso   1.00
C10    C     0.12245   0.15930   0.41107   0.00000  Uiso   1.00
C11    C     0.19944   0.31085   0.20608   0.00000  Uiso   1.00
C12    C     0.13996   0.16426   0.35208   0.00000  Uiso   1.00
C13    C     0.19982   0.02080   0.20606   0.00000  Uiso   1.00
C14    C     0.16678   0.04263   0.25012   0.00000  Uiso   1.00
C15    C     0.13424   0.02231   0.29493   0.00000  Uiso   1.00
C16    C     0.13404   0.31230   0.29508   0.00000  Uiso   1.00
C17    C     0.16658   0.29058   0.25056   0.00000  Uiso   1.00
C18    C     0.31930   0.14020   0.21633   0.00000  Uiso   1.00
C19    C     0.03385   0.14010   0.21625   0.00000  Uiso   1.00
C20    C     0.01401   0.19308   0.28375   0.00000  Uiso   1.00
C21    C     0.29947   0.19320   0.28380   0.00000  Uiso   1.00
C22    C     0.16674   0.08685   0.24973   0.00000  Uiso   1.00
C23    C     0.19344   0.16740   0.14779   0.00000  Uiso   1.00
C24    C     0.26001   0.12637   0.00840   0.00000  Uiso   1.00
C25    C     0.21036   0.16378   0.08873   0.00000  Uiso   1.00
C26    C     0.07592   0.17274   0.44228   0.00000  Uiso   1.00
C27    C     0.06213   0.17471   0.49872   0.00000  Uiso   1.00
C28    C     0.09595   0.16723   0.02363   0.00000  Uiso   1.00
H29    H     0.08393   0.16908   0.06757   0.00000  Uiso   1.00
N30    N     0.04760   0.16668   0.25001   0.00000  Uiso   1.00
N31    N     0.28573   0.16665   0.25001   0.00000  Uiso   1.00
O32    O     0.12846   0.22775   0.25001   0.00000  Uiso   1.00
O33    O     0.20490   0.22774   0.25001   0.00000  Uiso   1.00
O34    O     0.10947   0.16666   0.32681   0.00000  Uiso   1.00
O35    O     0.18591   0.16665   0.32681   0.00000  Uiso   1.00
O36    O     0.12843   0.10559   0.25000   0.00000  Uiso   1.00
O37    O     0.20488   0.10558   0.25000   0.00000  Uiso   1.00
O38    O     0.14742   0.16668   0.17319   0.00000  Uiso   1.00
O39    O     0.22387   0.16667   0.17319   0.00000  Uiso   1.00
Zn40   Zn    0.11562   0.16667   0.25000   0.00000  Uiso   1.00
Zn41   Zn    0.21771   0.16666   0.25000   0.00000  Uiso   1.00
H42    H     0.27814   0.13429   0.08035   0.00000  Uiso   1.00
C43    C     0.23382   0.04257   0.16080   0.00000  Uiso   1.00
N44    N     0.26123   0.05954   0.12465   0.00000  Uiso   1.00
C45    C     0.10280   0.04592   0.34152   0.00000  Uiso   1.00
N46    N     0.07792   0.06474   0.37866   0.00000  Uiso   1.00
C47    C     0.10156   0.29013   0.34125   0.00000  Uiso   1.00
N48    N     0.07574   0.27245   0.37796   0.00000  Uiso   1.00
H49    H     0.30892   0.11915   0.18946   0.00000  Uiso   1.00
C50    C     0.06792   0.11155   0.18001   0.00000  Uiso   1.00
N51    N     0.09520   0.08854   0.15071   0.00000  Uiso   1.00
H52    H     0.02438   0.21413   0.31062   0.00000  Uiso   1.00
C53    C     0.26542   0.22180   0.31995   0.00000  Uiso   1.00
N54    N     0.23815   0.24487   0.34915   0.00000  Uiso   1.00
C55    C     0.27140   0.08887   0.40251   0.00000  Uiso   1.00
N56    N     0.30460   0.06910   0.37772   0.00000  Uiso   1.00
H57    H     0.29290   0.10924   0.48775   0.00000  Uiso   1.00
C58    C     0.14929   0.21233   0.08152   0.00000  Uiso   1.00
N59    N     0.12580   0.24190   0.09717   0.00000  Uiso   1.00
H60    H     0.05057   0.18221   0.42310   0.00000  Uiso   1.00
H61    H     0.02581   0.18378   0.02305   0.00000  Uiso   1.00
H62    H     0.20006   0.10702   0.37027   0.00000  Uiso   1.00
C63    C     0.23173   0.28721   0.16000   0.00000  Uiso   1.00
N64    N     0.25736   0.26838   0.12337   0.00000  Uiso   1.00
C65    C     0.49986   0.24643   0.25057   0.00000  Uiso   1.00
C66    C     0.47715   0.15617   0.49211   0.00000  Uiso   1.00
C67    C     0.48731   0.14539   0.43714   0.00000  Uiso   1.00
C68    C     0.51486   0.15411   0.01361   0.00000  Uiso   1.00
C69    C     0.55754   0.13113   0.48479   0.00000  Uiso   1.00
C70    C     0.56315   0.11357   0.43327   0.00000  Uiso   1.00
C71    C     0.52850   0.12117   0.40976   0.00000  Uiso   1.00
C72    C     0.51237   0.17530   0.06201   0.00000  Uiso   1.00
C73    C     0.58563   0.14143   0.06087   0.00000  Uiso   1.00
C74    C     0.45578   0.15930   0.41107   0.00000  Uiso   1.00
C75    C     0.53278   0.31085   0.20608   0.00000  Uiso   1.00
C76    C     0.47329   0.16426   0.35208   0.00000  Uiso   1.00
C77    C     0.53315   0.02080   0.20606   0.00000  Uiso   1.00
C78    C     0.50012   0.04263   0.25012   0.00000  Uiso   1.00
C79    C     0.46758   0.02231   0.29493   0.00000  Uiso   1.00
C80    C     0.46737   0.31230   0.29508   0.00000  Uiso   1.00
C81    C     0.49991   0.29058   0.25056   0.00000  Uiso   1.00
C82    C     0.65263   0.14020   0.21633   0.00000  Uiso   1.00
C83    C     0.36718   0.14010   0.21625   0.00000  Uiso   1.00
C84    C     0.34734   0.19308   0.28375   0.00000  Uiso   1.00
C85    C     0.63280   0.19320   0.28380   0.00000  Uiso   1.00
C86    C     0.50008   0.08685   0.24973   0.00000  Uiso   1.00
C87    C     0.52677   0.16740   0.14779   0.00000  Uiso   1.00
C88    C     0.59335   0.12637   0.00840   0.00000  Uiso   1.00
C89    C     0.54369   0.16378   0.08873   0.00000  Uiso   1.00
C90    C     0.40926   0.17274   0.44228   0.00000  Uiso   1.00
C91    C     0.39546   0.17471   0.49872   0.00000  Uiso   1.00
C92    C     0.42928   0.16723   0.02363   0.00000  Uiso   1.00
H93    H     0.41726   0.16908   0.06757   0.00000  Uiso   1.00
N94    N     0.38093   0.16668   0.25001   0.00000  Uiso   1.00
N95    N     0.61906   0.16665   0.25001   0.00000  Uiso   1.00
O96    O     0.46179   0.22775   0.25001   0.00000  Uiso   1.00
O97    O     0.53823   0.22774   0.25001   0.00000  Uiso   1.00
O98    O     0.44280   0.16666   0.32681   0.00000  Uiso   1.00
O99    O     0.51924   0.16665   0.32681   0.00000  Uiso   1.00
O100   O     0.46177   0.10559   0.25000   0.00000  Uiso   1.00
O101   O     0.53821   0.10558   0.25000   0.00000  Uiso   1.00
O102   O     0.48076   0.16668   0.17319   0.00000  Uiso   1.00
O103   O     0.55720   0.16667   0.17319   0.00000  Uiso   1.00
Zn104  Zn    0.44896   0.16667   0.25000   0.00000  Uiso   1.00
Zn105  Zn    0.55104   0.16666   0.25000   0.00000  Uiso   1.00
H106   H     0.61147   0.13429   0.08035   0.00000  Uiso   1.00
C107   C     0.56715   0.04257   0.16080   0.00000  Uiso   1.00
N108   N     0.59456   0.05954   0.12465   0.00000  Uiso   1.00
C109   C     0.43613   0.04592   0.34152   0.00000  Uiso   1.00
N110   N     0.41125   0.06474   0.37866   0.00000  Uiso   1.00
C111   C     0.43490   0.29013   0.34125   0.00000  Uiso   1.00
N112   N     0.40907   0.27245   0.37796   0.00000  Uiso   1.00
H113   H     0.64226   0.11915   0.18946   0.00000  Uiso   1.00
C114   C     0.40125   0.11155   0.18001   0.00000  Uiso   1.00
N115   N     0.42853   0.08854   0.15071   0.00000  Uiso   1.00
H116   H     0.35772   0.21413   0.31062   0.00000  Uiso   1.00
C117   C     0.59875   0.22180   0.31995   0.00000  Uiso   1.00
N118   N     0.57148   0.24487   0.34915   0.00000  Uiso   1.00
C119   C     0.60473   0.08887   0.40251   0.00000  Uiso   1.00
N120   N     0.63794   0.06910   0.37772   0.00000  Uiso   1.00
H121   H     0.62624   0.10924   0.48775   0.00000  Uiso   1.00
C122   C     0.48262   0.21233   0.08152   0.00000  Uiso   1.00
N123   N     0.45913   0.24190   0.09717   0.00000  Uiso   1.00
H124   H     0.38390   0.18221   0.42310   0.00000  Uiso   1.00
H125   H     0.35914   0.18378   0.02305   0.00000  Uiso   1.00
H126   H     0.53340   0.10702   0.37027   0.00000  Uiso   1.00
C127   C     0.56507   0.28721   0.16000   0.00000  Uiso   1.00
N128   N     0.59070   0.26838   0.12337   0.00000  Uiso   1.00
C129   C     0.83319   0.24643   0.25057   0.00000  Uiso   1.00
C130   C     0.81048   0.15617   0.49211   0.00000  Uiso   1.00
C131   C     0.82064   0.14539   0.43714   0.00000  Uiso   1.00
C132   C     0.84820   0.15411   0.01361   0.00000  Uiso   1.00
C133   C     0.89087   0.13113   0.48479   0.00000  Uiso   1.00
C134   C     0.89648   0.11357   0.43327   0.00000  Uiso   1.00
C135   C     0.86183   0.12117   0.40976   0.00000  Uiso   1.00
C136   C     0.84570   0.17530   0.06201   0.00000  Uiso   1.00
C137   C     0.91896   0.14143   0.06087   0.00000  Uiso   1.00
C138   C     0.78911   0.15930   0.41107   0.00000  Uiso   1.00
C139   C     0.86611   0.31085   0.20608   0.00000  Uiso   1.00
C140   C     0.80662   0.16426   0.35208   0.00000  Uiso   1.00
C141   C     0.86648   0.02080   0.20606   0.00000  Uiso   1.00
C142   C     0.83345   0.04263   0.25012   0.00000  Uiso   1.00
C143   C     0.80091   0.02231   0.29493   0.00000  Uiso   1.00
C144   C     0.80071   0.31230   0.29508   0.00000  Uiso   1.00
C145   C     0.83325   0.29058   0.25056   0.00000  Uiso   1.00
C146   C     0.98596   0.14020   0.21633   0.00000  Uiso   1.00
C147   C     0.70051   0.14010   0.21625   0.00000  Uiso   1.00
C148   C     0.68068   0.19308   0.28375   0.00000  Uiso   1.00
C149   C     0.96613   0.19320   0.28380   0.00000  Uiso   1.00
C150   C     0.83341   0.08685   0.24973   0.00000  Uiso   1.00
C151   C     0.86010   0.16740   0.14779   0.00000  Uiso   1.00
C152   C     0.92668   0.12637   0.00840   0.00000  Uiso   1.00
C153   C     0.87702   0.16378   0.08873   0.00000  Uiso   1.00
C154   C     0.74259   0.17274   0.44228   0.00000  Uiso   1.00
C155   C     0.72879   0.17471   0.49872   0.00000  Uiso   1.00
C156   C     0.76262   0.16723   0.02363   0.00000  Uiso   1.00
H157   H     0.75059   0.16908   0.06757   0.00000  Uiso   1.00
N158   N     0.71426   0.16668   0.25001   0.00000  Uiso   1.00
N159   N     0.95239   0.16665   0.25001   0.00000  Uiso   1.00
O160   O     0.79512   0.22775   0.25001   0.00000  Uiso   1.00
O161   O     0.87157   0.22774   0.25001   0.00000  Uiso   1.00
O162   O     0.77613   0.16666   0.32681   0.00000  Uiso   1.00
O163   O     0.85258   0.16665   0.32681   0.00000  Uiso   1.00
O164   O     0.79510   0.10559   0.25000   0.00000  Uiso   1.00
O165   O     0.87154   0.10558   0.25000   0.00000  Uiso   1.00
O166   O     0.81409   0.16668   0.17319   0.00000  Uiso   1.00
O167   O     0.89053   0.16667   0.17319   0.00000  Uiso   1.00
Zn168  Zn    0.78229   0.16667   0.25000   0.00000  Uiso   1.00
Zn169  Zn    0.88438   0.16666   0.25000   0.00000  Uiso   1.00
H170   H     0.94481   0.13429   0.08035   0.00000  Uiso   1.00
C171   C     0.90048   0.04257   0.16080   0.00000  Uiso   1.00
N172   N     0.92789   0.05954   0.12465   0.00000  Uiso   1.00
C173   C     0.76946   0.04592   0.34152   0.00000  Uiso   1.00
N174   N     0.74459   0.06474   0.37866   0.00000  Uiso   1.00
C175   C     0.76823   0.29013   0.34125   0.00000  Uiso   1.00
N176   N     0.74240   0.27245   0.37796   0.00000  Uiso   1.00
H177   H     0.97559   0.11915   0.18946   0.00000  Uiso   1.00
C178   C     0.73459   0.11155   0.18001   0.00000  Uiso   1.00
N179   N     0.76187   0.08854   0.15071   0.00000  Uiso   1.00
H180   H     0.69105   0.21413   0.31062   0.00000  Uiso   1.00
C181   C     0.93208   0.22180   0.31995   0.00000  Uiso   1.00
N182   N     0.90482   0.24487   0.34915   0.00000  Uiso   1.00
C183   C     0.93806   0.08887   0.40251   0.00000  Uiso   1.00
N184   N     0.97127   0.06910   0.37772   0.00000  Uiso   1.00
H185   H     0.95957   0.10924   0.48775   0.00000  Uiso   1.00
C186   C     0.81596   0.21233   0.08152   0.00000  Uiso   1.00
N187   N     0.79246   0.24190   0.09717   0.00000  Uiso   1.00
H188   H     0.71723   0.18221   0.42310   0.00000  Uiso   1.00
H189   H     0.69247   0.18378   0.02305   0.00000  Uiso   1.00
H190   H     0.86673   0.10702   0.37027   0.00000  Uiso   1.00
C191   C     0.89840   0.28721   0.16000   0.00000  Uiso   1.00
N192   N     0.92403   0.26838   0.12337   0.00000  Uiso   1.00
C193   C     0.16653   0.57976   0.25057   0.00000  Uiso   1.00
C194   C     0.14381   0.48950   0.49211   0.00000  Uiso   1.00
C195   C     0.15398   0.47873   0.43714   0.00000  Uiso   1.00
C196   C     0.18153   0.48745   0.01361   0.00000  Uiso   1.00
C197   C     0.22420   0.46446   0.48479   0.00000  Uiso   1.00
C198   C     0.22982   0.44690   0.43327   0.00000  Uiso   1.00
C199   C     0.19516   0.45450   0.40976   0.00000  Uiso   1.00
C200   C     0.17903   0.50863   0.06201   0.00000  Uiso   1.00
C201   C     0.25229   0.47476   0.06087   0.00000  Uiso   1.00
C202   C     0.12245   0.49263   0.41107   0.00000  Uiso   1.00
C203   C     0.19944   0.64418   0.20608   0.00000  Uiso   1.00
C204   C     0.13996   0.49759   0.35208   0.00000  Uiso   1.00
C205   C     0.19982   0.35413   0.20606   0.00000  Uiso   1.00
C206   C     0.16678   0.37596   0.25012   0.00000  Uiso   1.00
C207   C     0.13424   0.35565   0.29493   0.00000  Uiso   1.00
C208   C     0.13404   0.64563   0.29508   0.00000  Uiso   1.00
C209   C     0.16658   0.62391   0.25056   0.00000  Uiso   1.00
C210   C     0.31930   0.47354   0.21633   0.00000  Uiso   1.00
C211   C     0.03385   0.47343   0.21625   0.00000  Uiso   1.00
C212   C     0.01401   0.52641   0.28375   0.00000  Uiso   1.00
C213   C     0.29947   0.52653   0.28380   0.00000  Uiso   1.00
C214   C     0.16674   0.42019   0.24973   0.00000  Uiso   1.00
C215   C     0.19344   0.50074   0.14779   0.00000  Uiso   1.00
C216   C     0.26001   0.45971   0.00840   0.00000  Uiso   1.00
C217   C     0.21036   0.49711   0.08873   0.00000  Uiso   1.00
C218   C     0.07592   0.50607   0.44228   0.00000  Uiso   1.00
C219   C     0.06213   0.50804   0.49872   0.00000  Uiso   1.00
C220   C     0.09595   0.50056   0.02363   0.00000  Uiso   1.00
H221   H     0.08393   0.50242   0.06757   0.00000  Uiso   1.00
N222   N     0.04760   0.50001   0.25001   0.00000  Uiso   1.00
N223   N     0.28573   0.49998   0.25001   0.00000  Uiso   1.00
O224   O     0.12846   0.56108   0.25001   0.00000  Uiso   1.00
O225   O     0.20490   0.56107   0.25001   0.00000  Uiso   1.00
O226   O     0.10947   0.50000   0.32681   0.00000  Uiso   1.00
O227   O     0.18591   0.49999   0.32681   0.00000  Uiso   1.00
O228   O     0.12843   0.43893   0.25000   0.00000  Uiso   1.00
O229   O     0.20488   0.43892   0.25000   0.00000  Uiso   1.00
O230   O     0.14742   0.50001   0.17319   0.00000  Uiso   1.00
O231   O     0.22387   0.50000   0.17319   0.00000  Uiso   1.00
Zn232  Zn    0.11562   0.50001   0.25000   0.00000  Uiso   1.00
Zn233  Zn    0.21771   0.49999   0.25000   0.00000  Uiso   1.00
H234   H     0.27814   0.46763   0.08035   0.00000  Uiso   1.00
C235   C     0.23382   0.37590   0.16080   0.00000  Uiso   1.00
N236   N     0.26123   0.39288   0.12465   0.00000  Uiso   1.00
C237   C     0.10280   0.37926   0.34152   0.00000  Uiso   1.00
N238   N     0.07792   0.39807   0.37866   0.00000  Uiso   1.00
C239   C     0.10156   0.62346   0.34125   0.00000  Uiso   1.00
N240   N     0.07574   0.60578   0.37796   0.00000  Uiso   1.00
H241   H     0.30892   0.45249   0.18946   0.00000  Uiso   1.00
C242   C     0.06792   0.44489   0.18001   0.00000  Uiso   1.00
N243   N     0.09520   0.42187   0.15071   0.00000  Uiso   1.00
H244   H     0.02438   0.54746   0.31062   0.00000  Uiso   1.00
C245   C     0.26542   0.55513   0.31995   0.00000  Uiso   1.00
N246   N     0.23815   0.57820   0.34915   0.00000  Uiso   1.00
C247   C     0.27140   0.42221   0.40251   0.00000  Uiso   1.00
N248   N     0.30460   0.40244   0.37772   0.00000  Uiso   1.00
H249   H     0.29290   0.44258   0.48775   0.00000  Uiso   1.00
C250   C     0.14929   0.54567   0.08152   0.00000  Uiso   1.00
N251   N     0.12580   0.57524   0.09717   0.00000  Uiso   1.00
H252   H     0.05057   0.51554   0.42310   0.00000  Uiso   1.00
H253   H     0.02581   0.51712   0.02305   0.00000  Uiso   1.00
H254   H     0.20006   0.44035   0.37027   0.00000  Uiso   1.00
C255   C     0.23173   0.62055   0.16000   0.00000  Uiso   1.00
N256   N     0.25736   0.60171   0.12337   0.00000  Uiso   1.00
C257   C     0.49986   0.57976   0.25057   0.00000  Uiso   1.00
C258   C     0.47715   0.48950   0.49211   0.00000  Uiso   1.00
C259   C     0.48731   0.47873   0.43714   0.00000  Uiso   1.00
C260   C     0.51486   0.48745   0.01361   0.00000  Uiso   1.00
C261   C     0.55754   0.46446   0.48479   0.00000  Uiso   1.00
C262   C     0.56315   0.44690   0.43327   0.00000  Uiso   1.00
C263   C     0.52850   0.45450   0.40976   0.00000  Uiso   1.00
C264   C     0.51237   0.50863   0.06201   0.00000  Uiso   1.00
C265   C     0.58563   0.47476   0.06087   0.00000  Uiso   1.00
C266   C     0.45578   0.49263   0.41107   0.00000  Uiso   1.00
C267   C     0.53278   0.64418   0.20608   0.00000  Uiso   1.00
C268   C     0.47329   0.49759   0.35208   0.00000  Uiso   1.00
C269   C     0.53315   0.35413   0.20606   0.00000  Uiso   1.00
C270   C     0.50012   0.37596   0.25012   0.00000  Uiso   1.00
C271   C     0.46758   0.35565   0.29493   0.00000  Uiso   1.00
C272   C     0.46737   0.64563   0.29508   0.00000  Uiso   1.00
C273   C     0.49991   0.62391   0.25056   0.00000  Uiso   1.00
C274   C     0.65263   0.47354   0.21633   0.00000  Uiso   1.00
C275   C     0.36718   0.47343   0.21625   0.00000  Uiso   1.00
C276   C     0.34734   0.52641   0.28375   0.00000  Uiso   1.00
C277   C     0.63280   0.52653   0.28380   0.00000  Uiso   1.00
C278   C     0.50008   0.42019   0.24973   0.00000  Uiso   1.00
C279   C     0.52677   0.50074   0.14779   0.00000  Uiso   1.00
C280   C     0.59335   0.45971   0.00840   0.00000  Uiso   1.00
C281   C     0.54369   0.49711   0.08873   0.00000  Uiso   1.00
C282   C     0.40926   0.50607   0.44228   0.00000  Uiso   1.00
C283   C     0.39546   0.50804   0.49872   0.00000  Uiso   1.00
C284   C     0.42928   0.50056   0.02363   0.00000  Uiso   1.00
H285   H     0.41726   0.50242   0.06757   0.00000  Uiso   1.00
N286   N     0.38093   0.50001   0.25001   0.00000  Uiso   1.00
N287   N     0.61906   0.49998   0.25001   0.00000  Uiso   1.00
O288   O     0.46179   0.56108   0.25001   0.00000  Uiso   1.00
O289   O     0.53823   0.56107   0.25001   0.00000  Uiso   1.00
O290   O     0.44280   0.50000   0.32681   0.00000  Uiso   1.00
O291   O     0.51924   0.49999   0.32681   0.00000  Uiso   1.00
O292   O     0.46177   0.43893   0.25000   0.00000  Uiso   1.00
O293   O     0.53821   0.43892   0.25000   0.00000  Uiso   1.00
O294   O     0.48076   0.50001   0.17319   0.00000  Uiso   1.00
O295   O     0.55720   0.50000   0.17319   0.00000  Uiso   1.00
Zn296  Zn    0.44896   0.50001   0.25000   0.00000  Uiso   1.00
Zn297  Zn    0.55104   0.49999   0.25000   0.00000  Uiso   1.00
H298   H     0.61147   0.46763   0.08035   0.00000  Uiso   1.00
C299   C     0.56715   0.37590   0.16080   0.00000  Uiso   1.00
N300   N     0.59456   0.39288   0.12465   0.00000  Uiso   1.00
C301   C     0.43613   0.37926   0.34152   0.00000  Uiso   1.00
N302   N     0.41125   0.39807   0.37866   0.00000  Uiso   1.00
C303   C     0.43490   0.62346   0.34125   0.00000  Uiso   1.00
N304   N     0.40907   0.60578   0.37796   0.00000  Uiso   1.00
H305   H     0.64226   0.45249   0.18946   0.00000  Uiso   1.00
C306   C     0.40125   0.44489   0.18001   0.00000  Uiso   1.00
N307   N     0.42853   0.42187   0.15071   0.00000  Uiso   1.00
H308   H     0.35772   0.54746   0.31062   0.00000  Uiso   1.00
C309   C     0.59875   0.55513   0.31995   0.00000  Uiso   1.00
N310   N     0.57148   0.57820   0.34915   0.00000  Uiso   1.00
C311   C     0.60473   0.42221   0.40251   0.00000  Uiso   1.00
N312   N     0.63794   0.40244   0.37772   0.00000  Uiso   1.00
H313   H     0.62624   0.44258   0.48775   0.00000  Uiso   1.00
C314   C     0.48262   0.54567   0.08152   0.00000  Uiso   1.00
N315   N     0.45913   0.57524   0.09717   0.00000  Uiso   1.00
H316   H     0.38390   0.51554   0.42310   0.00000  Uiso   1.00
H317   H     0.35914   0.51712   0.02305   0.00000  Uiso   1.00
H318   H     0.53340   0.44035   0.37027   0.00000  Uiso   1.00
C319   C     0.56507   0.62055   0.16000   0.00000  Uiso   1.00
N320   N     0.59070   0.60171   0.12337   0.00000  Uiso   1.00
C321   C     0.83319   0.57976   0.25057   0.00000  Uiso   1.00
C322   C     0.81048   0.48950   0.49211   0.00000  Uiso   1.00
C323   C     0.82064   0.47873   0.43714   0.00000  Uiso   1.00
C324   C     0.84820   0.48745   0.01361   0.00000  Uiso   1.00
C325   C     0.89087   0.46446   0.48479   0.00000  Uiso   1.00
C326   C     0.89648   0.44690   0.43327   0.00000  Uiso   1.00
C327   C     0.86183   0.45450   0.40976   0.00000  Uiso   1.00
C328   C     0.84570   0.50863   0.06201   0.00000  Uiso   1.00
C329   C     0.91896   0.47476   0.06087   0.00000  Uiso   1.00
C330   C     0.78911   0.49263   0.41107   0.00000  Uiso   1.00
C331   C     0.86611   0.64418   0.20608   0.00000  Uiso   1.00
C332   C     0.80662   0.49759   0.35208   0.00000  Uiso   1.00
C333   C     0.86648   0.35413   0.20606   0.00000  Uiso   1.00
C334   C     0.83345   0.37596   0.25012   0.00000  Uiso   1.00
C335   C     0.80091   0.35565   0.29493   0.00000  Uiso   1.00
C336   C     0.80071   0.64563   0.29508   0.00000  Uiso   1.00
C337   C     0.83325   0.62391   0.25056   0.00000  Uiso   1.00
C338   C     0.98596   0.47354   0.21633   0.00000  Uiso   1.00
C339   C     0.70051   0.47343   0.21625   0.00000  Uiso   1.00
C340   C     0.68068   0.52641   0.28375   0.00000  Uiso   1.00
C341   C     0.96613   0.52653   0.28380   0.00000  Uiso   1.00
C342   C     0.83341   0.42019   0.24973   0.00000  Uiso   1.00
C343   C     0.86010   0.50074   0.14779   0.00000  Uiso   1.00
C344   C     0.92668   0.45971   0.00840   0.00000  Uiso   1.00
C345   C     0.87702   0.49711   0.08873   0.00000  Uiso   1.00
C346   C     0.74259   0.50607   0.44228   0.00000  Uiso   1.00
C347   C     0.72879   0.50804   0.49872   0.00000  Uiso   1.00
C348   C     0.76262   0.50056   0.02363   0.00000  Uiso   1.00
H349   H     0.75059   0.50242   0.06757   0.00000  Uiso   1.00
N350   N     0.71426   0.50001   0.25001   0.00000  Uiso   1.00
N351   N     0.95239   0.49998   0.25001   0.00000  Uiso   1.00
O352   O     0.79512   0.56108   0.25001   0.00000  Uiso   1.00
O353   O     0.87157   0.56107   0.25001   0.00000  Uiso   1.00
O354   O     0.77613   0.50000   0.32681   0.00000  Uiso   1.00
O355   O     0.85258   0.49999   0.32681   0.00000  Uiso   1.00
O356   O     0.79510   0.43893   0.25000   0.00000  Uiso   1.00
O357   O     0.87154   0.43892   0.25000   0.00000  Uiso   1.00
O358   O     0.81409   0.50001   0.17319   0.00000  Uiso   1.00
O359   O     0.89053   0.50000   0.17319   0.00000  Uiso   1.00
Zn360  Zn    0.78229   0.50001   0.25000   0.00000  Uiso   1.00
Zn361  Zn    0.88438   0.49999   0.25000   0.00000  Uiso   1.00
H362   H     0.94481   0.46763   0.08035   0.00000  Uiso   1.00
C363   C     0.90048   0.37590   0.16080   0.00000  Uiso   1.00
N364   N     0.92789   0.39288   0.12465   0.00000  Uiso   1.00
C365   C     0.76946   0.37926   0.34152   0.00000  Uiso   1.00
N366   N     0.74459   0.39807   0.37866   0.00000  Uiso   1.00
C367   C     0.76823   0.62346   0.34125   0.00000  Uiso   1.00
N368   N     0.74240   0.60578   0.37796   0.00000  Uiso   1.00
H369   H     0.97559   0.45249   0.18946   0.00000  Uiso   1.00
C370   C     0.73459   0.44489   0.18001   0.00000  Uiso   1.00
N371   N     0.76187   0.42187   0.15071   0.00000  Uiso   1.00
H372   H     0.69105   0.54746   0.31062   0.00000  Uiso   1.00
C373   C     0.93208   0.55513   0.31995   0.00000  Uiso   1.00
N374   N     0.90482   0.57820   0.34915   0.00000  Uiso   1.00
C375   C     0.93806   0.42221   0.40251   0.00000  Uiso   1.00
N376   N     0.97127   0.40244   0.37772   0.00000  Uiso   1.00
H377   H     0.95957   0.44258   0.48775   0.00000  Uiso   1.00
C378   C     0.81596   0.54567   0.08152   0.00000  Uiso   1.00
N379   N     0.79246   0.57524   0.09717   0.00000  Uiso   1.00
H380   H     0.71723   0.51554   0.42310   0.00000  Uiso   1.00
H381   H     0.69247   0.51712   0.02305   0.00000  Uiso   1.00
H382   H     0.86673   0.44035   0.37027   0.00000  Uiso   1.00
C383   C     0.89840   0.62055   0.16000   0.00000  Uiso   1.00
N384   N     0.92403   0.60171   0.12337   0.00000  Uiso   1.00
C385   C     0.16653   0.91309   0.25057   0.00000  Uiso   1.00
C386   C     0.14381   0.82283   0.49211   0.00000  Uiso   1.00
C387   C     0.15398   0.81206   0.43714   0.00000  Uiso   1.00
C388   C     0.18153   0.82078   0.01361   0.00000  Uiso   1.00
C389   C     0.22420   0.79780   0.48479   0.00000  Uiso   1.00
C390   C     0.22982   0.78024   0.43327   0.00000  Uiso   1.00
C391   C     0.19516   0.78783   0.40976   0.00000  Uiso   1.00
C392   C     0.17903   0.84196   0.06201   0.00000  Uiso   1.00
C393   C     0.25229   0.80810   0.06087   0.00000  Uiso   1.00
C394   C     0.12245   0.82596   0.41107   0.00000  Uiso   1.00
C395   C     0.19944   0.97751   0.20608   0.00000  Uiso   1.00
C396   C     0.13996   0.83092   0.35208   0.00000  Uiso   1.00
C397   C     0.19982   0.68746   0.20606   0.00000  Uiso   1.00
C398   C     0.16678   0.70930   0.25012   0.00000  Uiso   1.00
C399   C     0.13424   0.68898   0.29493   0.00000  Uiso   1.00
C400   C     0.13404   0.97897   0.29508   0.00000  Uiso   1.00
C401   C     0.16658   0.95724   0.25056   0.00000  Uiso   1.00
C402   C     0.31930   0.80687   0.21633   0.00000  Uiso   1.00
C403   C     0.03385   0.80677   0.21625   0.00000  Uiso   1.00
C404   C     0.01401   0.85975   0.28375   0.00000  Uiso   1.00
C405   C     0.29947   0.85986   0.28380   0.00000  Uiso   1.00
C406   C     0.16674   0.75352   0.24973   0.00000  Uiso   1.00
C407   C     0.19344   0.83407   0.14779   0.00000  Uiso   1.00
C408   C     0.26001   0.79304   0.00840   0.00000  Uiso   1.00
C409   C     0.21036   0.83045   0.08873   0.00000  Uiso   1.00
C410   C     0.07592   0.83940   0.44228   0.00000  Uiso   1.00
C411   C     0.06213   0.84137   0.49872   0.00000  Uiso   1.00
C412   C     0.09595   0.83389   0.02363   0.00000  Uiso   1.00
H413   H     0.08393   0.83575   0.06757   0.00000  Uiso   1.00
N414   N     0.04760   0.83334   0.25001   0.00000  Uiso   1.00
N415   N     0.28573   0.83331   0.25001   0.00000  Uiso   1.00
O416   O     0.12846   0.89442   0.25001   0.00000  Uiso   1.00
O417   O     0.20490   0.89441   0.25001   0.00000  Uiso   1.00
O418   O     0.10947   0.83333   0.32681   0.00000  Uiso   1.00
O419   O     0.18591   0.83332   0.32681   0.00000  Uiso   1.00
O420   O     0.12843   0.77226   0.25000   0.00000  Uiso   1.00
O421   O     0.20488   0.77225   0.25000   0.00000  Uiso   1.00
O422   O     0.14742   0.83335   0.17319   0.00000  Uiso   1.00
O423   O     0.22387   0.83334   0.17319   0.00000  Uiso   1.00
Zn424  Zn    0.11562   0.83334   0.25000   0.00000  Uiso   1.00
Zn425  Zn    0.21771   0.83333   0.25000   0.00000  Uiso   1.00
H426   H     0.27814   0.80096   0.08035   0.00000  Uiso   1.00
C427   C     0.23382   0.70923   0.16080   0.00000  Uiso   1.00
N428   N     0.26123   0.72621   0.12465   0.00000  Uiso   1.00
C429   C     0.10280   0.71259   0.34152   0.00000  Uiso   1.00
N430   N     0.07792   0.73140   0.37866   0.00000  Uiso   1.00
C431   C     0.10156   0.95680   0.34125   0.00000  Uiso   1.00
N432   N     0.07574   0.93912   0.37796   0.00000  Uiso   1.00
H433   H     0.30892   0.78582   0.18946   0.00000  Uiso   1.00
C434   C     0.06792   0.77822   0.18001   0.00000  Uiso   1.00
N435   N     0.09520   0.75521   0.15071   0.00000  Uiso   1.00
H436   H     0.02438   0.88079   0.31062   0.00000  Uiso   1.00
C437   C     0.26542   0.88847   0.31995   0.00000  Uiso   1.00
N438   N     0.23815   0.91154   0.34915   0.00000  Uiso   1.00
C439   C     0.27140   0.75554   0.40251   0.00000  Uiso   1.00
N440   N     0.30460   0.73577   0.37772   0.00000  Uiso   1.00
H441   H     0.29290   0.77591   0.48775   0.00000  Uiso   1.00
C442   C     0.14929   0.87900   0.08152   0.00000  Uiso   1.00
N443   N     0.12580   0.90857   0.09717   0.00000  Uiso   1.00
H444   H     0.05057   0.84888   0.42310   0.00000  Uiso   1.00
H445   H     0.02581   0.85045   0.02305   0.00000  Uiso   1.00
H446   H     0.20006   0.77369   0.37027   0.00000  Uiso   1.00
C447   C     0.23173   0.95388   0.16000   0.00000  Uiso   1.00
N448   N     0.25736   0.93505   0.12337   0.00000  Uiso   1.00
C449   C     0.49986   0.91309   0.25057   0.00000  Uiso   1.00
C450   C     0.47715   0.82283   0.49211   0.00000  Uiso   1.00
C451   C     0.48731   0.81206   0.43714   0.00000  Uiso   1.00
C452   C     0.51486   0.82078   0.01361   0.00000  Uiso   1.00
C453   C     0.55754   0.79780   0.48479   0.00000  Uiso   1.00
C454   C     0.56315   0.78024   0.43327   0.00000  Uiso   1.00
C455   C     0.52850   0.78783   0.40976   0.00000  Uiso   1.00
C456   C     0.51237   0.84196   0.06201   0.00000  Uiso   1.00
C457   C     0.58563   0.80810   0.06087   0.00000  Uiso   1.00
C458   C     0.45578   0.82596   0.41107   0.00000  Uiso   1.00
C459   C     0.53278   0.97751   0.20608   0.00000  Uiso   1.00
C460   C     0.47329   0.83092   0.35208   0.00000  Uiso   1.00
C461   C     0.53315   0.68746   0.20606   0.00000  Uiso   1.00
C462   C     0.50012   0.70930   0.25012   0.00000  Uiso   1.00
C463   C     0.46758   0.68898   0.29493   0.00000  Uiso   1.00
C464   C     0.46737   0.97897   0.29508   0.00000  Uiso   1.00
C465   C     0.49991   0.95724   0.25056   0.00000  Uiso   1.00
C466   C     0.65263   0.80687   0.21633   0.00000  Uiso   1.00
C467   C     0.36718   0.80677   0.21625   0.00000  Uiso   1.00
C468   C     0.34734   0.85975   0.28375   0.00000  Uiso   1.00
C469   C     0.63280   0.85986   0.28380   0.00000  Uiso   1.00
C470   C     0.50008   0.75352   0.24973   0.00000  Uiso   1.00
C471   C     0.52677   0.83407   0.14779   0.00000  Uiso   1.00
C472   C     0.59335   0.79304   0.00840   0.00000  Uiso   1.00
C473   C     0.54369   0.83045   0.08873   0.00000  Uiso   1.00
C474   C     0.40926   0.83940   0.44228   0.00000  Uiso   1.00
C475   C     0.39546   0.84137   0.49872   0.00000  Uiso   1.00
C476   C     0.42928   0.83389   0.02363   0.00000  Uiso   1.00
H477   H     0.41726   0.83575   0.06757   0.00000  Uiso   1.00
N478   N     0.38093   0.83334   0.25001   0.00000  Uiso   1.00
N479   N     0.61906   0.83331   0.25001   0.00000  Uiso   1.00
O480   O     0.46179   0.89442   0.25001   0.00000  Uiso   1.00
O481   O     0.53823   0.89441   0.25001   0.00000  Uiso   1.00
O482   O     0.44280   0.83333   0.32681   0.00000  Uiso   1.00
O483   O     0.51924   0.83332   0.32681   0.00000  Uiso   1.00
O484   O     0.46177   0.77226   0.25000   0.00000  Uiso   1.00
O485   O     0.53821   0.77225   0.25000   0.00000  Uiso   1.00
O486   O     0.48076   0.83335   0.17319   0.00000  Uiso   1.00
O487   O     0.55720   0.83334   0.17319   0.00000  Uiso   1.00
Zn488  Zn    0.44896   0.83334   0.25000   0.00000  Uiso   1.00
Zn489  Zn    0.55104   0.83333   0.25000   0.00000  Uiso   1.00
H490   H     0.61147   0.80096   0.08035   0.00000  Uiso   1.00
C491   C     0.56715   0.70923   0.16080   0.00000  Uiso   1.00
N492   N     0.59456   0.72621   0.12465   0.00000  Uiso   1.00
C493   C     0.43613   0.71259   0.34152   0.00000  Uiso   1.00
N494   N     0.41125   0.73140   0.37866   0.00000  Uiso   1.00
C495   C     0.43490   0.95680   0.34125   0.00000  Uiso   1.00
N496   N     0.40907   0.93912   0.37796   0.00000  Uiso   1.00
H497   H     0.64226   0.78582   0.18946   0.00000  Uiso   1.00
C498   C     0.40125   0.77822   0.18001   0.00000  Uiso   1.00
N499   N     0.42853   0.75521   0.15071   0.00000  Uiso   1.00
H500   H     0.35772   0.88079   0.31062   0.00000  Uiso   1.00
C501   C     0.59875   0.88847   0.31995   0.00000  Uiso   1.00
N502   N     0.57148   0.91154   0.34915   0.00000  Uiso   1.00
C503   C     0.60473   0.75554   0.40251   0.00000  Uiso   1.00
N504   N     0.63794   0.73577   0.37772   0.00000  Uiso   1.00
H505   H     0.62624   0.77591   0.48775   0.00000  Uiso   1.00
C506   C     0.48262   0.87900   0.08152   0.00000  Uiso   1.00
N507   N     0.45913   0.90857   0.09717   0.00000  Uiso   1.00
H508   H     0.38390   0.84888   0.42310   0.00000  Uiso   1.00
H509   H     0.35914   0.85045   0.02305   0.00000  Uiso   1.00
H510   H     0.53340   0.77369   0.37027   0.00000  Uiso   1.00
C511   C     0.56507   0.95388   0.16000   0.00000  Uiso   1.00
N512   N     0.59070   0.93505   0.12337   0.00000  Uiso   1.00
C513   C     0.83319   0.91309   0.25057   0.00000  Uiso   1.00
C514   C     0.81048   0.82283   0.49211   0.00000  Uiso   1.00
C515   C     0.82064   0.81206   0.43714   0.00000  Uiso   1.00
C516   C     0.84820   0.82078   0.01361   0.00000  Uiso   1.00
C517   C     0.89087   0.79780   0.48479   0.00000  Uiso   1.00
C518   C     0.89648   0.78024   0.43327   0.00000  Uiso   1.00
C519   C     0.86183   0.78783   0.40976   0.00000  Uiso   1.00
C520   C     0.84570   0.84196   0.06201   0.00000  Uiso   1.00
C521   C     0.91896   0.80810   0.06087   0.00000  Uiso   1.00
C522   C     0.78911   0.82596   0.41107   0.00000  Uiso   1.00
C523   C     0.86611   0.97751   0.20608   0.00000  Uiso   1.00
C524   C     0.80662   0.83092   0.35208   0.00000  Uiso   1.00
C525   C     0.86648   0.68746   0.20606   0.00000  Uiso   1.00
C526   C     0.83345   0.70930   0.25012   0.00000  Uiso   1.00
C527   C     0.80091   0.68898   0.29493   0.00000  Uiso   1.00
C528   C     0.80071   0.97897   0.29508   0.00000  Uiso   1.00
C529   C     0.83325   0.95724   0.25056   0.00000  Uiso   1.00
C530   C     0.98596   0.80687   0.21633   0.00000  Uiso   1.00
C531   C     0.70051   0.80677   0.21625   0.00000  Uiso   1.00
C532   C     0.68068   0.85975   0.28375   0.00000  Uiso   1.00
C533   C     0.96613   0.85986   0.28380   0.00000  Uiso   1.00
C534   C     0.83341   0.75352   0.24973   0.00000  Uiso   1.00
C535   C     0.86010   0.83407   0.14779   0.00000  Uiso   1.00
C536   C     0.92668   0.79304   0.00840   0.00000  Uiso   1.00
C537   C     0.87702   0.83045   0.08873   0.00000  Uiso   1.00
C538   C     0.74259   0.83940   0.44228   0.00000  Uiso   1.00
C539   C     0.72879   0.84137   0.49872   0.00000  Uiso   1.00
C540   C     0.76262   0.83389   0.02363   0.00000  Uiso   1.00
H541   H     0.75059   0.83575   0.06757   0.00000  Uiso   1.00
N542   N     0.71426   0.83334   0.25001   0.00000  Uiso   1.00
N543   N     0.95239   0.83331   0.25001   0.00000  Uiso   1.00
O544   O     0.79512   0.89442   0.25001   0.00000  Uiso   1.00
O545   O     0.87157   0.89441   0.25001   0.00000  Uiso   1.00
O546   O     0.77613   0.83333   0.32681   0.00000  Uiso   1.00
O547   O     0.85258   0.83332   0.32681   0.00000  Uiso   1.00
O548   O     0.79510   0.77226   0.25000   0.00000  Uiso   1.00
O549   O     0.87154   0.77225   0.25000   0.00000  Uiso   1.00
O550   O     0.81409   0.83335   0.17319   0.00000  Uiso   1.00
O551   O     0.89053   0.83334   0.17319   0.00000  Uiso   1.00
Zn552  Zn    0.78229   0.83334   0.25000   0.00000  Uiso   1.00
Zn553  Zn    0.88438   0.83333   0.25000   0.00000  Uiso   1.00
H554   H     0.94481   0.80096   0.08035   0.00000  Uiso   1.00
C555   C     0.90048   0.70923   0.16080   0.00000  Uiso   1.00
N556   N     0.92789   0.72621   0.12465   0.00000  Uiso   1.00
C557   C     0.76946   0.71259   0.34152   0.00000  Uiso   1.00
N558   N     0.74459   0.73140   0.37866   0.00000  Uiso   1.00
C559   C     0.76823   0.95680   0.34125   0.00000  Uiso   1.00
N560   N     0.74240   0.93912   0.37796   0.00000  Uiso   1.00
H561   H     0.97559   0.78582   0.18946   0.00000  Uiso   1.00
C562   C     0.73459   0.77822   0.18001   0.00000  Uiso   1.00
N563   N     0.76187   0.75521   0.15071   0.00000  Uiso   1.00
H564   H     0.69105   0.88079   0.31062   0.00000  Uiso   1.00
C565   C     0.93208   0.88847   0.31995   0.00000  Uiso   1.00
N566   N     0.90482   0.91154   0.34915   0.00000  Uiso   1.00
C567   C     0.93806   0.75554   0.40251   0.00000  Uiso   1.00
N568   N     0.97127   0.73577   0.37772   0.00000  Uiso   1.00
H569   H     0.95957   0.77591   0.48775   0.00000  Uiso   1.00
C570   C     0.81596   0.87900   0.08152   0.00000  Uiso   1.00
N571   N     0.79246   0.90857   0.09717   0.00000  Uiso   1.00
H572   H     0.71723   0.84888   0.42310   0.00000  Uiso   1.00
H573   H     0.69247   0.85045   0.02305   0.00000  Uiso   1.00
H574   H     0.86673   0.77369   0.37027   0.00000  Uiso   1.00
C575   C     0.89840   0.95388   0.16000   0.00000  Uiso   1.00
N576   N     0.92403   0.93505   0.12337   0.00000  Uiso   1.00
C577   C     0.16653   0.24643   0.75057   0.00000  Uiso   1.00
C578   C     0.14381   0.15617   0.99211   0.00000  Uiso   1.00
C579   C     0.15398   0.14539   0.93714   0.00000  Uiso   1.00
C580   C     0.18153   0.15411   0.51361   0.00000  Uiso   1.00
C581   C     0.22420   0.13113   0.98479   0.00000  Uiso   1.00
C582   C     0.22982   0.11357   0.93327   0.00000  Uiso   1.00
C583   C     0.19516   0.12117   0.90976   0.00000  Uiso   1.00
C584   C     0.17903   0.17530   0.56201   0.00000  Uiso   1.00
C585   C     0.25229   0.14143   0.56087   0.00000  Uiso   1.00
C586   C     0.12245   0.15930   0.91107   0.00000  Uiso   1.00
C587   C     0.19944   0.31085   0.70608   0.00000  Uiso   1.00
C588   C     0.13996   0.16426   0.85208   0.00000  Uiso   1.00
C589   C     0.19982   0.02080   0.70606   0.00000  Uiso   1.00
C590   C     0.16678   0.04263   0.75012   0.00000  Uiso   1.00
C591   C     0.13424   0.02231   0.79493   0.00000  Uiso   1.00
C592   C     0.13404   0.31230   0.79508   0.00000  Uiso   1.00
C593   C     0.16658   0.29058   0.75056   0.00000  Uiso   1.00
C594   C     0.31930   0.14020   0.71633   0.00000  Uiso   1.00
C595   C     0.03385   0.14010   0.71625   0.00000  Uiso   1.00
C596   C     0.01401   0.19308   0.78375   0.00000  Uiso   1.00
C597   C     0.29947   0.19320   0.78380   0.00000  Uiso   1.00
C598   C     0.16674   0.08685   0.74973   0.00000  Uiso   1.00
C599   C     0.19344   0.16740   0.64779   0.00000  Uiso   1.00
C600   C     0.26001   0.12637   0.50840   0.00000  Uiso   1.00
C601   C     0.21036   0.16378   0.58873   0.00000  Uiso   1.00
C602   C     0.07592   0.17274   0.94228   0.00000  Uiso   1.00
C603   C     0.06213   0.17471   0.99872   0.00000  Uiso   1.00
C604   C     0.09595   0.16723   0.52363   0.00000  Uiso   1.00
H605   H     0.08393   0.16908   0.56757   0.00000  Uiso   1.00
N606   N     0.04760   0.16668   0.75001   0.00000  Uiso   1.00
N607   N     0.28573   0.16665   0.75001   0.00000  Uiso   1.00
O608   O     0.12846   0.22775   0.75001   0.00000  Uiso   1.00
O609   O     0.20490   0.22774   0.75001   0.00000  Uiso   1.00
O610   O     0.10947   0.16666   0.82681   0.00000  Uiso   1.00
O611   O     0.18591   0.16665   0.82681   0.00000  Uiso   1.00
O612   O     0.12843   0.10559   0.75000   0.00000  Uiso   1.00
O613   O     0.20488   0.10558   0.75000   0.00000  Uiso   1.00
O614   O     0.14742   0.16668   0.67319   0.00000  Uiso   1.00
O615   O     0.22387   0.16667   0.67319   0.00000  Uiso   1.00
Zn616  Zn    0.11562   0.16667   0.75000   0.00000  Uiso   1.00
Zn617  Zn    0.21771   0.16666   0.75000   0.00000  Uiso   1.00
H618   H     0.27814   0.13429   0.58035   0.00000  Uiso   1.00
C619   C     0.23382   0.04257   0.66080   0.00000  Uiso   1.00
N620   N     0.26123   0.05954   0.62465   0.00000  Uiso   1.00
C621   C     0.10280   0.04592   0.84152   0.00000  Uiso   1.00
N622   N     0.07792   0.06474   0.87866   0.00000  Uiso   1.00
C623   C     0.10156   0.29013   0.84125   0.00000  Uiso   1.00
N624   N     0.07574   0.27245   0.87796   0.00000  Uiso   1.00
H625   H     0.30892   0.11915   0.68946   0.00000  Uiso   1.00
C626   C     0.06792   0.11155   0.68001   0.00000  Uiso   1.00
N627   N     0.09520   0.08854   0.65071   0.00000  Uiso   1.00
H628   H     0.02438   0.21413   0.81062   0.00000  Uiso   1.00
C629   C     0.26542   0.22180   0.81995   0.00000  Uiso   1.00
N630   N     0.23815   0.24487   0.84915   0.00000  Uiso   1.00
C631   C     0.27140   0.08887   0.90251   0.00000  Uiso   1.00
N632   N     0.30460   0.06910   0.87772   0.00000  Uiso   1.00
H633   H     0.29290   0.10924   0.98775   0.00000  Uiso   1.00
C634   C     0.14929   0.21233   0.58152   0.00000  Uiso   1.00
N635   N     0.12580   0.24190   0.59717   0.00000  Uiso   1.00
H636   H     0.05057   0.18221   0.92310   0.00000  Uiso   1.00
H637   H     0.02581   0.18378   0.52305   0.00000  Uiso   1.00
H638   H     0.20006   0.10702   0.87027   0.00000  Uiso   1.00
C639   C     0.23173   0.28721   0.66000   0.00000  Uiso   1.00
N640   N     0.25736   0.26838   0.62337   0.00000  Uiso   1.00
C641   C     0.49986   0.24643   0.75057   0.00000  Uiso   1.00
C642   C     0.47715   0.15617   0.99211   0.00000  Uiso   1.00
C643   C     0.48731   0.14539   0.93714   0.00000  Uiso   1.00
C644   C     0.51486   0.15411   0.51361   0.00000  Uiso   1.00
C645   C     0.55754   0.13113   0.98479   0.00000  Uiso   1.00
C646   C     0.56315   0.11357   0.93327   0.00000  Uiso   1.00
C647   C     0.52850   0.12117   0.90976   0.00000  Uiso   1.00
C648   C     0.51237   0.17530   0.56201   0.00000  Uiso   1.00
C649   C     0.58563   0.14143   0.56087   0.00000  Uiso   1.00
C650   C     0.45578   0.15930   0.91107   0.00000  Uiso   1.00
C651   C     0.53278   0.31085   0.70608   0.00000  Uiso   1.00
C652   C     0.47329   0.16426   0.85208   0.00000  Uiso   1.00
C653   C     0.53315   0.02080   0.70606   0.00000  Uiso   1.00
C654   C     0.50012   0.04263   0.75012   0.00000  Uiso   1.00
C655   C     0.46758   0.02231   0.79493   0.00000  Uiso   1.00
C656   C     0.46737   0.31230   0.79508   0.00000  Uiso   1.00
C657   C     0.49991   0.29058   0.75056   0.00000  Uiso   1.00
C658   C     0.65263   0.14020   0.71633   0.00000  Uiso   1.00
C659   C     0.36718   0.14010   0.71625   0.00000  Uiso   1.00
C660   C     0.34734   0.19308   0.78375   0.00000  Uiso   1.00
C661   C     0.63280   0.19320   0.78380   0.00000  Uiso   1.00
C662   C     0.50008   0.08685   0.74973   0.00000  Uiso   1.00
C663   C     0.52677   0.16740   0.64779   0.00000  Uiso   1.00
C664   C     0.59335   0.12637   0.50840   0.00000  Uiso   1.00
C665   C     0.54369   0.16378   0.58873   0.00000  Uiso   1.00
C666   C     0.40926   0.17274   0.94228   0.00000  Uiso   1.00
C667   C     0.39546   0.17471   0.99872   0.00000  Uiso   1.00
C668   C     0.42928   0.16723   0.52363   0.00000  Uiso   1.00
H669   H     0.41726   0.16908   0.56757   0.00000  Uiso   1.00
N670   N     0.38093   0.16668   0.75001   0.00000  Uiso   1.00
N671   N     0.61906   0.16665   0.75001   0.00000  Uiso   1.00
O672   O     0.46179   0.22775   0.75001   0.00000  Uiso   1.00
O673   O     0.53823   0.22774   0.75001   0.00000  Uiso   1.00
O674   O     0.44280   0.16666   0.82681   0.00000  Uiso   1.00
O675   O     0.51924   0.16665   0.82681   0.00000  Uiso   1.00
O676   O     0.46177   0.10559   0.75000   0.00000  Uiso   1.00
O677   O     0.53821   0.10558   0.75000   0.00000  Uiso   1.00
O678   O     0.48076   0.16668   0.67319   0.00000  Uiso   1.00
O679   O     0.55720   0.16667   0.67319   0.00000  Uiso   1.00
Zn680  Zn    0.44896   0.16667   0.75000   0.00000  Uiso   1.00
Zn681  Zn    0.55104   0.16666   0.75000   0.00000  Uiso   1.00
H682   H     0.61147   0.13429   0.58035   0.00000  Uiso   1.00
C683   C     0.56715   0.04257   0.66080   0.00000  Uiso   1.00
N684   N     0.59456   0.05954   0.62465   0.00000  Uiso   1.00
C685   C     0.43613   0.04592   0.84152   0.00000  Uiso   1.00
N686   N     0.41125   0.06474   0.87866   0.00000  Uiso   1.00
C687   C     0.43490   0.29013   0.84125   0.00000  Uiso   1.00
N688   N     0.40907   0.27245   0.87796   0.00000  Uiso   1.00
H689   H     0.64226   0.11915   0.68946   0.00000  Uiso   1.00
C690   C     0.40125   0.11155   0.68001   0.00000  Uiso   1.00
N691   N     0.42853   0.08854   0.65071   0.00000  Uiso   1.00
H692   H     0.35772   0.21413   0.81062   0.00000  Uiso   1.00
C693   C     0.59875   0.22180   0.81995   0.00000  Uiso   1.00
N694   N     0.57148   0.24487   0.84915   0.00000  Uiso   1.00
C695   C     0.60473   0.08887   0.90251   0.00000  Uiso   1.00
N696   N     0.63794   0.06910   0.87772   0.00000  Uiso   1.00
H697   H     0.62624   0.10924   0.98775   0.00000  Uiso   1.00
C698   C     0.48262   0.21233   0.58152   0.00000  Uiso   1.00
N699   N     0.45913   0.24190   0.59717   0.00000  Uiso   1.00
H700   H     0.38390   0.18221   0.92310   0.00000  Uiso   1.00
H701   H     0.35914   0.18378   0.52305   0.00000  Uiso   1.00
H702   H     0.53340   0.10702   0.87027   0.00000  Uiso   1.00
C703   C     0.56507   0.28721   0.66000   0.00000  Uiso   1.00
N704   N     0.59070   0.26838   0.62337   0.00000  Uiso   1.00
C705   C     0.83319   0.24643   0.75057   0.00000  Uiso   1.00
C706   C     0.81048   0.15617   0.99211   0.00000  Uiso   1.00
C707   C     0.82064   0.14539   0.93714   0.00000  Uiso   1.00
C708   C     0.84820   0.15411   0.51361   0.00000  Uiso   1.00
C709   C     0.89087   0.13113   0.98479   0.00000  Uiso   1.00
C710   C     0.89648   0.11357   0.93327   0.00000  Uiso   1.00
C711   C     0.86183   0.12117   0.90976   0.00000  Uiso   1.00
C712   C     0.84570   0.17530   0.56201   0.00000  Uiso   1.00
C713   C     0.91896   0.14143   0.56087   0.00000  Uiso   1.00
C714   C     0.78911   0.15930   0.91107   0.00000  Uiso   1.00
C715   C     0.86611   0.31085   0.70608   0.00000  Uiso   1.00
C716   C     0.80662   0.16426   0.85208   0.00000  Uiso   1.00
C717   C     0.86648   0.02080   0.70606   0.00000  Uiso   1.00
C718   C     0.83345   0.04263   0.75012   0.00000  Uiso   1.00
C719   C     0.80091   0.02231   0.79493   0.00000  Uiso   1.00
C720   C     0.80071   0.31230   0.79508   0.00000  Uiso   1.00
C721   C     0.83325   0.29058   0.75056   0.00000  Uiso   1.00
C722   C     0.98596   0.14020   0.71633   0.00000  Uiso   1.00
C723   C     0.70051   0.14010   0.71625   0.00000  Uiso   1.00
C724   C     0.68068   0.19308   0.78375   0.00000  Uiso   1.00
C725   C     0.96613   0.19320   0.78380   0.00000  Uiso   1.00
C726   C     0.83341   0.08685   0.74973   0.00000  Uiso   1.00
C727   C     0.86010   0.16740   0.64779   0.00000  Uiso   1.00
C728   C     0.92668   0.12637   0.50840   0.00000  Uiso   1.00
C729   C     0.87702   0.16378   0.58873   0.00000  Uiso   1.00
C730   C     0.74259   0.17274   0.94228   0.00000  Uiso   1.00
C731   C     0.72879   0.17471   0.99872   0.00000  Uiso   1.00
C732   C     0.76262   0.16723   0.52363   0.00000  Uiso   1.00
H733   H     0.75059   0.16908   0.56757   0.00000  Uiso   1.00
N734   N     0.71426   0.16668   0.75001   0.00000  Uiso   1.00
N735   N     0.95239   0.16665   0.75001   0.00000  Uiso   1.00
O736   O     0.79512   0.22775   0.75001   0.00000  Uiso   1.00
O737   O     0.87157   0.22774   0.75001   0.00000  Uiso   1.00
O738   O     0.77613   0.16666   0.82681   0.00000  Uiso   1.00
O739   O     0.85258   0.16665   0.82681   0.00000  Uiso   1.00
O740   O     0.79510   0.10559   0.75000   0.00000  Uiso   1.00
O741   O     0.87154   0.10558   0.75000   0.00000  Uiso   1.00
O742   O     0.81409   0.16668   0.67319   0.00000  Uiso   1.00
O743   O     0.89053   0.16667   0.67319   0.00000  Uiso   1.00
Zn744  Zn    0.78229   0.16667   0.75000   0.00000  Uiso   1.00
Zn745  Zn    0.88438   0.16666   0.75000   0.00000  Uiso   1.00
H746   H     0.94481   0.13429   0.58035   0.00000  Uiso   1.00
C747   C     0.90048   0.04257   0.66080   0.00000  Uiso   1.00
N748   N     0.92789   0.05954   0.62465   0.00000  Uiso   1.00
C749   C     0.76946   0.04592   0.84152   0.00000  Uiso   1.00
N750   N     0.74459   0.06474   0.87866   0.00000  Uiso   1.00
C751   C     0.76823   0.29013   0.84125   0.00000  Uiso   1.00
N752   N     0.74240   0.27245   0.87796   0.00000  Uiso   1.00
H753   H     0.97559   0.11915   0.68946   0.00000  Uiso   1.00
C754   C     0.73459   0.11155   0.68001   0.00000  Uiso   1.00
N755   N     0.76187   0.08854   0.65071   0.00000  Uiso   1.00
H756   H     0.69105   0.21413   0.81062   0.00000  Uiso   1.00
C757   C     0.93208   0.22180   0.81995   0.00000  Uiso   1.00
N758   N     0.90482   0.24487   0.84915   0.00000  Uiso   1.00
C759   C     0.93806   0.08887   0.90251   0.00000  Uiso   1.00
N760   N     0.97127   0.06910   0.87772   0.00000  Uiso   1.00
H761   H     0.95957   0.10924   0.98775   0.00000  Uiso   1.00
C762   C     0.81596   0.21233   0.58152   0.00000  Uiso   1.00
N763   N     0.79246   0.24190   0.59717   0.00000  Uiso   1.00
H764   H     0.71723   0.18221   0.92310   0.00000  Uiso   1.00
H765   H     0.69247   0.18378   0.52305   0.00000  Uiso   1.00
H766   H     0.86673   0.10702   0.87027   0.00000  Uiso   1.00
C767   C     0.89840   0.28721   0.66000   0.00000  Uiso   1.00
N768   N     0.92403   0.26838   0.62337   0.00000  Uiso   1.00
C769   C     0.16653   0.57976   0.75057   0.00000  Uiso   1.00
C770   C     0.14381   0.48950   0.99211   0.00000  Uiso   1.00
C771   C     0.15398   0.47873   0.93714   0.00000  Uiso   1.00
C772   C     0.18153   0.48745   0.51361   0.00000  Uiso   1.00
C773   C     0.22420   0.46446   0.98479   0.00000  Uiso   1.00
C774   C     0.22982   0.44690   0.93327   0.00000  Uiso   1.00
C775   C     0.19516   0.45450   0.90976   0.00000  Uiso   1.00
C776   C     0.17903   0.50863   0.56201   0.00000  Uiso   1.00
C777   C     0.25229   0.47476   0.56087   0.00000  Uiso   1.00
C778   C     0.12245   0.49263   0.91107   0.00000  Uiso   1.00
C779   C     0.19944   0.64418   0.70608   0.00000  Uiso   1.00
C780   C     0.13996   0.49759   0.85208   0.00000  Uiso   1.00
C781   C     0.19982   0.35413   0.70606   0.00000  Uiso   1.00
C782   C     0.16678   0.37596   0.75012   0.00000  Uiso   1.00
C783   C     0.13424   0.35565   0.79493   0.00000  Uiso   1.00
C784   C     0.13404   0.64563   0.79508   0.00000  Uiso   1.00
C785   C     0.16658   0.62391   0.75056   0.00000  Uiso   1.00
C786   C     0.31930   0.47354   0.71633   0.00000  Uiso   1.00
C787   C     0.03385   0.47343   0.71625   0.00000  Uiso   1.00
C788   C     0.01401   0.52641   0.78375   0.00000  Uiso   1.00
C789   C     0.29947   0.52653   0.78380   0.00000  Uiso   1.00
C790   C     0.16674   0.42019   0.74973   0.00000  Uiso   1.00
C791   C     0.19344   0.50074   0.64779   0.00000  Uiso   1.00
C792   C     0.26001   0.45971   0.50840   0.00000  Uiso   1.00
C793   C     0.21036   0.49711   0.58873   0.00000  Uiso   1.00
C794   C     0.07592   0.50607   0.94228   0.00000  Uiso   1.00
C795   C     0.06213   0.50804   0.99872   0.00000  Uiso   1.00
C796   C     0.09595   0.50056   0.52363   0.00000  Uiso   1.00
H797   H     0.08393   0.50242   0.56757   0.00000  Uiso   1.00
N798   N     0.04760   0.50001   0.75001   0.00000  Uiso   1.00
N799   N     0.28573   0.49998   0.75001   0.00000  Uiso   1.00
O800   O     0.12846   0.56108   0.75001   0.00000  Uiso   1.00
O801   O     0.20490   0.56107   0.75001   0.00000  Uiso   1.00
O802   O     0.10947   0.50000   0.82681   0.00000  Uiso   1.00
O803   O     0.18591   0.49999   0.82681   0.00000  Uiso   1.00
O804   O     0.12843   0.43893   0.75000   0.00000  Uiso   1.00
O805   O     0.20488   0.43892   0.75000   0.00000  Uiso   1.00
O806   O     0.14742   0.50001   0.67319   0.00000  Uiso   1.00
O807   O     0.22387   0.50000   0.67319   0.00000  Uiso   1.00
Zn808  Zn    0.11562   0.50001   0.75000   0.00000  Uiso   1.00
Zn809  Zn    0.21771   0.49999   0.75000   0.00000  Uiso   1.00
H810   H     0.27814   0.46763   0.58035   0.00000  Uiso   1.00
C811   C     0.23382   0.37590   0.66080   0.00000  Uiso   1.00
N812   N     0.26123   0.39288   0.62465   0.00000  Uiso   1.00
C813   C     0.10280   0.37926   0.84152   0.00000  Uiso   1.00
N814   N     0.07792   0.39807   0.87866   0.00000  Uiso   1.00
C815   C     0.10156   0.62346   0.84125   0.00000  Uiso   1.00
N816   N     0.07574   0.60578   0.87796   0.00000  Uiso   1.00
H817   H     0.30892   0.45249   0.68946   0.00000  Uiso   1.00
C818   C     0.06792   0.44489   0.68001   0.00000  Uiso   1.00
N819   N     0.09520   0.42187   0.65071   0.00000  Uiso   1.00
H820   H     0.02438   0.54746   0.81062   0.00000  Uiso   1.00
C821   C     0.26542   0.55513   0.81995   0.00000  Uiso   1.00
N822   N     0.23815   0.57820   0.84915   0.00000  Uiso   1.00
C823   C     0.27140   0.42221   0.90251   0.00000  Uiso   1.00
N824   N     0.30460   0.40244   0.87772   0.00000  Uiso   1.00
H825   H     0.29290   0.44258   0.98775   0.00000  Uiso   1.00
C826   C     0.14929   0.54567   0.58152   0.00000  Uiso   1.00
N827   N     0.12580   0.57524   0.59717   0.00000  Uiso   1.00
H828   H     0.05057   0.51554   0.92310   0.00000  Uiso   1.00
H829   H     0.02581   0.51712   0.52305   0.00000  Uiso   1.00
H830   H     0.20006   0.44035   0.87027   0.00000  Uiso   1.00
C831   C     0.23173   0.62055   0.66000   0.00000  Uiso   1.00
N832   N     0.25736   0.60171   0.62337   0.00000  Uiso   1.00
C833   C     0.49986   0.57976   0.75057   0.00000  Uiso   1.00
C834   C     0.47715   0.48950   0.99211   0.00000  Uiso   1.00
C835   C     0.48731   0.47873   0.93714   0.00000  Uiso   1.00
C836   C     0.51486   0.48745   0.51361   0.00000  Uiso   1.00
C837   C     0.55754   0.46446   0.98479   0.00000  Uiso   1.00
C838   C     0.56315   0.44690   0.93327   0.00000  Uiso   1.00
C839   C     0.52850   0.45450   0.90976   0.00000  Uiso   1.00
C840   C     0.51237   0.50863   0.56201   0.00000  Uiso   1.00
C841   C     0.58563   0.47476   0.56087   0.00000  Uiso   1.00
C842   C     0.45578   0.49263   0.91107   0.00000  Uiso   1.00
C843   C     0.53278   0.64418   0.70608   0.00000  Uiso   1.00
C844   C     0.47329   0.49759   0.85208   0.00000  Uiso   1.00
C845   C     0.53315   0.35413   0.70606   0.00000  Uiso   1.00
C846   C     0.50012   0.37596   0.75012   0.00000  Uiso   1.00
C847   C     0.46758   0.35565   0.79493   0.00000  Uiso   1.00
C848   C     0.46737   0.64563   0.79508   0.00000  Uiso   1.00
C849   C     0.49991   0.62391   0.75056   0.00000  Uiso   1.00
C850   C     0.65263   0.47354   0.71633   0.00000  Uiso   1.00
C851   C     0.36718   0.47343   0.71625   0.00000  Uiso   1.00
C852   C     0.34734   0.52641   0.78375   0.00000  Uiso   1.00
C853   C     0.63280   0.52653   0.78380   0.00000  Uiso   1.00
C854   C     0.50008   0.42019   0.74973   0.00000  Uiso   1.00
C855   C     0.52677   0.50074   0.64779   0.00000  Uiso   1.00
C856   C     0.59335   0.45971   0.50840   0.00000  Uiso   1.00
C857   C     0.54369   0.49711   0.58873   0.00000  Uiso   1.00
C858   C     0.40926   0.50607   0.94228   0.00000  Uiso   1.00
C859   C     0.39546   0.50804   0.99872   0.00000  Uiso   1.00
C860   C     0.42928   0.50056   0.52363   0.00000  Uiso   1.00
H861   H     0.41726   0.50242   0.56757   0.00000  Uiso   1.00
N862   N     0.38093   0.50001   0.75001   0.00000  Uiso   1.00
N863   N     0.61906   0.49998   0.75001   0.00000  Uiso   1.00
O864   O     0.46179   0.56108   0.75001   0.00000  Uiso   1.00
O865   O     0.53823   0.56107   0.75001   0.00000  Uiso   1.00
O866   O     0.44280   0.50000   0.82681   0.00000  Uiso   1.00
O867   O     0.51924   0.49999   0.82681   0.00000  Uiso   1.00
O868   O     0.46177   0.43893   0.75000   0.00000  Uiso   1.00
O869   O     0.53821   0.43892   0.75000   0.00000  Uiso   1.00
O870   O     0.48076   0.50001   0.67319   0.00000  Uiso   1.00
O871   O     0.55720   0.50000   0.67319   0.00000  Uiso   1.00
Zn872  Zn    0.44896   0.50001   0.75000   0.00000  Uiso   1.00
Zn873  Zn    0.55104   0.49999   0.75000   0.00000  Uiso   1.00
H874   H     0.61147   0.46763   0.58035   0.00000  Uiso   1.00
C875   C     0.56715   0.37590   0.66080   0.00000  Uiso   1.00
N876   N     0.59456   0.39288   0.62465   0.00000  Uiso   1.00
C877   C     0.43613   0.37926   0.84152   0.00000  Uiso   1.00
N878   N     0.41125   0.39807   0.87866   0.00000  Uiso   1.00
C879   C     0.43490   0.62346   0.84125   0.00000  Uiso   1.00
N880   N     0.40907   0.60578   0.87796   0.00000  Uiso   1.00
H881   H     0.64226   0.45249   0.68946   0.00000  Uiso   1.00
C882   C     0.40125   0.44489   0.68001   0.00000  Uiso   1.00
N883   N     0.42853   0.42187   0.65071   0.00000  Uiso   1.00
H884   H     0.35772   0.54746   0.81062   0.00000  Uiso   1.00
C885   C     0.59875   0.55513   0.81995   0.00000  Uiso   1.00
N886   N     0.57148   0.57820   0.84915   0.00000  Uiso   1.00
C887   C     0.60473   0.42221   0.90251   0.00000  Uiso   1.00
N888   N     0.63794   0.40244   0.87772   0.00000  Uiso   1.00
H889   H     0.62624   0.44258   0.98775   0.00000  Uiso   1.00
C890   C     0.48262   0.54567   0.58152   0.00000  Uiso   1.00
N891   N     0.45913   0.57524   0.59717   0.00000  Uiso   1.00
H892   H     0.38390   0.51554   0.92310   0.00000  Uiso   1.00
H893   H     0.35914   0.51712   0.52305   0.00000  Uiso   1.00
H894   H     0.53340   0.44035   0.87027   0.00000  Uiso   1.00
C895   C     0.56507   0.62055   0.66000   0.00000  Uiso   1.00
N896   N     0.59070   0.60171   0.62337   0.00000  Uiso   1.00
C897   C     0.83319   0.57976   0.75057   0.00000  Uiso   1.00
C898   C     0.81048   0.48950   0.99211   0.00000  Uiso   1.00
C899   C     0.82064   0.47873   0.93714   0.00000  Uiso   1.00
C900   C     0.84820   0.48745   0.51361   0.00000  Uiso   1.00
C901   C     0.89087   0.46446   0.98479   0.00000  Uiso   1.00
C902   C     0.89648   0.44690   0.93327   0.00000  Uiso   1.00
C903   C     0.86183   0.45450   0.90976   0.00000  Uiso   1.00
C904   C     0.84570   0.50863   0.56201   0.00000  Uiso   1.00
C905   C     0.91896   0.47476   0.56087   0.00000  Uiso   1.00
C906   C     0.78911   0.49263   0.91107   0.00000  Uiso   1.00
C907   C     0.86611   0.64418   0.70608   0.00000  Uiso   1.00
C908   C     0.80662   0.49759   0.85208   0.00000  Uiso   1.00
C909   C     0.86648   0.35413   0.70606   0.00000  Uiso   1.00
C910   C     0.83345   0.37596   0.75012   0.00000  Uiso   1.00
C911   C     0.80091   0.35565   0.79493   0.00000  Uiso   1.00
C912   C     0.80071   0.64563   0.79508   0.00000  Uiso   1.00
C913   C     0.83325   0.62391   0.75056   0.00000  Uiso   1.00
C914   C     0.98596   0.47354   0.71633   0.00000  Uiso   1.00
C915   C     0.70051   0.47343   0.71625   0.00000  Uiso   1.00
C916   C     0.68068   0.52641   0.78375   0.00000  Uiso   1.00
C917   C     0.96613   0.52653   0.78380   0.00000  Uiso   1.00
C918   C     0.83341   0.42019   0.74973   0.00000  Uiso   1.00
C919   C     0.86010   0.50074   0.64779   0.00000  Uiso   1.00
C920   C     0.92668   0.45971   0.50840   0.00000  Uiso   1.00
C921   C     0.87702   0.49711   0.58873   0.00000  Uiso   1.00
C922   C     0.74259   0.50607   0.94228   0.00000  Uiso   1.00
C923   C     0.72879   0.50804   0.99872   0.00000  Uiso   1.00
C924   C     0.76262   0.50056   0.52363   0.00000  Uiso   1.00
H925   H     0.75059   0.50242   0.56757   0.00000  Uiso   1.00
N926   N     0.71426   0.50001   0.75001   0.00000  Uiso   1.00
N927   N     0.95239   0.49998   0.75001   0.00000  Uiso   1.00
O928   O     0.79512   0.56108   0.75001   0.00000  Uiso   1.00
O929   O     0.87157   0.56107   0.75001   0.00000  Uiso   1.00
O930   O     0.77613   0.50000   0.82681   0.00000  Uiso   1.00
O931   O     0.85258   0.49999   0.82681   0.00000  Uiso   1.00
O932   O     0.79510   0.43893   0.75000   0.00000  Uiso   1.00
O933   O     0.87154   0.43892   0.75000   0.00000  Uiso   1.00
O934   O     0.81409   0.50001   0.67319   0.00000  Uiso   1.00
O935   O     0.89053   0.50000   0.67319   0.00000  Uiso   1.00
Zn936  Zn    0.78229   0.50001   0.75000   0.00000  Uiso   1.00
Zn937  Zn    0.88438   0.49999   0.75000   0.00000  Uiso   1.00
H938   H     0.94481   0.46763   0.58035   0.00000  Uiso   1.00
C939   C     0.90048   0.37590   0.66080   0.00000  Uiso   1.00
N940   N     0.92789   0.39288   0.62465   0.00000  Uiso   1.00
C941   C     0.76946   0.37926   0.84152   0.00000  Uiso   1.00
N942   N     0.74459   0.39807   0.87866   0.00000  Uiso   1.00
C943   C     0.76823   0.62346   0.84125   0.00000  Uiso   1.00
N944   N     0.74240   0.60578   0.87796   0.00000  Uiso   1.00
H945   H     0.97559   0.45249   0.68946   0.00000  Uiso   1.00
C946   C     0.73459   0.44489   0.68001   0.00000  Uiso   1.00
N947   N     0.76187   0.42187   0.65071   0.00000  Uiso   1.00
H948   H     0.69105   0.54746   0.81062   0.00000  Uiso   1.00
C949   C     0.93208   0.55513   0.81995   0.00000  Uiso   1.00
N950   N     0.90482   0.57820   0.84915   0.00000  Uiso   1.00
C951   C     0.93806   0.42221   0.90251   0.00000  Uiso   1.00
N952   N     0.97127   0.40244   0.87772   0.00000  Uiso   1.00
H953   H     0.95957   0.44258   0.98775   0.00000  Uiso   1.00
C954   C     0.81596   0.54567   0.58152   0.00000  Uiso   1.00
N955   N     0.79246   0.57524   0.59717   0.00000  Uiso   1.00
H956   H     0.71723   0.51554   0.92310   0.00000  Uiso   1.00
H957   H     0.69247   0.51712   0.52305   0.00000  Uiso   1.00
H958   H     0.86673   0.44035   0.87027   0.00000  Uiso   1.00
C959   C     0.89840   0.62055   0.66000   0.00000  Uiso   1.00
N960   N     0.92403   0.60171   0.62337   0.00000  Uiso   1.00
C961   C     0.16653   0.91309   0.75057   0.00000  Uiso   1.00
C962   C     0.14381   0.82283   0.99211   0.00000  Uiso   1.00
C963   C     0.15398   0.81206   0.93714   0.00000  Uiso   1.00
C964   C     0.18153   0.82078   0.51361   0.00000  Uiso   1.00
C965   C     0.22420   0.79780   0.98479   0.00000  Uiso   1.00
C966   C     0.22982   0.78024   0.93327   0.00000  Uiso   1.00
C967   C     0.19516   0.78783   0.90976   0.00000  Uiso   1.00
C968   C     0.17903   0.84196   0.56201   0.00000  Uiso   1.00
C969   C     0.25229   0.80810   0.56087   0.00000  Uiso   1.00
C970   C     0.12245   0.82596   0.91107   0.00000  Uiso   1.00
C971   C     0.19944   0.97751   0.70608   0.00000  Uiso   1.00
C972   C     0.13996   0.83092   0.85208   0.00000  Uiso   1.00
C973   C     0.19982   0.68746   0.70606   0.00000  Uiso   1.00
C974   C     0.16678   0.70930   0.75012   0.00000  Uiso   1.00
C975   C     0.13424   0.68898   0.79493   0.00000  Uiso   1.00
C976   C     0.13404   0.97897   0.79508   0.00000  Uiso   1.00
C977   C     0.16658   0.95724   0.75056   0.00000  Uiso   1.00
C978   C     0.31930   0.80687   0.71633   0.00000  Uiso   1.00
C979   C     0.03385   0.80677   0.71625   0.00000  Uiso   1.00
C980   C     0.01401   0.85975   0.78375   0.00000  Uiso   1.00
C981   C     0.29947   0.85986   0.78380   0.00000  Uiso   1.00
C982   C     0.16674   0.75352   0.74973   0.00000  Uiso   1.00
C983   C     0.19344   0.83407   0.64779   0.00000  Uiso   1.00
C984   C     0.26001   0.79304   0.50840   0.00000  Uiso   1.00
C985   C     0.21036   0.83045   0.58873   0.00000  Uiso   1.00
C986   C     0.07592   0.83940   0.94228   0.00000  Uiso   1.00
C987   C     0.06213   0.84137   0.99872   0.00000  Uiso   1.00
C988   C     0.09595   0.83389   0.52363   0.00000  Uiso   1.00
H989   H     0.08393   0.83575   0.56757   0.00000  Uiso   1.00
N990   N     0.04760   0.83334   0.75001   0.00000  Uiso   1.00
N991   N     0.28573   0.83331   0.75001   0.00000  Uiso   1.00
O992   O     0.12846   0.89442   0.75001   0.00000  Uiso   1.00
O993   O     0.20490   0.89441   0.75001   0.00000  Uiso   1.00
O994   O     0.10947   0.83333   0.82681   0.00000  Uiso   1.00
O995   O     0.18591   0.83332   0.82681   0.00000  Uiso   1.00
O996   O     0.12843   0.77226   0.75000   0.00000  Uiso   1.00
O997   O     0.20488   0.77225   0.75000   0.00000  Uiso   1.00
O998   O     0.14742   0.83335   0.67319   0.00000  Uiso   1.00
O999   O     0.22387   0.83334   0.67319   0.00000  Uiso   1.00
Zn1000 Zn    0.11562   0.83334   0.75000   0.00000  Uiso   1.00
Zn1001 Zn    0.21771   0.83333   0.75000   0.00000  Uiso   1.00
H1002  H     0.27814   0.80096   0.58035   0.00000  Uiso   1.00
C1003  C     0.23382   0.70923   0.66080   0.00000  Uiso   1.00
N1004  N     0.26123   0.72621   0.62465   0.00000  Uiso   1.00
C1005  C     0.10280   0.71259   0.84152   0.00000  Uiso   1.00
N1006  N     0.07792   0.73140   0.87866   0.00000  Uiso   1.00
C1007  C     0.10156   0.95680   0.84125   0.00000  Uiso   1.00
N1008  N     0.07574   0.93912   0.87796   0.00000  Uiso   1.00
H1009  H     0.30892   0.78582   0.68946   0.00000  Uiso   1.00
C1010  C     0.06792   0.77822   0.68001   0.00000  Uiso   1.00
N1011  N     0.09520   0.75521   0.65071   0.00000  Uiso   1.00
H1012  H     0.02438   0.88079   0.81062   0.00000  Uiso   1.00
C1013  C     0.26542   0.88847   0.81995   0.00000  Uiso   1.00
N1014  N     0.23815   0.91154   0.84915   0.00000  Uiso   1.00
C1015  C     0.27140   0.75554   0.90251   0.00000  Uiso   1.00
N1016  N     0.30460   0.73577   0.87772   0.00000  Uiso   1.00
H1017  H     0.29290   0.77591   0.98775   0.00000  Uiso   1.00
C1018  C     0.14929   0.87900   0.58152   0.00000  Uiso   1.00
N1019  N     0.12580   0.90857   0.59717   0.00000  Uiso   1.00
H1020  H     0.05057   0.84888   0.92310   0.00000  Uiso   1.00
H1021  H     0.02581   0.85045   0.52305   0.00000  Uiso   1.00
H1022  H     0.20006   0.77369   0.87027   0.00000  Uiso   1.00
C1023  C     0.23173   0.95388   0.66000   0.00000  Uiso   1.00
N1024  N     0.25736   0.93505   0.62337   0.00000  Uiso   1.00
C1025  C     0.49986   0.91309   0.75057   0.00000  Uiso   1.00
C1026  C     0.47715   0.82283   0.99211   0.00000  Uiso   1.00
C1027  C     0.48731   0.81206   0.93714   0.00000  Uiso   1.00
C1028  C     0.51486   0.82078   0.51361   0.00000  Uiso   1.00
C1029  C     0.55754   0.79780   0.98479   0.00000  Uiso   1.00
C1030  C     0.56315   0.78024   0.93327   0.00000  Uiso   1.00
C1031  C     0.52850   0.78783   0.90976   0.00000  Uiso   1.00
C1032  C     0.51237   0.84196   0.56201   0.00000  Uiso   1.00
C1033  C     0.58563   0.80810   0.56087   0.00000  Uiso   1.00
C1034  C     0.45578   0.82596   0.91107   0.00000  Uiso   1.00
C1035  C     0.53278   0.97751   0.70608   0.00000  Uiso   1.00
C1036  C     0.47329   0.83092   0.85208   0.00000  Uiso   1.00
C1037  C     0.53315   0.68746   0.70606   0.00000  Uiso   1.00
C1038  C     0.50012   0.70930   0.75012   0.00000  Uiso   1.00
C1039  C     0.46758   0.68898   0.79493   0.00000  Uiso   1.00
C1040  C     0.46737   0.97897   0.79508   0.00000  Uiso   1.00
C1041  C     0.49991   0.95724   0.75056   0.00000  Uiso   1.00
C1042  C     0.65263   0.80687   0.71633   0.00000  Uiso   1.00
C1043  C     0.36718   0.80677   0.71625   0.00000  Uiso   1.00
C1044  C     0.34734   0.85975   0.78375   0.00000  Uiso   1.00
C1045  C     0.63280   0.85986   0.78380   0.00000  Uiso   1.00
C1046  C     0.50008   0.75352   0.74973   0.00000  Uiso   1.00
C1047  C     0.52677   0.83407   0.64779   0.00000  Uiso   1.00
C1048  C     0.59335   0.79304   0.50840   0.00000  Uiso   1.00
C1049  C     0.54369   0.83045   0.58873   0.00000  Uiso   1.00
C1050  C     0.40926   0.83940   0.94228   0.00000  Uiso   1.00
C1051  C     0.39546   0.84137   0.99872   0.00000  Uiso   1.00
C1052  C     0.42928   0.83389   0.52363   0.00000  Uiso   1.00
H1053  H     0.41726   0.83575   0.56757   0.00000  Uiso   1.00
N1054  N     0.38093   0.83334   0.75001   0.00000  Uiso   1.00
N1055  N     0.61906   0.83331   0.75001   0.00000  Uiso   1.00
O1056  O     0.46179   0.89442   0.75001   0.00000  Uiso   1.00
O1057  O     0.53823   0.89441   0.75001   0.00000  Uiso   1.00
O1058  O     0.44280   0.83333   0.82681   0.00000  Uiso   1.00
O1059  O     0.51924   0.83332   0.82681   0.00000  Uiso   1.00
O1060  O     0.46177   0.77226   0.75000   0.00000  Uiso   1.00
O1061  O     0.53821   0.77225   0.75000   0.00000  Uiso   1.00
O1062  O     0.48076   0.83335   0.67319   0.00000  Uiso   1.00
O1063  O     0.55720   0.83334   0.67319   0.00000  Uiso   1.00
Zn1064 Zn    0.44896   0.83334   0.75000   0.00000  Uiso   1.00
Zn1065 Zn    0.55104   0.83333   0.75000   0.00000  Uiso   1.00
H1066  H     0.61147   0.80096   0.58035   0.00000  Uiso   1.00
C1067  C     0.56715   0.70923   0.66080   0.00000  Uiso   1.00
N1068  N     0.59456   0.72621   0.62465   0.00000  Uiso   1.00
C1069  C     0.43613   0.71259   0.84152   0.00000  Uiso   1.00
N1070  N     0.41125   0.73140   0.87866   0.00000  Uiso   1.00
C1071  C     0.43490   0.95680   0.84125   0.00000  Uiso   1.00
N1072  N     0.40907   0.93912   0.87796   0.00000  Uiso   1.00
H1073  H     0.64226   0.78582   0.68946   0.00000  Uiso   1.00
C1074  C     0.40125   0.77822   0.68001   0.00000  Uiso   1.00
N1075  N     0.42853   0.75521   0.65071   0.00000  Uiso   1.00
H1076  H     0.35772   0.88079   0.81062   0.00000  Uiso   1.00
C1077  C     0.59875   0.88847   0.81995   0.00000  Uiso   1.00
N1078  N     0.57148   0.91154   0.84915   0.00000  Uiso   1.00
C1079  C     0.60473   0.75554   0.90251   0.00000  Uiso   1.00
N1080  N     0.63794   0.73577   0.87772   0.00000  Uiso   1.00
H1081  H     0.62624   0.77591   0.98775   0.00000  Uiso   1.00
C1082  C     0.48262   0.87900   0.58152   0.00000  Uiso   1.00
N1083  N     0.45913   0.90857   0.59717   0.00000  Uiso   1.00
H1084  H     0.38390   0.84888   0.92310   0.00000  Uiso   1.00
H1085  H     0.35914   0.85045   0.52305   0.00000  Uiso   1.00
H1086  H     0.53340   0.77369   0.87027   0.00000  Uiso   1.00
C1087  C     0.56507   0.95388   0.66000   0.00000  Uiso   1.00
N1088  N     0.59070   0.93505   0.62337   0.00000  Uiso   1.00
C1089  C     0.83319   0.91309   0.75057   0.00000  Uiso   1.00
C1090  C     0.81048   0.82283   0.99211   0.00000  Uiso   1.00
C1091  C     0.82064   0.81206   0.93714   0.00000  Uiso   1.00
C1092  C     0.84820   0.82078   0.51361   0.00000  Uiso   1.00
C1093  C     0.89087   0.79780   0.98479   0.00000  Uiso   1.00
C1094  C     0.89648   0.78024   0.93327   0.00000  Uiso   1.00
C1095  C     0.86183   0.78783   0.90976   0.00000  Uiso   1.00
C1096  C     0.84570   0.84196   0.56201   0.00000  Uiso   1.00
C1097  C     0.91896   0.80810   0.56087   0.00000  Uiso   1.00
C1098  C     0.78911   0.82596   0.91107   0.00000  Uiso   1.00
C1099  C     0.86611   0.97751   0.70608   0.00000  Uiso   1.00
C1100  C     0.80662   0.83092   0.85208   0.00000  Uiso   1.00
C1101  C     0.86648   0.68746   0.70606   0.00000  Uiso   1.00
C1102  C     0.83345   0.70930   0.75012   0.00000  Uiso   1.00
C1103  C     0.80091   0.68898   0.79493   0.00000  Uiso   1.00
C1104  C     0.80071   0.97897   0.79508   0.00000  Uiso   1.00
C1105  C     0.83325   0.95724   0.75056   0.00000  Uiso   1.00
C1106  C     0.98596   0.80687   0.71633   0.00000  Uiso   1.00
C1107  C     0.70051   0.80677   0.71625   0.00000  Uiso   1.00
C1108  C     0.68068   0.85975   0.78375   0.00000  Uiso   1.00
C1109  C     0.96613   0.85986   0.78380   0.00000  Uiso   1.00
C1110  C     0.83341   0.75352   0.74973   0.00000  Uiso   1.00
C1111  C     0.86010   0.83407   0.64779   0.00000  Uiso   1.00
C1112  C     0.92668   0.79304   0.50840   0.00000  Uiso   1.00
C1113  C     0.87702   0.83045   0.58873   0.00000  Uiso   1.00
C1114  C     0.74259   0.83940   0.94228   0.00000  Uiso   1.00
C1115  C     0.72879   0.84137   0.99872   0.00000  Uiso   1.00
C1116  C     0.76262   0.83389   0.52363   0.00000  Uiso   1.00
H1117  H     0.75059   0.83575   0.56757   0.00000  Uiso   1.00
N1118  N     0.71426   0.83334   0.75001   0.00000  Uiso   1.00
N1119  N     0.95239   0.83331   0.75001   0.00000  Uiso   1.00
O1120  O     0.79512   0.89442   0.75001   0.00000  Uiso   1.00
O1121  O     0.87157   0.89441   0.75001   0.00000  Uiso   1.00
O1122  O     0.77613   0.83333   0.82681   0.00000  Uiso   1.00
O1123  O     0.85258   0.83332   0.82681   0.00000  Uiso   1.00
O1124  O     0.79510   0.77226   0.75000   0.00000  Uiso   1.00
O1125  O     0.87154   0.77225   0.75000   0.00000  Uiso   1.00
O1126  O     0.81409   0.83335   0.67319   0.00000  Uiso   1.00
O1127  O     0.89053   0.83334   0.67319   0.00000  Uiso   1.00
Zn1128 Zn    0.78229   0.83334   0.75000   0.00000  Uiso   1.00
Zn1129 Zn    0.88438   0.83333   0.75000   0.00000  Uiso   1.00
H1130  H     0.94481   0.80096   0.58035   0.00000  Uiso   1.00
C1131  C     0.90048   0.70923   0.66080   0.00000  Uiso   1.00
N1132  N     0.92789   0.72621   0.62465   0.00000  Uiso   1.00
C1133  C     0.76946   0.71259   0.84152   0.00000  Uiso   1.00
N1134  N     0.74459   0.73140   0.87866   0.00000  Uiso   1.00
C1135  C     0.76823   0.95680   0.84125   0.00000  Uiso   1.00
N1136  N     0.74240   0.93912   0.87796   0.00000  Uiso   1.00
H1137  H     0.97559   0.78582   0.68946   0.00000  Uiso   1.00
C1138  C     0.73459   0.77822   0.68001   0.00000  Uiso   1.00
N1139  N     0.76187   0.75521   0.65071   0.00000  Uiso   1.00
H1140  H     0.69105   0.88079   0.81062   0.00000  Uiso   1.00
C1141  C     0.93208   0.88847   0.81995   0.00000  Uiso   1.00
N1142  N     0.90482   0.91154   0.84915   0.00000  Uiso   1.00
C1143  C     0.93806   0.75554   0.90251   0.00000  Uiso   1.00
N1144  N     0.97127   0.73577   0.87772   0.00000  Uiso   1.00
H1145  H     0.95957   0.77591   0.98775   0.00000  Uiso   1.00
C1146  C     0.81596   0.87900   0.58152   0.00000  Uiso   1.00
N1147  N     0.79246   0.90857   0.59717   0.00000  Uiso   1.00
H1148  H     0.71723   0.84888   0.92310   0.00000  Uiso   1.00
H1149  H     0.69247   0.85045   0.52305   0.00000  Uiso   1.00
H1150  H     0.86673   0.77369   0.87027   0.00000  Uiso   1.00
C1151  C     0.89840   0.95388   0.66000   0.00000  Uiso   1.00
N1152  N     0.92403   0.93505   0.62337   0.00000  Uiso   1.00
loop_
_geom_bond_atom_site_label_1
_geom_bond_atom_site_label_2
_geom_bond_distance
_geom_bond_site_symmetry_2
_ccdc_geom_bond_type
C1     C17     1.412   .     S
C1     O32     1.280   .     A
C1     O33     1.281   .     A
C2     C3      1.401   .     A
C2     C580    1.416   .     S
C2     C604    1.416   .     S
C3     C10     1.409   .     A
C3     C7      1.410   .     A
C4     C8      1.405   .     A
C4     C578    1.416   1_554 S
C4     C581    1.427   1_554 S
C5     C6      1.407   .     A
C5     C580    1.427   .     S
C5     C600    1.409   .     S
C6     C7      1.390   .     A
C6     C55     1.446   .     S
C7     H62     1.084   .     S
C8     C25     1.394   .     A
C8     C58     1.454   .     S
C9     H42     1.082   .     S
C9     C25     1.397   .     A
C9     C24     1.389   .     A
C10    C26     1.403   .     A
C10    C12     1.461   .     S
C11    C63     1.456   .     S
C11    C17     1.403   .     A
C11    C205    1.384   .     S
C12    O35     1.296   .     A
C12    O34     1.293   .     A
C13    C43     1.452   .     S
C13    C14     1.405   .     A
C13    C395    1.384   1_545 S
C14    C22     1.414   .     S
C14    C15     1.404   .     A
C15    C45     1.454   .     S
C15    C400    1.386   1_545 S
C16    C47     1.454   .     S
C16    C17     1.404   .     A
C16    C207    1.386   .     S
C18    N31     1.363   .     A
C18    H49     1.083   .     S
C18    C83     1.418   .     S
C19    C50     1.438   .     S
C19    N30     1.374   .     A
C19    C146    1.418   1_455 S
C20    H52     1.083   .     S
C20    N30     1.363   .     A
C20    C149    1.418   1_455 S
C21    C53     1.438   .     S
C21    N31     1.374   .     A
C21    C84     1.418   .     S
C22    O37     1.280   .     A
C22    O36     1.283   .     A
C23    O38     1.296   .     A
C23    O39     1.291   .     A
C23    C25     1.454   .     S
C24    C581    1.409   1_554 S
C24    H633    1.083   1_554 S
C26    C27     1.390   .     A
C26    H60     1.083   .     S
C27    C604    1.394   .     S
C27    H637    1.083   .     S
C28    H29     1.081   .     S
C28    C578    1.416   1_554 S
C28    C603    1.394   1_554 S
N30    Zn40    2.016   .     S
N31    Zn41    2.016   .     S
O32    Zn40    1.989   .     S
O33    Zn41    1.990   .     S
O34    Zn40    1.954   .     S
O35    Zn41    1.904   .     S
O36    Zn40    1.990   .     S
O37    Zn41    1.989   .     S
O38    Zn40    1.904   .     S
O39    Zn41    1.954   .     S
C43    N44     1.156   .     T
C45    N46     1.157   .     T
C47    N48     1.157   .     T
C50    N51     1.158   .     T
C53    N54     1.158   .     T
C55    N56     1.157   .     T
H57    C600    1.083   .     S
C58    N59     1.158   .     T
H61    C603    1.083   1_554 S
C63    N64     1.158   .     T
C65    C81     1.412   .     S
C65    O96     1.280   .     A
C65    O97     1.281   .     A
C66    C67     1.401   .     A
C66    C644    1.416   .     S
C66    C668    1.416   .     S
C67    C74     1.409   .     A
C67    C71     1.410   .     A
C68    C72     1.405   .     A
C68    C642    1.416   1_554 S
C68    C645    1.427   1_554 S
C69    C70     1.407   .     A
C69    C644    1.427   .     S
C69    C664    1.409   .     S
C70    C71     1.390   .     A
C70    C119    1.446   .     S
C71    H126    1.084   .     S
C72    C89     1.394   .     A
C72    C122    1.454   .     S
C73    H106    1.082   .     S
C73    C89     1.397   .     A
C73    C88     1.389   .     A
C74    C90     1.403   .     A
C74    C76     1.461   .     S
C75    C127    1.456   .     S
C75    C81     1.403   .     A
C75    C269    1.384   .     S
C76    O99     1.296   .     A
C76    O98     1.293   .     A
C77    C107    1.452   .     S
C77    C78     1.405   .     A
C77    C459    1.384   1_545 S
C78    C86     1.414   .     S
C78    C79     1.404   .     A
C79    C109    1.454   .     S
C79    C464    1.386   1_545 S
C80    C111    1.454   .     S
C80    C81     1.404   .     A
C80    C271    1.386   .     S
C82    N95     1.363   .     A
C82    H113    1.083   .     S
C82    C147    1.418   .     S
C83    C114    1.438   .     S
C83    N94     1.374   .     A
C84    H116    1.083   .     S
C84    N94     1.363   .     A
C85    C117    1.438   .     S
C85    N95     1.374   .     A
C85    C148    1.418   .     S
C86    O101    1.280   .     A
C86    O100    1.283   .     A
C87    O102    1.296   .     A
C87    O103    1.291   .     A
C87    C89     1.454   .     S
C88    C645    1.409   1_554 S
C88    H697    1.083   1_554 S
C90    C91     1.390   .     A
C90    H124    1.083   .     S
C91    C668    1.394   .     S
C91    H701    1.083   .     S
C92    H93     1.081   .     S
C92    C642    1.416   1_554 S
C92    C667    1.394   1_554 S
N94    Zn104   2.016   .     S
N95    Zn105   2.016   .     S
O96    Zn104   1.989   .     S
O97    Zn105   1.990   .     S
O98    Zn104   1.954   .     S
O99    Zn105   1.904   .     S
O100   Zn104   1.990   .     S
O101   Zn105   1.989   .     S
O102   Zn104   1.904   .     S
O103   Zn105   1.954   .     S
C107   N108    1.156   .     T
C109   N110    1.157   .     T
C111   N112    1.157   .     T
C114   N115    1.158   .     T
C117   N118    1.158   .     T
C119   N120    1.157   .     T
H121   C664    1.083   .     S
C122   N123    1.158   .     T
H125   C667    1.083   1_554 S
C127   N128    1.158   .     T
C129   C145    1.412   .     S
C129   O160    1.280   .     A
C129   O161    1.281   .     A
C130   C131    1.401   .     A
C130   C708    1.416   .     S
C130   C732    1.416   .     S
C131   C138    1.409   .     A
C131   C135    1.410   .     A
C132   C136    1.405   .     A
C132   C706    1.416   1_554 S
C132   C709    1.427   1_554 S
C133   C134    1.407   .     A
C133   C708    1.427   .     S
C133   C728    1.409   .     S
C134   C135    1.390   .     A
C134   C183    1.446   .     S
C135   H190    1.084   .     S
C136   C153    1.394   .     A
C136   C186    1.454   .     S
C137   H170    1.082   .     S
C137   C153    1.397   .     A
C137   C152    1.389   .     A
C138   C154    1.403   .     A
C138   C140    1.461   .     S
C139   C191    1.456   .     S
C139   C145    1.403   .     A
C139   C333    1.384   .     S
C140   O163    1.296   .     A
C140   O162    1.293   .     A
C141   C171    1.452   .     S
C141   C142    1.405   .     A
C141   C523    1.384   1_545 S
C142   C150    1.414   .     S
C142   C143    1.404   .     A
C143   C173    1.454   .     S
C143   C528    1.386   1_545 S
C144   C175    1.454   .     S
C144   C145    1.404   .     A
C144   C335    1.386   .     S
C146   N159    1.363   .     A
C146   H177    1.083   .     S
C146   C19     1.418   1_655 S
C147   C178    1.438   .     S
C147   N158    1.374   .     A
C148   H180    1.083   .     S
C148   N158    1.363   .     A
C149   C181    1.438   .     S
C149   N159    1.374   .     A
C149   C20     1.418   1_655 S
C150   O165    1.280   .     A
C150   O164    1.283   .     A
C151   O166    1.296   .     A
C151   O167    1.291   .     A
C151   C153    1.454   .     S
C152   C709    1.409   1_554 S
C152   H761    1.083   1_554 S
C154   C155    1.390   .     A
C154   H188    1.083   .     S
C155   C732    1.394   .     S
C155   H765    1.083   .     S
C156   H157    1.081   .     S
C156   C706    1.416   1_554 S
C156   C731    1.394   1_554 S
N158   Zn168   2.016   .     S
N159   Zn169   2.016   .     S
O160   Zn168   1.989   .     S
O161   Zn169   1.990   .     S
O162   Zn168   1.954   .     S
O163   Zn169   1.904   .     S
O164   Zn168   1.990   .     S
O165   Zn169   1.989   .     S
O166   Zn168   1.904   .     S
O167   Zn169   1.954   .     S
C171   N172    1.156   .     T
C173   N174    1.157   .     T
C175   N176    1.157   .     T
C178   N179    1.158   .     T
C181   N182    1.158   .     T
C183   N184    1.157   .     T
H185   C728    1.083   .     S
C186   N187    1.158   .     T
H189   C731    1.083   1_554 S
C191   N192    1.158   .     T
C193   C209    1.412   .     S
C193   O224    1.280   .     A
C193   O225    1.281   .     A
C194   C195    1.401   .     A
C194   C772    1.416   .     S
C194   C796    1.416   .     S
C195   C202    1.409   .     A
C195   C199    1.410   .     A
C196   C200    1.405   .     A
C196   C770    1.416   1_554 S
C196   C773    1.427   1_554 S
C197   C198    1.407   .     A
C197   C772    1.427   .     S
C197   C792    1.409   .     S
C198   C199    1.390   .     A
C198   C247    1.446   .     S
C199   H254    1.084   .     S
C200   C217    1.394   .     A
C200   C250    1.454   .     S
C201   H234    1.082   .     S
C201   C217    1.397   .     A
C201   C216    1.389   .     A
C202   C218    1.403   .     A
C202   C204    1.461   .     S
C203   C255    1.456   .     S
C203   C209    1.403   .     A
C203   C397    1.384   .     S
C204   O227    1.296   .     A
C204   O226    1.293   .     A
C205   C235    1.452   .     S
C205   C206    1.405   .     A
C206   C214    1.414   .     S
C206   C207    1.404   .     A
C207   C237    1.454   .     S
C208   C239    1.454   .     S
C208   C209    1.404   .     A
C208   C399    1.386   .     S
C210   N223    1.363   .     A
C210   H241    1.083   .     S
C210   C275    1.418   .     S
C211   C242    1.438   .     S
C211   N222    1.374   .     A
C211   C338    1.418   1_455 S
C212   H244    1.083   .     S
C212   N222    1.363   .     A
C212   C341    1.418   1_455 S
C213   C245    1.438   .     S
C213   N223    1.374   .     A
C213   C276    1.418   .     S
C214   O229    1.280   .     A
C214   O228    1.283   .     A
C215   O230    1.296   .     A
C215   O231    1.291   .     A
C215   C217    1.454   .     S
C216   C773    1.409   1_554 S
C216   H825    1.083   1_554 S
C218   C219    1.390   .     A
C218   H252    1.083   .     S
C219   C796    1.394   .     S
C219   H829    1.083   .     S
C220   H221    1.081   .     S
C220   C770    1.416   1_554 S
C220   C795    1.394   1_554 S
N222   Zn232   2.016   .     S
N223   Zn233   2.016   .     S
O224   Zn232   1.989   .     S
O225   Zn233   1.990   .     S
O226   Zn232   1.954   .     S
O227   Zn233   1.904   .     S
O228   Zn232   1.990   .     S
O229   Zn233   1.989   .     S
O230   Zn232   1.904   .     S
O231   Zn233   1.954   .     S
C235   N236    1.156   .     T
C237   N238    1.157   .     T
C239   N240    1.157   .     T
C242   N243    1.158   .     T
C245   N246    1.158   .     T
C247   N248    1.157   .     T
H249   C792    1.083   .     S
C250   N251    1.158   .     T
H253   C795    1.083   1_554 S
C255   N256    1.158   .     T
C257   C273    1.412   .     S
C257   O288    1.280   .     A
C257   O289    1.281   .     A
C258   C259    1.401   .     A
C258   C836    1.416   .     S
C258   C860    1.416   .     S
C259   C266    1.409   .     A
C259   C263    1.410   .     A
C260   C264    1.405   .     A
C260   C834    1.416   1_554 S
C260   C837    1.427   1_554 S
C261   C262    1.407   .     A
C261   C836    1.427   .     S
C261   C856    1.409   .     S
C262   C263    1.390   .     A
C262   C311    1.446   .     S
C263   H318    1.084   .     S
C264   C281    1.394   .     A
C264   C314    1.454   .     S
C265   H298    1.082   .     S
C265   C281    1.397   .     A
C265   C280    1.389   .     A
C266   C282    1.403   .     A
C266   C268    1.461   .     S
C267   C319    1.456   .     S
C267   C273    1.403   .     A
C267   C461    1.384   .     S
C268   O291    1.296   .     A
C268   O290    1.293   .     A
C269   C299    1.452   .     S
C269   C270    1.405   .     A
C270   C278    1.414   .     S
C270   C271    1.404   .     A
C271   C301    1.454   .     S
C272   C303    1.454   .     S
C272   C273    1.404   .     A
C272   C463    1.386   .     S
C274   N287    1.363   .     A
C274   H305    1.083   .     S
C274   C339    1.418   .     S
C275   C306    1.438   .     S
C275   N286    1.374   .     A
C276   H308    1.083   .     S
C276   N286    1.363   .     A
C277   C309    1.438   .     S
C277   N287    1.374   .     A
C277   C340    1.418   .     S
C278   O293    1.280   .     A
C278   O292    1.283   .     A
C279   O294    1.296   .     A
C279   O295    1.291   .     A
C279   C281    1.454   .     S
C280   C837    1.409   1_554 S
C280   H889    1.083   1_554 S
C282   C283    1.390   .     A
C282   H316    1.083   .     S
C283   C860    1.394   .     S
C283   H893    1.083   .     S
C284   H285    1.081   .     S
C284   C834    1.416   1_554 S
C284   C859    1.394   1_554 S
N286   Zn296   2.016   .     S
N287   Zn297   2.016   .     S
O288   Zn296   1.989   .     S
O289   Zn297   1.990   .     S
O290   Zn296   1.954   .     S
O291   Zn297   1.904   .     S
O292   Zn296   1.990   .     S
O293   Zn297   1.989   .     S
O294   Zn296   1.904   .     S
O295   Zn297   1.954   .     S
C299   N300    1.156   .     T
C301   N302    1.157   .     T
C303   N304    1.157   .     T
C306   N307    1.158   .     T
C309   N310    1.158   .     T
C311   N312    1.157   .     T
H313   C856    1.083   .     S
C314   N315    1.158   .     T
H317   C859    1.083   1_554 S
C319   N320    1.158   .     T
C321   C337    1.412   .     S
C321   O352    1.280   .     A
C321   O353    1.281   .     A
C322   C323    1.401   .     A
C322   C900    1.416   .     S
C322   C924    1.416   .     S
C323   C330    1.409   .     A
C323   C327    1.410   .     A
C324   C328    1.405   .     A
C324   C898    1.416   1_554 S
C324   C901    1.427   1_554 S
C325   C326    1.407   .     A
C325   C900    1.427   .     S
C325   C920    1.409   .     S
C326   C327    1.390   .     A
C326   C375    1.446   .     S
C327   H382    1.084   .     S
C328   C345    1.394   .     A
C328   C378    1.454   .     S
C329   H362    1.082   .     S
C329   C345    1.397   .     A
C329   C344    1.389   .     A
C330   C346    1.403   .     A
C330   C332    1.461   .     S
C331   C383    1.456   .     S
C331   C337    1.403   .     A
C331   C525    1.384   .     S
C332   O355    1.296   .     A
C332   O354    1.293   .     A
C333   C363    1.452   .     S
C333   C334    1.405   .     A
C334   C342    1.414   .     S
C334   C335    1.404   .     A
C335   C365    1.454   .     S
C336   C367    1.454   .     S
C336   C337    1.404   .     A
C336   C527    1.386   .     S
C338   N351    1.363   .     A
C338   H369    1.083   .     S
C338   C211    1.418   1_655 S
C339   C370    1.438   .     S
C339   N350    1.374   .     A
C340   H372    1.083   .     S
C340   N350    1.363   .     A
C341   C373    1.438   .     S
C341   N351    1.374   .     A
C341   C212    1.418   1_655 S
C342   O357    1.280   .     A
C342   O356    1.283   .     A
C343   O358    1.296   .     A
C343   O359    1.291   .     A
C343   C345    1.454   .     S
C344   C901    1.409   1_554 S
C344   H953    1.083   1_554 S
C346   C347    1.390   .     A
C346   H380    1.083   .     S
C347   C924    1.394   .     S
C347   H957    1.083   .     S
C348   H349    1.081   .     S
C348   C898    1.416   1_554 S
C348   C923    1.394   1_554 S
N350   Zn360   2.016   .     S
N351   Zn361   2.016   .     S
O352   Zn360   1.989   .     S
O353   Zn361   1.990   .     S
O354   Zn360   1.954   .     S
O355   Zn361   1.904   .     S
O356   Zn360   1.990   .     S
O357   Zn361   1.989   .     S
O358   Zn360   1.904   .     S
O359   Zn361   1.954   .     S
C363   N364    1.156   .     T
C365   N366    1.157   .     T
C367   N368    1.157   .     T
C370   N371    1.158   .     T
C373   N374    1.158   .     T
C375   N376    1.157   .     T
H377   C920    1.083   .     S
C378   N379    1.158   .     T
H381   C923    1.083   1_554 S
C383   N384    1.158   .     T
C385   C401    1.412   .     S
C385   O416    1.280   .     A
C385   O417    1.281   .     A
C386   C387    1.401   .     A
C386   C964    1.416   .     S
C386   C988    1.416   .     S
C387   C394    1.409   .     A
C387   C391    1.410   .     A
C388   C392    1.405   .     A
C388   C962    1.416   1_554 S
C388   C965    1.427   1_554 S
C389   C390    1.407   .     A
C389   C964    1.427   .     S
C389   C984    1.409   .     S
C390   C391    1.390   .     A
C390   C439    1.446   .     S
C391   H446    1.084   .     S
C392   C409    1.394   .     A
C392   C442    1.454   .     S
C393   H426    1.082   .     S
C393   C409    1.397   .     A
C393   C408    1.389   .     A
C394   C410    1.403   .     A
C394   C396    1.461   .     S
C395   C447    1.456   .     S
C395   C401    1.403   .     A
C395   C13     1.384   1_565 S
C396   O419    1.296   .     A
C396   O418    1.293   .     A
C397   C427    1.452   .     S
C397   C398    1.405   .     A
C398   C406    1.414   .     S
C398   C399    1.404   .     A
C399   C429    1.454   .     S
C400   C431    1.454   .     S
C400   C401    1.404   .     A
C400   C15     1.386   1_565 S
C402   N415    1.363   .     A
C402   H433    1.083   .     S
C402   C467    1.418   .     S
C403   C434    1.438   .     S
C403   N414    1.374   .     A
C403   C530    1.418   1_455 S
C404   H436    1.083   .     S
C404   N414    1.363   .     A
C404   C533    1.418   1_455 S
C405   C437    1.438   .     S
C405   N415    1.374   .     A
C405   C468    1.418   .     S
C406   O421    1.280   .     A
C406   O420    1.283   .     A
C407   O422    1.296   .     A
C407   O423    1.291   .     A
C407   C409    1.454   .     S
C408   C965    1.409   1_554 S
C408   H1017   1.083   1_554 S
C410   C411    1.390   .     A
C410   H444    1.083   .     S
C411   C988    1.394   .     S
C411   H1021   1.083   .     S
C412   H413    1.081   .     S
C412   C962    1.416   1_554 S
C412   C987    1.394   1_554 S
N414   Zn424   2.016   .     S
N415   Zn425   2.016   .     S
O416   Zn424   1.989   .     S
O417   Zn425   1.990   .     S
O418   Zn424   1.954   .     S
O419   Zn425   1.904   .     S
O420   Zn424   1.990   .     S
O421   Zn425   1.989   .     S
O422   Zn424   1.904   .     S
O423   Zn425   1.954   .     S
C427   N428    1.156   .     T
C429   N430    1.157   .     T
C431   N432    1.157   .     T
C434   N435    1.158   .     T
C437   N438    1.158   .     T
C439   N440    1.157   .     T
H441   C984    1.083   .     S
C442   N443    1.158   .     T
H445   C987    1.083   1_554 S
C447   N448    1.158   .     T
C449   C465    1.412   .     S
C449   O480    1.280   .     A
C449   O481    1.281   .     A
C450   C451    1.401   .     A
C450   C1028   1.416   .     S
C450   C1052   1.416   .     S
C451   C458    1.409   .     A
C451   C455    1.410   .     A
C452   C456    1.405   .     A
C452   C1026   1.416   1_554 S
C452   C1029   1.427   1_554 S
C453   C454    1.407   .     A
C453   C1028   1.427   .     S
C453   C1048   1.409   .     S
C454   C455    1.390   .     A
C454   C503    1.446   .     S
C455   H510    1.084   .     S
C456   C473    1.394   .     A
C456   C506    1.454   .     S
C457   H490    1.082   .     S
C457   C473    1.397   .     A
C457   C472    1.389   .     A
C458   C474    1.403   .     A
C458   C460    1.461   .     S
C459   C511    1.456   .     S
C459   C465    1.403   .     A
C459   C77     1.384   1_565 S
C460   O483    1.296   .     A
C460   O482    1.293   .     A
C461   C491    1.452   .     S
C461   C462    1.405   .     A
C462   C470    1.414   .     S
C462   C463    1.404   .     A
C463   C493    1.454   .     S
C464   C495    1.454   .     S
C464   C465    1.404   .     A
C464   C79     1.386   1_565 S
C466   N479    1.363   .     A
C466   H497    1.083   .     S
C466   C531    1.418   .     S
C467   C498    1.438   .     S
C467   N478    1.374   .     A
C468   H500    1.083   .     S
C468   N478    1.363   .     A
C469   C501    1.438   .     S
C469   N479    1.374   .     A
C469   C532    1.418   .     S
C470   O485    1.280   .     A
C470   O484    1.283   .     A
C471   O486    1.296   .     A
C471   O487    1.291   .     A
C471   C473    1.454   .     S
C472   C1029   1.409   1_554 S
C472   H1081   1.083   1_554 S
C474   C475    1.390   .     A
C474   H508    1.083   .     S
C475   C1052   1.394   .     S
C475   H1085   1.083   .     S
C476   H477    1.081   .     S
C476   C1026   1.416   1_554 S
C476   C1051   1.394   1_554 S
N478   Zn488   2.016   .     S
N479   Zn489   2.016   .     S
O480   Zn488   1.989   .     S
O481   Zn489   1.990   .     S
O482   Zn488   1.954   .     S
O483   Zn489   1.904   .     S
O484   Zn488   1.990   .     S
O485   Zn489   1.989   .     S
O486   Zn488   1.904   .     S
O487   Zn489   1.954   .     S
C491   N492    1.156   .     T
C493   N494    1.157   .     T
C495   N496    1.157   .     T
C498   N499    1.158   .     T
C501   N502    1.158   .     T
C503   N504    1.157   .     T
H505   C1048   1.083   .     S
C506   N507    1.158   .     T
H509   C1051   1.083   1_554 S
C511   N512    1.158   .     T
C513   C529    1.412   .     S
C513   O544    1.280   .     A
C513   O545    1.281   .     A
C514   C515    1.401   .     A
C514   C1092   1.416   .     S
C514   C1116   1.416   .     S
C515   C522    1.409   .     A
C515   C519    1.410   .     A
C516   C520    1.405   .     A
C516   C1090   1.416   1_554 S
C516   C1093   1.427   1_554 S
C517   C518    1.407   .     A
C517   C1092   1.427   .     S
C517   C1112   1.409   .     S
C518   C519    1.390   .     A
C518   C567    1.446   .     S
C519   H574    1.084   .     S
C520   C537    1.394   .     A
C520   C570    1.454   .     S
C521   H554    1.082   .     S
C521   C537    1.397   .     A
C521   C536    1.389   .     A
C522   C538    1.403   .     A
C522   C524    1.461   .     S
C523   C575    1.456   .     S
C523   C529    1.403   .     A
C523   C141    1.384   1_565 S
C524   O547    1.296   .     A
C524   O546    1.293   .     A
C525   C555    1.452   .     S
C525   C526    1.405   .     A
C526   C534    1.414   .     S
C526   C527    1.404   .     A
C527   C557    1.454   .     S
C528   C559    1.454   .     S
C528   C529    1.404   .     A
C528   C143    1.386   1_565 S
C530   N543    1.363   .     A
C530   H561    1.083   .     S
C530   C403    1.418   1_655 S
C531   C562    1.438   .     S
C531   N542    1.374   .     A
C532   H564    1.083   .     S
C532   N542    1.363   .     A
C533   C565    1.438   .     S
C533   N543    1.374   .     A
C533   C404    1.418   1_655 S
C534   O549    1.280   .     A
C534   O548    1.283   .     A
C535   O550    1.296   .     A
C535   O551    1.291   .     A
C535   C537    1.454   .     S
C536   C1093   1.409   1_554 S
C536   H1145   1.083   1_554 S
C538   C539    1.390   .     A
C538   H572    1.083   .     S
C539   C1116   1.394   .     S
C539   H1149   1.083   .     S
C540   H541    1.081   .     S
C540   C1090   1.416   1_554 S
C540   C1115   1.394   1_554 S
N542   Zn552   2.016   .     S
N543   Zn553   2.016   .     S
O544   Zn552   1.989   .     S
O545   Zn553   1.990   .     S
O546   Zn552   1.954   .     S
O547   Zn553   1.904   .     S
O548   Zn552   1.990   .     S
O549   Zn553   1.989   .     S
O550   Zn552   1.904   .     S
O551   Zn553   1.954   .     S
C555   N556    1.156   .     T
C557   N558    1.157   .     T
C559   N560    1.157   .     T
C562   N563    1.158   .     T
C565   N566    1.158   .     T
C567   N568    1.157   .     T
H569   C1112   1.083   .     S
C570   N571    1.158   .     T
H573   C1115   1.083   1_554 S
C575   N576    1.158   .     T
C577   C593    1.412   .     S
C577   O608    1.280   .     A
C577   O609    1.281   .     A
C578   C579    1.401   .     A
C578   C4      1.416   1_556 S
C578   C28     1.416   1_556 S
C579   C586    1.409   .     A
C579   C583    1.410   .     A
C580   C584    1.405   .     A
C581   C582    1.407   .     A
C581   C4      1.427   1_556 S
C581   C24     1.409   1_556 S
C582   C583    1.390   .     A
C582   C631    1.446   .     S
C583   H638    1.084   .     S
C584   C601    1.394   .     A
C584   C634    1.454   .     S
C585   H618    1.082   .     S
C585   C601    1.397   .     A
C585   C600    1.389   .     A
C586   C602    1.403   .     A
C586   C588    1.461   .     S
C587   C639    1.456   .     S
C587   C593    1.403   .     A
C587   C781    1.384   .     S
C588   O611    1.296   .     A
C588   O610    1.293   .     A
C589   C619    1.452   .     S
C589   C590    1.405   .     A
C589   C971    1.384   1_545 S
C590   C598    1.414   .     S
C590   C591    1.404   .     A
C591   C621    1.454   .     S
C591   C976    1.386   1_545 S
C592   C623    1.454   .     S
C592   C593    1.404   .     A
C592   C783    1.386   .     S
C594   N607    1.363   .     A
C594   H625    1.083   .     S
C594   C659    1.418   .     S
C595   C626    1.438   .     S
C595   N606    1.374   .     A
C595   C722    1.418   1_455 S
C596   H628    1.083   .     S
C596   N606    1.363   .     A
C596   C725    1.418   1_455 S
C597   C629    1.438   .     S
C597   N607    1.374   .     A
C597   C660    1.418   .     S
C598   O613    1.280   .     A
C598   O612    1.283   .     A
C599   O614    1.296   .     A
C599   O615    1.291   .     A
C599   C601    1.454   .     S
C602   C603    1.390   .     A
C602   H636    1.083   .     S
C603   C28     1.394   1_556 S
C603   H61     1.083   1_556 S
C604   H605    1.081   .     S
N606   Zn616   2.016   .     S
N607   Zn617   2.016   .     S
O608   Zn616   1.989   .     S
O609   Zn617   1.990   .     S
O610   Zn616   1.954   .     S
O611   Zn617   1.904   .     S
O612   Zn616   1.990   .     S
O613   Zn617   1.989   .     S
O614   Zn616   1.904   .     S
O615   Zn617   1.954   .     S
C619   N620    1.156   .     T
C621   N622    1.157   .     T
C623   N624    1.157   .     T
C626   N627    1.158   .     T
C629   N630    1.158   .     T
C631   N632    1.157   .     T
H633   C24     1.083   1_556 S
C634   N635    1.158   .     T
C639   N640    1.158   .     T
C641   C657    1.412   .     S
C641   O672    1.280   .     A
C641   O673    1.281   .     A
C642   C643    1.401   .     A
C642   C68     1.416   1_556 S
C642   C92     1.416   1_556 S
C643   C650    1.409   .     A
C643   C647    1.410   .     A
C644   C648    1.405   .     A
C645   C646    1.407   .     A
C645   C68     1.427   1_556 S
C645   C88     1.409   1_556 S
C646   C647    1.390   .     A
C646   C695    1.446   .     S
C647   H702    1.084   .     S
C648   C665    1.394   .     A
C648   C698    1.454   .     S
C649   H682    1.082   .     S
C649   C665    1.397   .     A
C649   C664    1.389   .     A
C650   C666    1.403   .     A
C650   C652    1.461   .     S
C651   C703    1.456   .     S
C651   C657    1.403   .     A
C651   C845    1.384   .     S
C652   O675    1.296   .     A
C652   O674    1.293   .     A
C653   C683    1.452   .     S
C653   C654    1.405   .     A
C653   C1035   1.384   1_545 S
C654   C662    1.414   .     S
C654   C655    1.404   .     A
C655   C685    1.454   .     S
C655   C1040   1.386   1_545 S
C656   C687    1.454   .     S
C656   C657    1.404   .     A
C656   C847    1.386   .     S
C658   N671    1.363   .     A
C658   H689    1.083   .     S
C658   C723    1.418   .     S
C659   C690    1.438   .     S
C659   N670    1.374   .     A
C660   H692    1.083   .     S
C660   N670    1.363   .     A
C661   C693    1.438   .     S
C661   N671    1.374   .     A
C661   C724    1.418   .     S
C662   O677    1.280   .     A
C662   O676    1.283   .     A
C663   O678    1.296   .     A
C663   O679    1.291   .     A
C663   C665    1.454   .     S
C666   C667    1.390   .     A
C666   H700    1.083   .     S
C667   C92     1.394   1_556 S
C667   H125    1.083   1_556 S
C668   H669    1.081   .     S
N670   Zn680   2.016   .     S
N671   Zn681   2.016   .     S
O672   Zn680   1.989   .     S
O673   Zn681   1.990   .     S
O674   Zn680   1.954   .     S
O675   Zn681   1.904   .     S
O676   Zn680   1.990   .     S
O677   Zn681   1.989   .     S
O678   Zn680   1.904   .     S
O679   Zn681   1.954   .     S
C683   N684    1.156   .     T
C685   N686    1.157   .     T
C687   N688    1.157   .     T
C690   N691    1.158   .     T
C693   N694    1.158   .     T
C695   N696    1.157   .     T
H697   C88     1.083   1_556 S
C698   N699    1.158   .     T
C703   N704    1.158   .     T
C705   C721    1.412   .     S
C705   O736    1.280   .     A
C705   O737    1.281   .     A
C706   C707    1.401   .     A
C706   C132    1.416   1_556 S
C706   C156    1.416   1_556 S
C707   C714    1.409   .     A
C707   C711    1.410   .     A
C708   C712    1.405   .     A
C709   C710    1.407   .     A
C709   C132    1.427   1_556 S
C709   C152    1.409   1_556 S
C710   C711    1.390   .     A
C710   C759    1.446   .     S
C711   H766    1.084   .     S
C712   C729    1.394   .     A
C712   C762    1.454   .     S
C713   H746    1.082   .     S
C713   C729    1.397   .     A
C713   C728    1.389   .     A
C714   C730    1.403   .     A
C714   C716    1.461   .     S
C715   C767    1.456   .     S
C715   C721    1.403   .     A
C715   C909    1.384   .     S
C716   O739    1.296   .     A
C716   O738    1.293   .     A
C717   C747    1.452   .     S
C717   C718    1.405   .     A
C717   C1099   1.384   1_545 S
C718   C726    1.414   .     S
C718   C719    1.404   .     A
C719   C749    1.454   .     S
C719   C1104   1.386   1_545 S
C720   C751    1.454   .     S
C720   C721    1.404   .     A
C720   C911    1.386   .     S
C722   N735    1.363   .     A
C722   H753    1.083   .     S
C722   C595    1.418   1_655 S
C723   C754    1.438   .     S
C723   N734    1.374   .     A
C724   H756    1.083   .     S
C724   N734    1.363   .     A
C725   C757    1.438   .     S
C725   N735    1.374   .     A
C725   C596    1.418   1_655 S
C726   O741    1.280   .     A
C726   O740    1.283   .     A
C727   O742    1.296   .     A
C727   O743    1.291   .     A
C727   C729    1.454   .     S
C730   C731    1.390   .     A
C730   H764    1.083   .     S
C731   C156    1.394   1_556 S
C731   H189    1.083   1_556 S
C732   H733    1.081   .     S
N734   Zn744   2.016   .     S
N735   Zn745   2.016   .     S
O736   Zn744   1.989   .     S
O737   Zn745   1.990   .     S
O738   Zn744   1.954   .     S
O739   Zn745   1.904   .     S
O740   Zn744   1.990   .     S
O741   Zn745   1.989   .     S
O742   Zn744   1.904   .     S
O743   Zn745   1.954   .     S
C747   N748    1.156   .     T
C749   N750    1.157   .     T
C751   N752    1.157   .     T
C754   N755    1.158   .     T
C757   N758    1.158   .     T
C759   N760    1.157   .     T
H761   C152    1.083   1_556 S
C762   N763    1.158   .     T
C767   N768    1.158   .     T
C769   C785    1.412   .     S
C769   O800    1.280   .     A
C769   O801    1.281   .     A
C770   C771    1.401   .     A
C770   C196    1.416   1_556 S
C770   C220    1.416   1_556 S
C771   C778    1.409   .     A
C771   C775    1.410   .     A
C772   C776    1.405   .     A
C773   C774    1.407   .     A
C773   C196    1.427   1_556 S
C773   C216    1.409   1_556 S
C774   C775    1.390   .     A
C774   C823    1.446   .     S
C775   H830    1.084   .     S
C776   C793    1.394   .     A
C776   C826    1.454   .     S
C777   H810    1.082   .     S
C777   C793    1.397   .     A
C777   C792    1.389   .     A
C778   C794    1.403   .     A
C778   C780    1.461   .     S
C779   C831    1.456   .     S
C779   C785    1.403   .     A
C779   C973    1.384   .     S
C780   O803    1.296   .     A
C780   O802    1.293   .     A
C781   C811    1.452   .     S
C781   C782    1.405   .     A
C782   C790    1.414   .     S
C782   C783    1.404   .     A
C783   C813    1.454   .     S
C784   C815    1.454   .     S
C784   C785    1.404   .     A
C784   C975    1.386   .     S
C786   N799    1.363   .     A
C786   H817    1.083   .     S
C786   C851    1.418   .     S
C787   C818    1.438   .     S
C787   N798    1.374   .     A
C787   C914    1.418   1_455 S
C788   H820    1.083   .     S
C788   N798    1.363   .     A
C788   C917    1.418   1_455 S
C789   C821    1.438   .     S
C789   N799    1.374   .     A
C789   C852    1.418   .     S
C790   O805    1.280   .     A
C790   O804    1.283   .     A
C791   O806    1.296   .     A
C791   O807    1.291   .     A
C791   C793    1.454   .     S
C794   C795    1.390   .     A
C794   H828    1.083   .     S
C795   C220    1.394   1_556 S
C795   H253    1.083   1_556 S
C796   H797    1.081   .     S
N798   Zn808   2.016   .     S
N799   Zn809   2.016   .     S
O800   Zn808   1.989   .     S
O801   Zn809   1.990   .     S
O802   Zn808   1.954   .     S
O803   Zn809   1.904   .     S
O804   Zn808   1.990   .     S
O805   Zn809   1.989   .     S
O806   Zn808   1.904   .     S
O807   Zn809   1.954   .     S
C811   N812    1.156   .     T
C813   N814    1.157   .     T
C815   N816    1.157   .     T
C818   N819    1.158   .     T
C821   N822    1.158   .     T
C823   N824    1.157   .     T
H825   C216    1.083   1_556 S
C826   N827    1.158   .     T
C831   N832    1.158   .     T
C833   C849    1.412   .     S
C833   O864    1.280   .     A
C833   O865    1.281   .     A
C834   C835    1.401   .     A
C834   C260    1.416   1_556 S
C834   C284    1.416   1_556 S
C835   C842    1.409   .     A
C835   C839    1.410   .     A
C836   C840    1.405   .     A
C837   C838    1.407   .     A
C837   C260    1.427   1_556 S
C837   C280    1.409   1_556 S
C838   C839    1.390   .     A
C838   C887    1.446   .     S
C839   H894    1.084   .     S
C840   C857    1.394   .     A
C840   C890    1.454   .     S
C841   H874    1.082   .     S
C841   C857    1.397   .     A
C841   C856    1.389   .     A
C842   C858    1.403   .     A
C842   C844    1.461   .     S
C843   C895    1.456   .     S
C843   C849    1.403   .     A
C843   C1037   1.384   .     S
C844   O867    1.296   .     A
C844   O866    1.293   .     A
C845   C875    1.452   .     S
C845   C846    1.405   .     A
C846   C854    1.414   .     S
C846   C847    1.404   .     A
C847   C877    1.454   .     S
C848   C879    1.454   .     S
C848   C849    1.404   .     A
C848   C1039   1.386   .     S
C850   N863    1.363   .     A
C850   H881    1.083   .     S
C850   C915    1.418   .     S
C851   C882    1.438   .     S
C851   N862    1.374   .     A
C852   H884    1.083   .     S
C852   N862    1.363   .     A
C853   C885    1.438   .     S
C853   N863    1.374   .     A
C853   C916    1.418   .     S
C854   O869    1.280   .     A
C854   O868    1.283   .     A
C855   O870    1.296   .     A
C855   O871    1.291   .     A
C855   C857    1.454   .     S
C858   C859    1.390   .     A
C858   H892    1.083   .     S
C859   C284    1.394   1_556 S
C859   H317    1.083   1_556 S
C860   H861    1.081   .     S
N862   Zn872   2.016   .     S
N863   Zn873   2.016   .     S
O864   Zn872   1.989   .     S
O865   Zn873   1.990   .     S
O866   Zn872   1.954   .     S
O867   Zn873   1.904   .     S
O868   Zn872   1.990   .     S
O869   Zn873   1.989   .     S
O870   Zn872   1.904   .     S
O871   Zn873   1.954   .     S
C875   N876    1.156   .     T
C877   N878    1.157   .     T
C879   N880    1.157   .     T
C882   N883    1.158   .     T
C885   N886    1.158   .     T
C887   N888    1.157   .     T
H889   C280    1.083   1_556 S
C890   N891    1.158   .     T
C895   N896    1.158   .     T
C897   C913    1.412   .     S
C897   O928    1.280   .     A
C897   O929    1.281   .     A
C898   C899    1.401   .     A
C898   C324    1.416   1_556 S
C898   C348    1.416   1_556 S
C899   C906    1.409   .     A
C899   C903    1.410   .     A
C900   C904    1.405   .     A
C901   C902    1.407   .     A
C901   C324    1.427   1_556 S
C901   C344    1.409   1_556 S
C902   C903    1.390   .     A
C902   C951    1.446   .     S
C903   H958    1.084   .     S
C904   C921    1.394   .     A
C904   C954    1.454   .     S
C905   H938    1.082   .     S
C905   C921    1.397   .     A
C905   C920    1.389   .     A
C906   C922    1.403   .     A
C906   C908    1.461   .     S
C907   C959    1.456   .     S
C907   C913    1.403   .     A
C907   C1101   1.384   .     S
C908   O931    1.296   .     A
C908   O930    1.293   .     A
C909   C939    1.452   .     S
C909   C910    1.405   .     A
C910   C918    1.414   .     S
C910   C911    1.404   .     A
C911   C941    1.454   .     S
C912   C943    1.454   .     S
C912   C913    1.404   .     A
C912   C1103   1.386   .     S
C914   N927    1.363   .     A
C914   H945    1.083   .     S
C914   C787    1.418   1_655 S
C915   C946    1.438   .     S
C915   N926    1.374   .     A
C916   H948    1.083   .     S
C916   N926    1.363   .     A
C917   C949    1.438   .     S
C917   N927    1.374   .     A
C917   C788    1.418   1_655 S
C918   O933    1.280   .     A
C918   O932    1.283   .     A
C919   O934    1.296   .     A
C919   O935    1.291   .     A
C919   C921    1.454   .     S
C922   C923    1.390   .     A
C922   H956    1.083   .     S
C923   C348    1.394   1_556 S
C923   H381    1.083   1_556 S
C924   H925    1.081   .     S
N926   Zn936   2.016   .     S
N927   Zn937   2.016   .     S
O928   Zn936   1.989   .     S
O929   Zn937   1.990   .     S
O930   Zn936   1.954   .     S
O931   Zn937   1.904   .     S
O932   Zn936   1.990   .     S
O933   Zn937   1.989   .     S
O934   Zn936   1.904   .     S
O935   Zn937   1.954   .     S
C939   N940    1.156   .     T
C941   N942    1.157   .     T
C943   N944    1.157   .     T
C946   N947    1.158   .     T
C949   N950    1.158   .     T
C951   N952    1.157   .     T
H953   C344    1.083   1_556 S
C954   N955    1.158   .     T
C959   N960    1.158   .     T
C961   C977    1.412   .     S
C961   O992    1.280   .     A
C961   O993    1.281   .     A
C962   C963    1.401   .     A
C962   C388    1.416   1_556 S
C962   C412    1.416   1_556 S
C963   C970    1.409   .     A
C963   C967    1.410   .     A
C964   C968    1.405   .     A
C965   C966    1.407   .     A
C965   C388    1.427   1_556 S
C965   C408    1.409   1_556 S
C966   C967    1.390   .     A
C966   C1015   1.446   .     S
C967   H1022   1.084   .     S
C968   C985    1.394   .     A
C968   C1018   1.454   .     S
C969   H1002   1.082   .     S
C969   C985    1.397   .     A
C969   C984    1.389   .     A
C970   C986    1.403   .     A
C970   C972    1.461   .     S
C971   C1023   1.456   .     S
C971   C977    1.403   .     A
C971   C589    1.384   1_565 S
C972   O995    1.296   .     A
C972   O994    1.293   .     A
C973   C1003   1.452   .     S
C973   C974    1.405   .     A
C974   C982    1.414   .     S
C974   C975    1.404   .     A
C975   C1005   1.454   .     S
C976   C1007   1.454   .     S
C976   C977    1.404   .     A
C976   C591    1.386   1_565 S
C978   N991    1.363   .     A
C978   H1009   1.083   .     S
C978   C1043   1.418   .     S
C979   C1010   1.438   .     S
C979   N990    1.374   .     A
C979   C1106   1.418   1_455 S
C980   H1012   1.083   .     S
C980   N990    1.363   .     A
C980   C1109   1.418   1_455 S
C981   C1013   1.438   .     S
C981   N991    1.374   .     A
C981   C1044   1.418   .     S
C982   O997    1.280   .     A
C982   O996    1.283   .     A
C983   O998    1.296   .     A
C983   O999    1.291   .     A
C983   C985    1.454   .     S
C986   C987    1.390   .     A
C986   H1020   1.083   .     S
C987   C412    1.394   1_556 S
C987   H445    1.083   1_556 S
C988   H989    1.081   .     S
N990   Zn1000  2.016   .     S
N991   Zn1001  2.016   .     S
O992   Zn1000  1.989   .     S
O993   Zn1001  1.990   .     S
O994   Zn1000  1.954   .     S
O995   Zn1001  1.904   .     S
O996   Zn1000  1.990   .     S
O997   Zn1001  1.989   .     S
O998   Zn1000  1.904   .     S
O999   Zn1001  1.954   .     S
C1003  N1004   1.156   .     T
C1005  N1006   1.157   .     T
C1007  N1008   1.157   .     T
C1010  N1011   1.158   .     T
C1013  N1014   1.158   .     T
C1015  N1016   1.157   .     T
H1017  C408    1.083   1_556 S
C1018  N1019   1.158   .     T
C1023  N1024   1.158   .     T
C1025  C1041   1.412   .     S
C1025  O1056   1.280   .     A
C1025  O1057   1.281   .     A
C1026  C1027   1.401   .     A
C1026  C452    1.416   1_556 S
C1026  C476    1.416   1_556 S
C1027  C1034   1.409   .     A
C1027  C1031   1.410   .     A
C1028  C1032   1.405   .     A
C1029  C1030   1.407   .     A
C1029  C452    1.427   1_556 S
C1029  C472    1.409   1_556 S
C1030  C1031   1.390   .     A
C1030  C1079   1.446   .     S
C1031  H1086   1.084   .     S
C1032  C1049   1.394   .     A
C1032  C1082   1.454   .     S
C1033  H1066   1.082   .     S
C1033  C1049   1.397   .     A
C1033  C1048   1.389   .     A
C1034  C1050   1.403   .     A
C1034  C1036   1.461   .     S
C1035  C1087   1.456   .     S
C1035  C1041   1.403   .     A
C1035  C653    1.384   1_565 S
C1036  O1059   1.296   .     A
C1036  O1058   1.293   .     A
C1037  C1067   1.452   .     S
C1037  C1038   1.405   .     A
C1038  C1046   1.414   .     S
C1038  C1039   1.404   .     A
C1039  C1069   1.454   .     S
C1040  C1071   1.454   .     S
C1040  C1041   1.404   .     A
C1040  C655    1.386   1_565 S
C1042  N1055   1.363   .     A
C1042  H1073   1.083   .     S
C1042  C1107   1.418   .     S
C1043  C1074   1.438   .     S
C1043  N1054   1.374   .     A
C1044  H1076   1.083   .     S
C1044  N1054   1.363   .     A
C1045  C1077   1.438   .     S
C1045  N1055   1.374   .     A
C1045  C1108   1.418   .     S
C1046  O1061   1.280   .     A
C1046  O1060   1.283   .     A
C1047  O1062   1.296   .     A
C1047  O1063   1.291   .     A
C1047  C1049   1.454   .     S
C1050  C1051   1.390   .     A
C1050  H1084   1.083   .     S
C1051  C476    1.394   1_556 S
C1051  H509    1.083   1_556 S
C1052  H1053   1.081   .     S
N1054  Zn1064  2.016   .     S
N1055  Zn1065  2.016   .     S
O1056  Zn1064  1.989   .     S
O1057  Zn1065  1.990   .     S
O1058  Zn1064  1.954   .     S
O1059  Zn1065  1.904   .     S
O1060  Zn1064  1.990   .     S
O1061  Zn1065  1.989   .     S
O1062  Zn1064  1.904   .     S
O1063  Zn1065  1.954   .     S
C1067  N1068   1.156   .     T
C1069  N1070   1.157   .     T
C1071  N1072   1.157   .     T
C1074  N1075   1.158   .     T
C1077  N1078   1.158   .     T
C1079  N1080   1.157   .     T
H1081  C472    1.083   1_556 S
C1082  N1083   1.158   .     T
C1087  N1088   1.158   .     T
C1089  C1105   1.412   .     S
C1089  O1120   1.280   .     A
C1089  O1121   1.281   .     A
C1090  C1091   1.401   .     A
C1090  C516    1.416   1_556 S
C1090  C540    1.416   1_556 S
C1091  C1098   1.409   .     A
C1091  C1095   1.410   .     A
C1092  C1096   1.405   .     A
C1093  C1094   1.407   .     A
C1093  C516    1.427   1_556 S
C1093  C536    1.409   1_556 S
C1094  C1095   1.390   .     A
C1094  C1143   1.446   .     S
C1095  H1150   1.084   .     S
C1096  C1113   1.394   .     A
C1096  C1146   1.454   .     S
C1097  H1130   1.082   .     S
C1097  C1113   1.397   .     A
C1097  C1112   1.389   .     A
C1098  C1114   1.403   .     A
C1098  C1100   1.461   .     S
C1099  C1151   1.456   .     S
C1099  C1105   1.403   .     A
C1099  C717    1.384   1_565 S
C1100  O1123   1.296   .     A
C1100  O1122   1.293   .     A
C1101  C1131   1.452   .     S
C1101  C1102   1.405   .     A
C1102  C1110   1.414   .     S
C1102  C1103   1.404   .     A
C1103  C1133   1.454   .     S
C1104  C1135   1.454   .     S
C1104  C1105   1.404   .     A
C1104  C719    1.386   1_565 S
C1106  N1119   1.363   .     A
C1106  H1137   1.083   .     S
C1106  C979    1.418   1_655 S
C1107  C1138   1.438   .     S
C1107  N1118   1.374   .     A
C1108  H1140   1.083   .     S
C1108  N1118   1.363   .     A
C1109  C1141   1.438   .     S
C1109  N1119   1.374   .     A
C1109  C980    1.418   1_655 S
C1110  O1125   1.280   .     A
C1110  O1124   1.283   .     A
C1111  O1126   1.296   .     A
C1111  O1127   1.291   .     A
C1111  C1113   1.454   .     S
C1114  C1115   1.390   .     A
C1114  H1148   1.083   .     S
C1115  C540    1.394   1_556 S
C1115  H573    1.083   1_556 S
C1116  H1117   1.081   .     S
N1118  Zn1128  2.016   .     S
N1119  Zn1129  2.016   .     S
O1120  Zn1128  1.989   .     S
O1121  Zn1129  1.990   .     S
O1122  Zn1128  1.954   .     S
O1123  Zn1129  1.904   .     S
O1124  Zn1128  1.990   .     S
O1125  Zn1129  1.989   .     S
O1126  Zn1128  1.904   .     S
O1127  Zn1129  1.954   .     S
C1131  N1132   1.156   .     T
C1133  N1134   1.157   .     T
C1135  N1136   1.157   .     T
C1138  N1139   1.158   .     T
C1141  N1142   1.158   .     T
C1143  N1144   1.157   .     T
H1145  C536    1.083   1_556 S
C1146  N1147   1.158   .     T
C1151  N1152   1.158   .     T
