data_str_m3_o1_o2_pcu_sym.37
_audit_creation_date              2020-01-03
_audit_creation_method            'Materials Studio'
_symmetry_space_group_name_H-M    'P1'
_symmetry_Int_Tables_number       1
_symmetry_cell_setting            triclinic
loop_
_symmetry_equiv_pos_as_xyz
  x,y,z
_cell_length_a                    32.1624
_cell_length_b                    29.8710
_cell_length_c                    30.0123
_cell_angle_alpha                 89.9985
_cell_angle_beta                  92.2684
_cell_angle_gamma                 90.0115
loop_
_atom_site_label
_atom_site_type_symbol
_atom_site_fract_x
_atom_site_fract_y
_atom_site_fract_z
_atom_site_U_iso_or_equiv
_atom_site_adp_type
_atom_site_occupancy
C1     C     0.08674   0.16666   0.24988   0.00000  Uiso   1.00
C2     C     0.31228   0.20700   0.25634   0.00000  Uiso   1.00
C3     C     0.31179   0.12633   0.24379   0.00000  Uiso   1.00
C4     C     0.02155   0.20701   0.25622   0.00000  Uiso   1.00
C5     C     0.18105   0.20427   0.04770   0.00000  Uiso   1.00
C6     C     0.18121   0.12905   0.45355   0.00000  Uiso   1.00
C7     C     0.15210   0.20425   0.45227   0.00000  Uiso   1.00
C8     C     0.15195   0.12906   0.04647   0.00000  Uiso   1.00
C9     C     0.18081   0.20439   0.09370   0.00000  Uiso   1.00
C10    C     0.18108   0.12896   0.40753   0.00000  Uiso   1.00
C11    C     0.15240   0.20437   0.40628   0.00000  Uiso   1.00
C12    C     0.24660   0.16667   0.25012   0.00000  Uiso   1.00
C13    C     0.15214   0.12896   0.09249   0.00000  Uiso   1.00
C14    C     0.16649   0.16667   0.11610   0.00000  Uiso   1.00
C15    C     0.16677   0.16667   0.38390   0.00000  Uiso   1.00
C16    C     0.16653   0.16665   0.02407   0.00000  Uiso   1.00
C17    C     0.16660   0.16664   0.47592   0.00000  Uiso   1.00
C18    C     0.29081   0.16666   0.25011   0.00000  Uiso   1.00
C19    C     0.04252   0.16667   0.24989   0.00000  Uiso   1.00
C20    C     0.16655   0.16667   0.16404   0.00000  Uiso   1.00
C21    C     0.16677   0.16667   0.33596   0.00000  Uiso   1.00
C22    C     0.19600   0.02367   0.27475   0.00000  Uiso   1.00
C23    C     0.13734   0.30966   0.22525   0.00000  Uiso   1.00
C24    C     0.13734   0.02366   0.22524   0.00000  Uiso   1.00
C25    C     0.19599   0.30968   0.27476   0.00000  Uiso   1.00
C26    C     0.02105   0.12633   0.24366   0.00000  Uiso   1.00
H27    H     0.19293   0.23325   0.03061   0.00000  Uiso   1.00
H28    H     0.29633   0.23841   0.26149   0.00000  Uiso   1.00
H29    H     0.29543   0.09490   0.23873   0.00000  Uiso   1.00
H30    H     0.03791   0.23843   0.26128   0.00000  Uiso   1.00
H31    H     0.21803   0.07556   0.30551   0.00000  Uiso   1.00
H32    H     0.11533   0.25778   0.19446   0.00000  Uiso   1.00
H33    H     0.11532   0.07555   0.19450   0.00000  Uiso   1.00
H34    H     0.21800   0.25779   0.30553   0.00000  Uiso   1.00
H35    H     0.19304   0.10007   0.47166   0.00000  Uiso   1.00
H36    H     0.14020   0.23323   0.46934   0.00000  Uiso   1.00
H37    H     0.14010   0.10006   0.02837   0.00000  Uiso   1.00
H38    H     0.19233   0.23360   0.11169   0.00000  Uiso   1.00
H39    H     0.19263   0.09977   0.39053   0.00000  Uiso   1.00
H40    H     0.14091   0.23358   0.38827   0.00000  Uiso   1.00
H41    H     0.14061   0.09976   0.10951   0.00000  Uiso   1.00
H42    H     0.03700   0.09492   0.23852   0.00000  Uiso   1.00
N43    N     0.16667   0.28573   0.25000   0.00000  Uiso   1.00
N44    N     0.16667   0.04760   0.25000   0.00000  Uiso   1.00
O45    O     0.10559   0.20487   0.25000   0.00000  Uiso   1.00
O46    O     0.10703   0.28895   0.19901   0.00000  Uiso   1.00
O47    O     0.10710   0.04434   0.19891   0.00000  Uiso   1.00
O48    O     0.22624   0.28899   0.30108   0.00000  Uiso   1.00
O49    O     0.22774   0.12846   0.25000   0.00000  Uiso   1.00
O50    O     0.22774   0.20487   0.25001   0.00000  Uiso   1.00
O51    O     0.10559   0.12846   0.24999   0.00000  Uiso   1.00
O52    O     0.16666   0.20489   0.18453   0.00000  Uiso   1.00
O53    O     0.16667   0.12845   0.31547   0.00000  Uiso   1.00
O54    O     0.16667   0.20489   0.31547   0.00000  Uiso   1.00
O55    O     0.16666   0.12845   0.18453   0.00000  Uiso   1.00
O56    O     0.22629   0.04438   0.30101   0.00000  Uiso   1.00
Zn57   Zn    0.16667   0.21771   0.25000   0.00000  Uiso   1.00
Zn58   Zn    0.16667   0.11563   0.25000   0.00000  Uiso   1.00
C59    C     0.42007   0.16666   0.24988   0.00000  Uiso   1.00
C60    C     0.64562   0.20700   0.25634   0.00000  Uiso   1.00
C61    C     0.64512   0.12633   0.24379   0.00000  Uiso   1.00
C62    C     0.35488   0.20701   0.25622   0.00000  Uiso   1.00
C63    C     0.51439   0.20427   0.04770   0.00000  Uiso   1.00
C64    C     0.51454   0.12905   0.45355   0.00000  Uiso   1.00
C65    C     0.48543   0.20425   0.45227   0.00000  Uiso   1.00
C66    C     0.48528   0.12906   0.04647   0.00000  Uiso   1.00
C67    C     0.51415   0.20439   0.09370   0.00000  Uiso   1.00
C68    C     0.51442   0.12896   0.40753   0.00000  Uiso   1.00
C69    C     0.48574   0.20437   0.40628   0.00000  Uiso   1.00
C70    C     0.57993   0.16667   0.25012   0.00000  Uiso   1.00
C71    C     0.48547   0.12896   0.09249   0.00000  Uiso   1.00
C72    C     0.49982   0.16667   0.11610   0.00000  Uiso   1.00
C73    C     0.50010   0.16667   0.38390   0.00000  Uiso   1.00
C74    C     0.49986   0.16665   0.02407   0.00000  Uiso   1.00
C75    C     0.49993   0.16664   0.47592   0.00000  Uiso   1.00
C76    C     0.62415   0.16666   0.25011   0.00000  Uiso   1.00
C77    C     0.37585   0.16667   0.24989   0.00000  Uiso   1.00
C78    C     0.49989   0.16667   0.16404   0.00000  Uiso   1.00
C79    C     0.50010   0.16667   0.33596   0.00000  Uiso   1.00
C80    C     0.52933   0.02367   0.27475   0.00000  Uiso   1.00
C81    C     0.47067   0.30966   0.22525   0.00000  Uiso   1.00
C82    C     0.47068   0.02366   0.22524   0.00000  Uiso   1.00
C83    C     0.52932   0.30968   0.27476   0.00000  Uiso   1.00
C84    C     0.35438   0.12633   0.24366   0.00000  Uiso   1.00
H85    H     0.52626   0.23325   0.03061   0.00000  Uiso   1.00
H86    H     0.62967   0.23841   0.26149   0.00000  Uiso   1.00
H87    H     0.62876   0.09490   0.23873   0.00000  Uiso   1.00
H88    H     0.37124   0.23843   0.26128   0.00000  Uiso   1.00
H89    H     0.55136   0.07556   0.30551   0.00000  Uiso   1.00
H90    H     0.44866   0.25778   0.19446   0.00000  Uiso   1.00
H91    H     0.44865   0.07555   0.19450   0.00000  Uiso   1.00
H92    H     0.55133   0.25779   0.30553   0.00000  Uiso   1.00
H93    H     0.52637   0.10007   0.47166   0.00000  Uiso   1.00
H94    H     0.47353   0.23323   0.46934   0.00000  Uiso   1.00
H95    H     0.47344   0.10006   0.02837   0.00000  Uiso   1.00
H96    H     0.52566   0.23360   0.11169   0.00000  Uiso   1.00
H97    H     0.52597   0.09977   0.39053   0.00000  Uiso   1.00
H98    H     0.47425   0.23358   0.38827   0.00000  Uiso   1.00
H99    H     0.47395   0.09976   0.10951   0.00000  Uiso   1.00
H100   H     0.37033   0.09492   0.23852   0.00000  Uiso   1.00
N101   N     0.50000   0.28573   0.25000   0.00000  Uiso   1.00
N102   N     0.50000   0.04760   0.25000   0.00000  Uiso   1.00
O103   O     0.43892   0.20487   0.25000   0.00000  Uiso   1.00
O104   O     0.44037   0.28895   0.19901   0.00000  Uiso   1.00
O105   O     0.44043   0.04434   0.19891   0.00000  Uiso   1.00
O106   O     0.55958   0.28899   0.30108   0.00000  Uiso   1.00
O107   O     0.56108   0.12846   0.25000   0.00000  Uiso   1.00
O108   O     0.56108   0.20487   0.25001   0.00000  Uiso   1.00
O109   O     0.43892   0.12846   0.24999   0.00000  Uiso   1.00
O110   O     0.50000   0.20489   0.18453   0.00000  Uiso   1.00
O111   O     0.50000   0.12845   0.31547   0.00000  Uiso   1.00
O112   O     0.50000   0.20489   0.31547   0.00000  Uiso   1.00
O113   O     0.50000   0.12845   0.18453   0.00000  Uiso   1.00
O114   O     0.55962   0.04438   0.30101   0.00000  Uiso   1.00
Zn115  Zn    0.50000   0.21771   0.25000   0.00000  Uiso   1.00
Zn116  Zn    0.50000   0.11563   0.25000   0.00000  Uiso   1.00
C117   C     0.75340   0.16666   0.24988   0.00000  Uiso   1.00
C118   C     0.97895   0.20700   0.25634   0.00000  Uiso   1.00
C119   C     0.97845   0.12633   0.24379   0.00000  Uiso   1.00
C120   C     0.68822   0.20701   0.25622   0.00000  Uiso   1.00
C121   C     0.84772   0.20427   0.04770   0.00000  Uiso   1.00
C122   C     0.84787   0.12905   0.45355   0.00000  Uiso   1.00
C123   C     0.81876   0.20425   0.45227   0.00000  Uiso   1.00
C124   C     0.81862   0.12906   0.04647   0.00000  Uiso   1.00
C125   C     0.84748   0.20439   0.09370   0.00000  Uiso   1.00
C126   C     0.84775   0.12896   0.40753   0.00000  Uiso   1.00
C127   C     0.81907   0.20437   0.40628   0.00000  Uiso   1.00
C128   C     0.91326   0.16667   0.25012   0.00000  Uiso   1.00
C129   C     0.81881   0.12896   0.09249   0.00000  Uiso   1.00
C130   C     0.83316   0.16667   0.11610   0.00000  Uiso   1.00
C131   C     0.83344   0.16667   0.38390   0.00000  Uiso   1.00
C132   C     0.83319   0.16665   0.02407   0.00000  Uiso   1.00
C133   C     0.83326   0.16664   0.47592   0.00000  Uiso   1.00
C134   C     0.95748   0.16666   0.25011   0.00000  Uiso   1.00
C135   C     0.70919   0.16667   0.24989   0.00000  Uiso   1.00
C136   C     0.83322   0.16667   0.16404   0.00000  Uiso   1.00
C137   C     0.83344   0.16667   0.33596   0.00000  Uiso   1.00
C138   C     0.86266   0.02367   0.27475   0.00000  Uiso   1.00
C139   C     0.80400   0.30966   0.22525   0.00000  Uiso   1.00
C140   C     0.80401   0.02366   0.22524   0.00000  Uiso   1.00
C141   C     0.86266   0.30968   0.27476   0.00000  Uiso   1.00
C142   C     0.68772   0.12633   0.24366   0.00000  Uiso   1.00
H143   H     0.85960   0.23325   0.03061   0.00000  Uiso   1.00
H144   H     0.96300   0.23841   0.26149   0.00000  Uiso   1.00
H145   H     0.96210   0.09490   0.23873   0.00000  Uiso   1.00
H146   H     0.70457   0.23843   0.26128   0.00000  Uiso   1.00
H147   H     0.88469   0.07556   0.30551   0.00000  Uiso   1.00
H148   H     0.78199   0.25778   0.19446   0.00000  Uiso   1.00
H149   H     0.78198   0.07555   0.19450   0.00000  Uiso   1.00
H150   H     0.88466   0.25779   0.30553   0.00000  Uiso   1.00
H151   H     0.85970   0.10007   0.47166   0.00000  Uiso   1.00
H152   H     0.80687   0.23323   0.46934   0.00000  Uiso   1.00
H153   H     0.80677   0.10006   0.02837   0.00000  Uiso   1.00
H154   H     0.85899   0.23360   0.11169   0.00000  Uiso   1.00
H155   H     0.85930   0.09977   0.39053   0.00000  Uiso   1.00
H156   H     0.80758   0.23358   0.38827   0.00000  Uiso   1.00
H157   H     0.80728   0.09976   0.10951   0.00000  Uiso   1.00
H158   H     0.70367   0.09492   0.23852   0.00000  Uiso   1.00
N159   N     0.83333   0.28573   0.25000   0.00000  Uiso   1.00
N160   N     0.83333   0.04760   0.25000   0.00000  Uiso   1.00
O161   O     0.77226   0.20487   0.25000   0.00000  Uiso   1.00
O162   O     0.77370   0.28895   0.19901   0.00000  Uiso   1.00
O163   O     0.77376   0.04434   0.19891   0.00000  Uiso   1.00
O164   O     0.89291   0.28899   0.30108   0.00000  Uiso   1.00
O165   O     0.89441   0.12846   0.25000   0.00000  Uiso   1.00
O166   O     0.89441   0.20487   0.25001   0.00000  Uiso   1.00
O167   O     0.77226   0.12846   0.24999   0.00000  Uiso   1.00
O168   O     0.83333   0.20489   0.18453   0.00000  Uiso   1.00
O169   O     0.83334   0.12845   0.31547   0.00000  Uiso   1.00
O170   O     0.83334   0.20489   0.31547   0.00000  Uiso   1.00
O171   O     0.83333   0.12845   0.18453   0.00000  Uiso   1.00
O172   O     0.89296   0.04438   0.30101   0.00000  Uiso   1.00
Zn173  Zn    0.83333   0.21771   0.25000   0.00000  Uiso   1.00
Zn174  Zn    0.83333   0.11563   0.25000   0.00000  Uiso   1.00
C175   C     0.08674   0.50000   0.24988   0.00000  Uiso   1.00
C176   C     0.31228   0.54033   0.25634   0.00000  Uiso   1.00
C177   C     0.31179   0.45966   0.24379   0.00000  Uiso   1.00
C178   C     0.02155   0.54034   0.25622   0.00000  Uiso   1.00
C179   C     0.18105   0.53760   0.04770   0.00000  Uiso   1.00
C180   C     0.18121   0.46238   0.45355   0.00000  Uiso   1.00
C181   C     0.15210   0.53758   0.45227   0.00000  Uiso   1.00
C182   C     0.15195   0.46239   0.04647   0.00000  Uiso   1.00
C183   C     0.18081   0.53772   0.09370   0.00000  Uiso   1.00
C184   C     0.18108   0.46230   0.40753   0.00000  Uiso   1.00
C185   C     0.15240   0.53771   0.40628   0.00000  Uiso   1.00
C186   C     0.24660   0.50000   0.25012   0.00000  Uiso   1.00
C187   C     0.15214   0.46230   0.09249   0.00000  Uiso   1.00
C188   C     0.16649   0.50001   0.11610   0.00000  Uiso   1.00
C189   C     0.16677   0.50000   0.38390   0.00000  Uiso   1.00
C190   C     0.16653   0.49998   0.02407   0.00000  Uiso   1.00
C191   C     0.16660   0.49997   0.47592   0.00000  Uiso   1.00
C192   C     0.29081   0.50000   0.25011   0.00000  Uiso   1.00
C193   C     0.04252   0.50000   0.24989   0.00000  Uiso   1.00
C194   C     0.16655   0.50000   0.16404   0.00000  Uiso   1.00
C195   C     0.16677   0.50000   0.33596   0.00000  Uiso   1.00
C196   C     0.19600   0.35701   0.27475   0.00000  Uiso   1.00
C197   C     0.13734   0.64299   0.22525   0.00000  Uiso   1.00
C198   C     0.13734   0.35699   0.22524   0.00000  Uiso   1.00
C199   C     0.19599   0.64301   0.27476   0.00000  Uiso   1.00
C200   C     0.02105   0.45967   0.24366   0.00000  Uiso   1.00
H201   H     0.19293   0.56658   0.03061   0.00000  Uiso   1.00
H202   H     0.29633   0.57175   0.26149   0.00000  Uiso   1.00
H203   H     0.29543   0.42824   0.23873   0.00000  Uiso   1.00
H204   H     0.03791   0.57176   0.26128   0.00000  Uiso   1.00
H205   H     0.21803   0.40889   0.30551   0.00000  Uiso   1.00
H206   H     0.11533   0.59112   0.19446   0.00000  Uiso   1.00
H207   H     0.11532   0.40889   0.19450   0.00000  Uiso   1.00
H208   H     0.21800   0.59112   0.30553   0.00000  Uiso   1.00
H209   H     0.19304   0.43340   0.47166   0.00000  Uiso   1.00
H210   H     0.14020   0.56656   0.46934   0.00000  Uiso   1.00
H211   H     0.14010   0.43340   0.02837   0.00000  Uiso   1.00
H212   H     0.19233   0.56693   0.11169   0.00000  Uiso   1.00
H213   H     0.19263   0.43310   0.39053   0.00000  Uiso   1.00
H214   H     0.14091   0.56691   0.38827   0.00000  Uiso   1.00
H215   H     0.14061   0.43310   0.10951   0.00000  Uiso   1.00
H216   H     0.03700   0.42825   0.23852   0.00000  Uiso   1.00
N217   N     0.16667   0.61907   0.25000   0.00000  Uiso   1.00
N218   N     0.16667   0.38093   0.25000   0.00000  Uiso   1.00
O219   O     0.10559   0.53821   0.25000   0.00000  Uiso   1.00
O220   O     0.10703   0.62228   0.19901   0.00000  Uiso   1.00
O221   O     0.10710   0.37767   0.19891   0.00000  Uiso   1.00
O222   O     0.22624   0.62232   0.30108   0.00000  Uiso   1.00
O223   O     0.22774   0.46179   0.25000   0.00000  Uiso   1.00
O224   O     0.22774   0.53821   0.25001   0.00000  Uiso   1.00
O225   O     0.10559   0.46179   0.24999   0.00000  Uiso   1.00
O226   O     0.16666   0.53822   0.18453   0.00000  Uiso   1.00
O227   O     0.16667   0.46178   0.31547   0.00000  Uiso   1.00
O228   O     0.16667   0.53822   0.31547   0.00000  Uiso   1.00
O229   O     0.16666   0.46178   0.18453   0.00000  Uiso   1.00
O230   O     0.22629   0.37771   0.30101   0.00000  Uiso   1.00
Zn231  Zn    0.16667   0.55104   0.25000   0.00000  Uiso   1.00
Zn232  Zn    0.16667   0.44896   0.25000   0.00000  Uiso   1.00
C233   C     0.42007   0.50000   0.24988   0.00000  Uiso   1.00
C234   C     0.64562   0.54033   0.25634   0.00000  Uiso   1.00
C235   C     0.64512   0.45966   0.24379   0.00000  Uiso   1.00
C236   C     0.35488   0.54034   0.25622   0.00000  Uiso   1.00
C237   C     0.51439   0.53760   0.04770   0.00000  Uiso   1.00
C238   C     0.51454   0.46238   0.45355   0.00000  Uiso   1.00
C239   C     0.48543   0.53758   0.45227   0.00000  Uiso   1.00
C240   C     0.48528   0.46239   0.04647   0.00000  Uiso   1.00
C241   C     0.51415   0.53772   0.09370   0.00000  Uiso   1.00
C242   C     0.51442   0.46230   0.40753   0.00000  Uiso   1.00
C243   C     0.48574   0.53771   0.40628   0.00000  Uiso   1.00
C244   C     0.57993   0.50000   0.25012   0.00000  Uiso   1.00
C245   C     0.48547   0.46230   0.09249   0.00000  Uiso   1.00
C246   C     0.49982   0.50001   0.11610   0.00000  Uiso   1.00
C247   C     0.50010   0.50000   0.38390   0.00000  Uiso   1.00
C248   C     0.49986   0.49998   0.02407   0.00000  Uiso   1.00
C249   C     0.49993   0.49997   0.47592   0.00000  Uiso   1.00
C250   C     0.62415   0.50000   0.25011   0.00000  Uiso   1.00
C251   C     0.37585   0.50000   0.24989   0.00000  Uiso   1.00
C252   C     0.49989   0.50000   0.16404   0.00000  Uiso   1.00
C253   C     0.50010   0.50000   0.33596   0.00000  Uiso   1.00
C254   C     0.52933   0.35701   0.27475   0.00000  Uiso   1.00
C255   C     0.47067   0.64299   0.22525   0.00000  Uiso   1.00
C256   C     0.47068   0.35699   0.22524   0.00000  Uiso   1.00
C257   C     0.52932   0.64301   0.27476   0.00000  Uiso   1.00
C258   C     0.35438   0.45967   0.24366   0.00000  Uiso   1.00
H259   H     0.52626   0.56658   0.03061   0.00000  Uiso   1.00
H260   H     0.62967   0.57175   0.26149   0.00000  Uiso   1.00
H261   H     0.62876   0.42824   0.23873   0.00000  Uiso   1.00
H262   H     0.37124   0.57176   0.26128   0.00000  Uiso   1.00
H263   H     0.55136   0.40889   0.30551   0.00000  Uiso   1.00
H264   H     0.44866   0.59112   0.19446   0.00000  Uiso   1.00
H265   H     0.44865   0.40889   0.19450   0.00000  Uiso   1.00
H266   H     0.55133   0.59112   0.30553   0.00000  Uiso   1.00
H267   H     0.52637   0.43340   0.47166   0.00000  Uiso   1.00
H268   H     0.47353   0.56656   0.46934   0.00000  Uiso   1.00
H269   H     0.47344   0.43340   0.02837   0.00000  Uiso   1.00
H270   H     0.52566   0.56693   0.11169   0.00000  Uiso   1.00
H271   H     0.52597   0.43310   0.39053   0.00000  Uiso   1.00
H272   H     0.47425   0.56691   0.38827   0.00000  Uiso   1.00
H273   H     0.47395   0.43310   0.10951   0.00000  Uiso   1.00
H274   H     0.37033   0.42825   0.23852   0.00000  Uiso   1.00
N275   N     0.50000   0.61907   0.25000   0.00000  Uiso   1.00
N276   N     0.50000   0.38093   0.25000   0.00000  Uiso   1.00
O277   O     0.43892   0.53821   0.25000   0.00000  Uiso   1.00
O278   O     0.44037   0.62228   0.19901   0.00000  Uiso   1.00
O279   O     0.44043   0.37767   0.19891   0.00000  Uiso   1.00
O280   O     0.55958   0.62232   0.30108   0.00000  Uiso   1.00
O281   O     0.56108   0.46179   0.25000   0.00000  Uiso   1.00
O282   O     0.56108   0.53821   0.25001   0.00000  Uiso   1.00
O283   O     0.43892   0.46179   0.24999   0.00000  Uiso   1.00
O284   O     0.50000   0.53822   0.18453   0.00000  Uiso   1.00
O285   O     0.50000   0.46178   0.31547   0.00000  Uiso   1.00
O286   O     0.50000   0.53822   0.31547   0.00000  Uiso   1.00
O287   O     0.50000   0.46178   0.18453   0.00000  Uiso   1.00
O288   O     0.55962   0.37771   0.30101   0.00000  Uiso   1.00
Zn289  Zn    0.50000   0.55104   0.25000   0.00000  Uiso   1.00
Zn290  Zn    0.50000   0.44896   0.25000   0.00000  Uiso   1.00
C291   C     0.75340   0.50000   0.24988   0.00000  Uiso   1.00
C292   C     0.97895   0.54033   0.25634   0.00000  Uiso   1.00
C293   C     0.97845   0.45966   0.24379   0.00000  Uiso   1.00
C294   C     0.68822   0.54034   0.25622   0.00000  Uiso   1.00
C295   C     0.84772   0.53760   0.04770   0.00000  Uiso   1.00
C296   C     0.84787   0.46238   0.45355   0.00000  Uiso   1.00
C297   C     0.81876   0.53758   0.45227   0.00000  Uiso   1.00
C298   C     0.81862   0.46239   0.04647   0.00000  Uiso   1.00
C299   C     0.84748   0.53772   0.09370   0.00000  Uiso   1.00
C300   C     0.84775   0.46230   0.40753   0.00000  Uiso   1.00
C301   C     0.81907   0.53771   0.40628   0.00000  Uiso   1.00
C302   C     0.91326   0.50000   0.25012   0.00000  Uiso   1.00
C303   C     0.81881   0.46230   0.09249   0.00000  Uiso   1.00
C304   C     0.83316   0.50001   0.11610   0.00000  Uiso   1.00
C305   C     0.83344   0.50000   0.38390   0.00000  Uiso   1.00
C306   C     0.83319   0.49998   0.02407   0.00000  Uiso   1.00
C307   C     0.83326   0.49997   0.47592   0.00000  Uiso   1.00
C308   C     0.95748   0.50000   0.25011   0.00000  Uiso   1.00
C309   C     0.70919   0.50000   0.24989   0.00000  Uiso   1.00
C310   C     0.83322   0.50000   0.16404   0.00000  Uiso   1.00
C311   C     0.83344   0.50000   0.33596   0.00000  Uiso   1.00
C312   C     0.86266   0.35701   0.27475   0.00000  Uiso   1.00
C313   C     0.80400   0.64299   0.22525   0.00000  Uiso   1.00
C314   C     0.80401   0.35699   0.22524   0.00000  Uiso   1.00
C315   C     0.86266   0.64301   0.27476   0.00000  Uiso   1.00
C316   C     0.68772   0.45967   0.24366   0.00000  Uiso   1.00
H317   H     0.85960   0.56658   0.03061   0.00000  Uiso   1.00
H318   H     0.96300   0.57175   0.26149   0.00000  Uiso   1.00
H319   H     0.96210   0.42824   0.23873   0.00000  Uiso   1.00
H320   H     0.70457   0.57176   0.26128   0.00000  Uiso   1.00
H321   H     0.88469   0.40889   0.30551   0.00000  Uiso   1.00
H322   H     0.78199   0.59112   0.19446   0.00000  Uiso   1.00
H323   H     0.78198   0.40889   0.19450   0.00000  Uiso   1.00
H324   H     0.88466   0.59112   0.30553   0.00000  Uiso   1.00
H325   H     0.85970   0.43340   0.47166   0.00000  Uiso   1.00
H326   H     0.80687   0.56656   0.46934   0.00000  Uiso   1.00
H327   H     0.80677   0.43340   0.02837   0.00000  Uiso   1.00
H328   H     0.85899   0.56693   0.11169   0.00000  Uiso   1.00
H329   H     0.85930   0.43310   0.39053   0.00000  Uiso   1.00
H330   H     0.80758   0.56691   0.38827   0.00000  Uiso   1.00
H331   H     0.80728   0.43310   0.10951   0.00000  Uiso   1.00
H332   H     0.70367   0.42825   0.23852   0.00000  Uiso   1.00
N333   N     0.83333   0.61907   0.25000   0.00000  Uiso   1.00
N334   N     0.83333   0.38093   0.25000   0.00000  Uiso   1.00
O335   O     0.77226   0.53821   0.25000   0.00000  Uiso   1.00
O336   O     0.77370   0.62228   0.19901   0.00000  Uiso   1.00
O337   O     0.77376   0.37767   0.19891   0.00000  Uiso   1.00
O338   O     0.89291   0.62232   0.30108   0.00000  Uiso   1.00
O339   O     0.89441   0.46179   0.25000   0.00000  Uiso   1.00
O340   O     0.89441   0.53821   0.25001   0.00000  Uiso   1.00
O341   O     0.77226   0.46179   0.24999   0.00000  Uiso   1.00
O342   O     0.83333   0.53822   0.18453   0.00000  Uiso   1.00
O343   O     0.83334   0.46178   0.31547   0.00000  Uiso   1.00
O344   O     0.83334   0.53822   0.31547   0.00000  Uiso   1.00
O345   O     0.83333   0.46178   0.18453   0.00000  Uiso   1.00
O346   O     0.89296   0.37771   0.30101   0.00000  Uiso   1.00
Zn347  Zn    0.83333   0.55104   0.25000   0.00000  Uiso   1.00
Zn348  Zn    0.83333   0.44896   0.25000   0.00000  Uiso   1.00
C349   C     0.08674   0.83333   0.24988   0.00000  Uiso   1.00
C350   C     0.31228   0.87367   0.25634   0.00000  Uiso   1.00
C351   C     0.31179   0.79299   0.24379   0.00000  Uiso   1.00
C352   C     0.02155   0.87367   0.25622   0.00000  Uiso   1.00
C353   C     0.18105   0.87094   0.04770   0.00000  Uiso   1.00
C354   C     0.18121   0.79572   0.45355   0.00000  Uiso   1.00
C355   C     0.15210   0.87092   0.45227   0.00000  Uiso   1.00
C356   C     0.15195   0.79572   0.04647   0.00000  Uiso   1.00
C357   C     0.18081   0.87105   0.09370   0.00000  Uiso   1.00
C358   C     0.18108   0.79563   0.40753   0.00000  Uiso   1.00
C359   C     0.15240   0.87104   0.40628   0.00000  Uiso   1.00
C360   C     0.24660   0.83333   0.25012   0.00000  Uiso   1.00
C361   C     0.15214   0.79563   0.09249   0.00000  Uiso   1.00
C362   C     0.16649   0.83334   0.11610   0.00000  Uiso   1.00
C363   C     0.16677   0.83334   0.38390   0.00000  Uiso   1.00
C364   C     0.16653   0.83332   0.02407   0.00000  Uiso   1.00
C365   C     0.16660   0.83331   0.47592   0.00000  Uiso   1.00
C366   C     0.29081   0.83333   0.25011   0.00000  Uiso   1.00
C367   C     0.04252   0.83334   0.24989   0.00000  Uiso   1.00
C368   C     0.16655   0.83333   0.16404   0.00000  Uiso   1.00
C369   C     0.16677   0.83333   0.33596   0.00000  Uiso   1.00
C370   C     0.19600   0.69034   0.27475   0.00000  Uiso   1.00
C371   C     0.13734   0.97633   0.22525   0.00000  Uiso   1.00
C372   C     0.13734   0.69032   0.22524   0.00000  Uiso   1.00
C373   C     0.19599   0.97634   0.27476   0.00000  Uiso   1.00
C374   C     0.02105   0.79300   0.24366   0.00000  Uiso   1.00
H375   H     0.19293   0.89992   0.03061   0.00000  Uiso   1.00
H376   H     0.29633   0.90508   0.26149   0.00000  Uiso   1.00
H377   H     0.29543   0.76157   0.23873   0.00000  Uiso   1.00
H378   H     0.03791   0.90509   0.26128   0.00000  Uiso   1.00
H379   H     0.21803   0.74223   0.30551   0.00000  Uiso   1.00
H380   H     0.11533   0.92445   0.19446   0.00000  Uiso   1.00
H381   H     0.11532   0.74222   0.19450   0.00000  Uiso   1.00
H382   H     0.21800   0.92446   0.30553   0.00000  Uiso   1.00
H383   H     0.19304   0.76673   0.47166   0.00000  Uiso   1.00
H384   H     0.14020   0.89989   0.46934   0.00000  Uiso   1.00
H385   H     0.14010   0.76673   0.02837   0.00000  Uiso   1.00
H386   H     0.19233   0.90026   0.11169   0.00000  Uiso   1.00
H387   H     0.19263   0.76644   0.39053   0.00000  Uiso   1.00
H388   H     0.14091   0.90024   0.38827   0.00000  Uiso   1.00
H389   H     0.14061   0.76643   0.10951   0.00000  Uiso   1.00
H390   H     0.03700   0.76159   0.23852   0.00000  Uiso   1.00
N391   N     0.16667   0.95240   0.25000   0.00000  Uiso   1.00
N392   N     0.16667   0.71427   0.25000   0.00000  Uiso   1.00
O393   O     0.10559   0.87154   0.25000   0.00000  Uiso   1.00
O394   O     0.10703   0.95562   0.19901   0.00000  Uiso   1.00
O395   O     0.10710   0.71101   0.19891   0.00000  Uiso   1.00
O396   O     0.22624   0.95566   0.30108   0.00000  Uiso   1.00
O397   O     0.22774   0.79513   0.25000   0.00000  Uiso   1.00
O398   O     0.22774   0.87154   0.25001   0.00000  Uiso   1.00
O399   O     0.10559   0.79513   0.24999   0.00000  Uiso   1.00
O400   O     0.16666   0.87155   0.18453   0.00000  Uiso   1.00
O401   O     0.16667   0.79511   0.31547   0.00000  Uiso   1.00
O402   O     0.16667   0.87155   0.31547   0.00000  Uiso   1.00
O403   O     0.16666   0.79511   0.18453   0.00000  Uiso   1.00
O404   O     0.22629   0.71105   0.30101   0.00000  Uiso   1.00
Zn405  Zn    0.16667   0.88437   0.25000   0.00000  Uiso   1.00
Zn406  Zn    0.16667   0.78229   0.25000   0.00000  Uiso   1.00
C407   C     0.42007   0.83333   0.24988   0.00000  Uiso   1.00
C408   C     0.64562   0.87367   0.25634   0.00000  Uiso   1.00
C409   C     0.64512   0.79299   0.24379   0.00000  Uiso   1.00
C410   C     0.35488   0.87367   0.25622   0.00000  Uiso   1.00
C411   C     0.51439   0.87094   0.04770   0.00000  Uiso   1.00
C412   C     0.51454   0.79572   0.45355   0.00000  Uiso   1.00
C413   C     0.48543   0.87092   0.45227   0.00000  Uiso   1.00
C414   C     0.48528   0.79572   0.04647   0.00000  Uiso   1.00
C415   C     0.51415   0.87105   0.09370   0.00000  Uiso   1.00
C416   C     0.51442   0.79563   0.40753   0.00000  Uiso   1.00
C417   C     0.48574   0.87104   0.40628   0.00000  Uiso   1.00
C418   C     0.57993   0.83333   0.25012   0.00000  Uiso   1.00
C419   C     0.48547   0.79563   0.09249   0.00000  Uiso   1.00
C420   C     0.49982   0.83334   0.11610   0.00000  Uiso   1.00
C421   C     0.50010   0.83334   0.38390   0.00000  Uiso   1.00
C422   C     0.49986   0.83332   0.02407   0.00000  Uiso   1.00
C423   C     0.49993   0.83331   0.47592   0.00000  Uiso   1.00
C424   C     0.62415   0.83333   0.25011   0.00000  Uiso   1.00
C425   C     0.37585   0.83334   0.24989   0.00000  Uiso   1.00
C426   C     0.49989   0.83333   0.16404   0.00000  Uiso   1.00
C427   C     0.50010   0.83333   0.33596   0.00000  Uiso   1.00
C428   C     0.52933   0.69034   0.27475   0.00000  Uiso   1.00
C429   C     0.47067   0.97633   0.22525   0.00000  Uiso   1.00
C430   C     0.47068   0.69032   0.22524   0.00000  Uiso   1.00
C431   C     0.52932   0.97634   0.27476   0.00000  Uiso   1.00
C432   C     0.35438   0.79300   0.24366   0.00000  Uiso   1.00
H433   H     0.52626   0.89992   0.03061   0.00000  Uiso   1.00
H434   H     0.62967   0.90508   0.26149   0.00000  Uiso   1.00
H435   H     0.62876   0.76157   0.23873   0.00000  Uiso   1.00
H436   H     0.37124   0.90509   0.26128   0.00000  Uiso   1.00
H437   H     0.55136   0.74223   0.30551   0.00000  Uiso   1.00
H438   H     0.44866   0.92445   0.19446   0.00000  Uiso   1.00
H439   H     0.44865   0.74222   0.19450   0.00000  Uiso   1.00
H440   H     0.55133   0.92446   0.30553   0.00000  Uiso   1.00
H441   H     0.52637   0.76673   0.47166   0.00000  Uiso   1.00
H442   H     0.47353   0.89989   0.46934   0.00000  Uiso   1.00
H443   H     0.47344   0.76673   0.02837   0.00000  Uiso   1.00
H444   H     0.52566   0.90026   0.11169   0.00000  Uiso   1.00
H445   H     0.52597   0.76644   0.39053   0.00000  Uiso   1.00
H446   H     0.47425   0.90024   0.38827   0.00000  Uiso   1.00
H447   H     0.47395   0.76643   0.10951   0.00000  Uiso   1.00
H448   H     0.37033   0.76159   0.23852   0.00000  Uiso   1.00
N449   N     0.50000   0.95240   0.25000   0.00000  Uiso   1.00
N450   N     0.50000   0.71427   0.25000   0.00000  Uiso   1.00
O451   O     0.43892   0.87154   0.25000   0.00000  Uiso   1.00
O452   O     0.44037   0.95562   0.19901   0.00000  Uiso   1.00
O453   O     0.44043   0.71101   0.19891   0.00000  Uiso   1.00
O454   O     0.55958   0.95566   0.30108   0.00000  Uiso   1.00
O455   O     0.56108   0.79513   0.25000   0.00000  Uiso   1.00
O456   O     0.56108   0.87154   0.25001   0.00000  Uiso   1.00
O457   O     0.43892   0.79513   0.24999   0.00000  Uiso   1.00
O458   O     0.50000   0.87155   0.18453   0.00000  Uiso   1.00
O459   O     0.50000   0.79511   0.31547   0.00000  Uiso   1.00
O460   O     0.50000   0.87155   0.31547   0.00000  Uiso   1.00
O461   O     0.50000   0.79511   0.18453   0.00000  Uiso   1.00
O462   O     0.55962   0.71105   0.30101   0.00000  Uiso   1.00
Zn463  Zn    0.50000   0.88437   0.25000   0.00000  Uiso   1.00
Zn464  Zn    0.50000   0.78229   0.25000   0.00000  Uiso   1.00
C465   C     0.75340   0.83333   0.24988   0.00000  Uiso   1.00
C466   C     0.97895   0.87367   0.25634   0.00000  Uiso   1.00
C467   C     0.97845   0.79299   0.24379   0.00000  Uiso   1.00
C468   C     0.68822   0.87367   0.25622   0.00000  Uiso   1.00
C469   C     0.84772   0.87094   0.04770   0.00000  Uiso   1.00
C470   C     0.84787   0.79572   0.45355   0.00000  Uiso   1.00
C471   C     0.81876   0.87092   0.45227   0.00000  Uiso   1.00
C472   C     0.81862   0.79572   0.04647   0.00000  Uiso   1.00
C473   C     0.84748   0.87105   0.09370   0.00000  Uiso   1.00
C474   C     0.84775   0.79563   0.40753   0.00000  Uiso   1.00
C475   C     0.81907   0.87104   0.40628   0.00000  Uiso   1.00
C476   C     0.91326   0.83333   0.25012   0.00000  Uiso   1.00
C477   C     0.81881   0.79563   0.09249   0.00000  Uiso   1.00
C478   C     0.83316   0.83334   0.11610   0.00000  Uiso   1.00
C479   C     0.83344   0.83334   0.38390   0.00000  Uiso   1.00
C480   C     0.83319   0.83332   0.02407   0.00000  Uiso   1.00
C481   C     0.83326   0.83331   0.47592   0.00000  Uiso   1.00
C482   C     0.95748   0.83333   0.25011   0.00000  Uiso   1.00
C483   C     0.70919   0.83334   0.24989   0.00000  Uiso   1.00
C484   C     0.83322   0.83333   0.16404   0.00000  Uiso   1.00
C485   C     0.83344   0.83333   0.33596   0.00000  Uiso   1.00
C486   C     0.86266   0.69034   0.27475   0.00000  Uiso   1.00
C487   C     0.80400   0.97633   0.22525   0.00000  Uiso   1.00
C488   C     0.80401   0.69032   0.22524   0.00000  Uiso   1.00
C489   C     0.86266   0.97634   0.27476   0.00000  Uiso   1.00
C490   C     0.68772   0.79300   0.24366   0.00000  Uiso   1.00
H491   H     0.85960   0.89992   0.03061   0.00000  Uiso   1.00
H492   H     0.96300   0.90508   0.26149   0.00000  Uiso   1.00
H493   H     0.96210   0.76157   0.23873   0.00000  Uiso   1.00
H494   H     0.70457   0.90509   0.26128   0.00000  Uiso   1.00
H495   H     0.88469   0.74223   0.30551   0.00000  Uiso   1.00
H496   H     0.78199   0.92445   0.19446   0.00000  Uiso   1.00
H497   H     0.78198   0.74222   0.19450   0.00000  Uiso   1.00
H498   H     0.88466   0.92446   0.30553   0.00000  Uiso   1.00
H499   H     0.85970   0.76673   0.47166   0.00000  Uiso   1.00
H500   H     0.80687   0.89989   0.46934   0.00000  Uiso   1.00
H501   H     0.80677   0.76673   0.02837   0.00000  Uiso   1.00
H502   H     0.85899   0.90026   0.11169   0.00000  Uiso   1.00
H503   H     0.85930   0.76644   0.39053   0.00000  Uiso   1.00
H504   H     0.80758   0.90024   0.38827   0.00000  Uiso   1.00
H505   H     0.80728   0.76643   0.10951   0.00000  Uiso   1.00
H506   H     0.70367   0.76159   0.23852   0.00000  Uiso   1.00
N507   N     0.83333   0.95240   0.25000   0.00000  Uiso   1.00
N508   N     0.83333   0.71427   0.25000   0.00000  Uiso   1.00
O509   O     0.77226   0.87154   0.25000   0.00000  Uiso   1.00
O510   O     0.77370   0.95562   0.19901   0.00000  Uiso   1.00
O511   O     0.77376   0.71101   0.19891   0.00000  Uiso   1.00
O512   O     0.89291   0.95566   0.30108   0.00000  Uiso   1.00
O513   O     0.89441   0.79513   0.25000   0.00000  Uiso   1.00
O514   O     0.89441   0.87154   0.25001   0.00000  Uiso   1.00
O515   O     0.77226   0.79513   0.24999   0.00000  Uiso   1.00
O516   O     0.83333   0.87155   0.18453   0.00000  Uiso   1.00
O517   O     0.83334   0.79511   0.31547   0.00000  Uiso   1.00
O518   O     0.83334   0.87155   0.31547   0.00000  Uiso   1.00
O519   O     0.83333   0.79511   0.18453   0.00000  Uiso   1.00
O520   O     0.89296   0.71105   0.30101   0.00000  Uiso   1.00
Zn521  Zn    0.83333   0.88437   0.25000   0.00000  Uiso   1.00
Zn522  Zn    0.83333   0.78229   0.25000   0.00000  Uiso   1.00
C523   C     0.08674   0.16666   0.74988   0.00000  Uiso   1.00
C524   C     0.31228   0.20700   0.75634   0.00000  Uiso   1.00
C525   C     0.31179   0.12633   0.74379   0.00000  Uiso   1.00
C526   C     0.02155   0.20701   0.75622   0.00000  Uiso   1.00
C527   C     0.18105   0.20427   0.54770   0.00000  Uiso   1.00
C528   C     0.18121   0.12905   0.95355   0.00000  Uiso   1.00
C529   C     0.15210   0.20425   0.95227   0.00000  Uiso   1.00
C530   C     0.15195   0.12906   0.54647   0.00000  Uiso   1.00
C531   C     0.18081   0.20439   0.59370   0.00000  Uiso   1.00
C532   C     0.18108   0.12896   0.90753   0.00000  Uiso   1.00
C533   C     0.15240   0.20437   0.90628   0.00000  Uiso   1.00
C534   C     0.24660   0.16667   0.75012   0.00000  Uiso   1.00
C535   C     0.15214   0.12896   0.59249   0.00000  Uiso   1.00
C536   C     0.16649   0.16667   0.61610   0.00000  Uiso   1.00
C537   C     0.16677   0.16667   0.88390   0.00000  Uiso   1.00
C538   C     0.16653   0.16665   0.52407   0.00000  Uiso   1.00
C539   C     0.16660   0.16664   0.97592   0.00000  Uiso   1.00
C540   C     0.29081   0.16666   0.75011   0.00000  Uiso   1.00
C541   C     0.04252   0.16667   0.74989   0.00000  Uiso   1.00
C542   C     0.16655   0.16667   0.66404   0.00000  Uiso   1.00
C543   C     0.16677   0.16667   0.83596   0.00000  Uiso   1.00
C544   C     0.19600   0.02367   0.77475   0.00000  Uiso   1.00
C545   C     0.13734   0.30966   0.72525   0.00000  Uiso   1.00
C546   C     0.13734   0.02366   0.72524   0.00000  Uiso   1.00
C547   C     0.19599   0.30968   0.77476   0.00000  Uiso   1.00
C548   C     0.02105   0.12633   0.74366   0.00000  Uiso   1.00
H549   H     0.19293   0.23325   0.53061   0.00000  Uiso   1.00
H550   H     0.29633   0.23841   0.76149   0.00000  Uiso   1.00
H551   H     0.29543   0.09490   0.73873   0.00000  Uiso   1.00
H552   H     0.03791   0.23843   0.76128   0.00000  Uiso   1.00
H553   H     0.21803   0.07556   0.80551   0.00000  Uiso   1.00
H554   H     0.11533   0.25778   0.69446   0.00000  Uiso   1.00
H555   H     0.11532   0.07555   0.69450   0.00000  Uiso   1.00
H556   H     0.21800   0.25779   0.80553   0.00000  Uiso   1.00
H557   H     0.19304   0.10007   0.97166   0.00000  Uiso   1.00
H558   H     0.14020   0.23323   0.96934   0.00000  Uiso   1.00
H559   H     0.14010   0.10006   0.52837   0.00000  Uiso   1.00
H560   H     0.19233   0.23360   0.61169   0.00000  Uiso   1.00
H561   H     0.19263   0.09977   0.89053   0.00000  Uiso   1.00
H562   H     0.14091   0.23358   0.88827   0.00000  Uiso   1.00
H563   H     0.14061   0.09976   0.60951   0.00000  Uiso   1.00
H564   H     0.03700   0.09492   0.73852   0.00000  Uiso   1.00
N565   N     0.16667   0.28573   0.75000   0.00000  Uiso   1.00
N566   N     0.16667   0.04760   0.75000   0.00000  Uiso   1.00
O567   O     0.10559   0.20487   0.75000   0.00000  Uiso   1.00
O568   O     0.10703   0.28895   0.69901   0.00000  Uiso   1.00
O569   O     0.10710   0.04434   0.69891   0.00000  Uiso   1.00
O570   O     0.22624   0.28899   0.80108   0.00000  Uiso   1.00
O571   O     0.22774   0.12846   0.75000   0.00000  Uiso   1.00
O572   O     0.22774   0.20487   0.75001   0.00000  Uiso   1.00
O573   O     0.10559   0.12846   0.74999   0.00000  Uiso   1.00
O574   O     0.16666   0.20489   0.68453   0.00000  Uiso   1.00
O575   O     0.16667   0.12845   0.81547   0.00000  Uiso   1.00
O576   O     0.16667   0.20489   0.81547   0.00000  Uiso   1.00
O577   O     0.16666   0.12845   0.68453   0.00000  Uiso   1.00
O578   O     0.22629   0.04438   0.80101   0.00000  Uiso   1.00
Zn579  Zn    0.16667   0.21771   0.75000   0.00000  Uiso   1.00
Zn580  Zn    0.16667   0.11563   0.75000   0.00000  Uiso   1.00
C581   C     0.42007   0.16666   0.74988   0.00000  Uiso   1.00
C582   C     0.64562   0.20700   0.75634   0.00000  Uiso   1.00
C583   C     0.64512   0.12633   0.74379   0.00000  Uiso   1.00
C584   C     0.35488   0.20701   0.75622   0.00000  Uiso   1.00
C585   C     0.51439   0.20427   0.54770   0.00000  Uiso   1.00
C586   C     0.51454   0.12905   0.95355   0.00000  Uiso   1.00
C587   C     0.48543   0.20425   0.95227   0.00000  Uiso   1.00
C588   C     0.48528   0.12906   0.54647   0.00000  Uiso   1.00
C589   C     0.51415   0.20439   0.59370   0.00000  Uiso   1.00
C590   C     0.51442   0.12896   0.90753   0.00000  Uiso   1.00
C591   C     0.48574   0.20437   0.90628   0.00000  Uiso   1.00
C592   C     0.57993   0.16667   0.75012   0.00000  Uiso   1.00
C593   C     0.48547   0.12896   0.59249   0.00000  Uiso   1.00
C594   C     0.49982   0.16667   0.61610   0.00000  Uiso   1.00
C595   C     0.50010   0.16667   0.88390   0.00000  Uiso   1.00
C596   C     0.49986   0.16665   0.52407   0.00000  Uiso   1.00
C597   C     0.49993   0.16664   0.97592   0.00000  Uiso   1.00
C598   C     0.62415   0.16666   0.75011   0.00000  Uiso   1.00
C599   C     0.37585   0.16667   0.74989   0.00000  Uiso   1.00
C600   C     0.49989   0.16667   0.66404   0.00000  Uiso   1.00
C601   C     0.50010   0.16667   0.83596   0.00000  Uiso   1.00
C602   C     0.52933   0.02367   0.77475   0.00000  Uiso   1.00
C603   C     0.47067   0.30966   0.72525   0.00000  Uiso   1.00
C604   C     0.47068   0.02366   0.72524   0.00000  Uiso   1.00
C605   C     0.52932   0.30968   0.77476   0.00000  Uiso   1.00
C606   C     0.35438   0.12633   0.74366   0.00000  Uiso   1.00
H607   H     0.52626   0.23325   0.53061   0.00000  Uiso   1.00
H608   H     0.62967   0.23841   0.76149   0.00000  Uiso   1.00
H609   H     0.62876   0.09490   0.73873   0.00000  Uiso   1.00
H610   H     0.37124   0.23843   0.76128   0.00000  Uiso   1.00
H611   H     0.55136   0.07556   0.80551   0.00000  Uiso   1.00
H612   H     0.44866   0.25778   0.69446   0.00000  Uiso   1.00
H613   H     0.44865   0.07555   0.69450   0.00000  Uiso   1.00
H614   H     0.55133   0.25779   0.80553   0.00000  Uiso   1.00
H615   H     0.52637   0.10007   0.97166   0.00000  Uiso   1.00
H616   H     0.47353   0.23323   0.96934   0.00000  Uiso   1.00
H617   H     0.47344   0.10006   0.52837   0.00000  Uiso   1.00
H618   H     0.52566   0.23360   0.61169   0.00000  Uiso   1.00
H619   H     0.52597   0.09977   0.89053   0.00000  Uiso   1.00
H620   H     0.47425   0.23358   0.88827   0.00000  Uiso   1.00
H621   H     0.47395   0.09976   0.60951   0.00000  Uiso   1.00
H622   H     0.37033   0.09492   0.73852   0.00000  Uiso   1.00
N623   N     0.50000   0.28573   0.75000   0.00000  Uiso   1.00
N624   N     0.50000   0.04760   0.75000   0.00000  Uiso   1.00
O625   O     0.43892   0.20487   0.75000   0.00000  Uiso   1.00
O626   O     0.44037   0.28895   0.69901   0.00000  Uiso   1.00
O627   O     0.44043   0.04434   0.69891   0.00000  Uiso   1.00
O628   O     0.55958   0.28899   0.80108   0.00000  Uiso   1.00
O629   O     0.56108   0.12846   0.75000   0.00000  Uiso   1.00
O630   O     0.56108   0.20487   0.75001   0.00000  Uiso   1.00
O631   O     0.43892   0.12846   0.74999   0.00000  Uiso   1.00
O632   O     0.50000   0.20489   0.68453   0.00000  Uiso   1.00
O633   O     0.50000   0.12845   0.81547   0.00000  Uiso   1.00
O634   O     0.50000   0.20489   0.81547   0.00000  Uiso   1.00
O635   O     0.50000   0.12845   0.68453   0.00000  Uiso   1.00
O636   O     0.55962   0.04438   0.80101   0.00000  Uiso   1.00
Zn637  Zn    0.50000   0.21771   0.75000   0.00000  Uiso   1.00
Zn638  Zn    0.50000   0.11563   0.75000   0.00000  Uiso   1.00
C639   C     0.75340   0.16666   0.74988   0.00000  Uiso   1.00
C640   C     0.97895   0.20700   0.75634   0.00000  Uiso   1.00
C641   C     0.97845   0.12633   0.74379   0.00000  Uiso   1.00
C642   C     0.68822   0.20701   0.75622   0.00000  Uiso   1.00
C643   C     0.84772   0.20427   0.54770   0.00000  Uiso   1.00
C644   C     0.84787   0.12905   0.95355   0.00000  Uiso   1.00
C645   C     0.81876   0.20425   0.95227   0.00000  Uiso   1.00
C646   C     0.81862   0.12906   0.54647   0.00000  Uiso   1.00
C647   C     0.84748   0.20439   0.59370   0.00000  Uiso   1.00
C648   C     0.84775   0.12896   0.90753   0.00000  Uiso   1.00
C649   C     0.81907   0.20437   0.90628   0.00000  Uiso   1.00
C650   C     0.91326   0.16667   0.75012   0.00000  Uiso   1.00
C651   C     0.81881   0.12896   0.59249   0.00000  Uiso   1.00
C652   C     0.83316   0.16667   0.61610   0.00000  Uiso   1.00
C653   C     0.83344   0.16667   0.88390   0.00000  Uiso   1.00
C654   C     0.83319   0.16665   0.52407   0.00000  Uiso   1.00
C655   C     0.83326   0.16664   0.97592   0.00000  Uiso   1.00
C656   C     0.95748   0.16666   0.75011   0.00000  Uiso   1.00
C657   C     0.70919   0.16667   0.74989   0.00000  Uiso   1.00
C658   C     0.83322   0.16667   0.66404   0.00000  Uiso   1.00
C659   C     0.83344   0.16667   0.83596   0.00000  Uiso   1.00
C660   C     0.86266   0.02367   0.77475   0.00000  Uiso   1.00
C661   C     0.80400   0.30966   0.72525   0.00000  Uiso   1.00
C662   C     0.80401   0.02366   0.72524   0.00000  Uiso   1.00
C663   C     0.86266   0.30968   0.77476   0.00000  Uiso   1.00
C664   C     0.68772   0.12633   0.74366   0.00000  Uiso   1.00
H665   H     0.85960   0.23325   0.53061   0.00000  Uiso   1.00
H666   H     0.96300   0.23841   0.76149   0.00000  Uiso   1.00
H667   H     0.96210   0.09490   0.73873   0.00000  Uiso   1.00
H668   H     0.70457   0.23843   0.76128   0.00000  Uiso   1.00
H669   H     0.88469   0.07556   0.80551   0.00000  Uiso   1.00
H670   H     0.78199   0.25778   0.69446   0.00000  Uiso   1.00
H671   H     0.78198   0.07555   0.69450   0.00000  Uiso   1.00
H672   H     0.88466   0.25779   0.80553   0.00000  Uiso   1.00
H673   H     0.85970   0.10007   0.97166   0.00000  Uiso   1.00
H674   H     0.80687   0.23323   0.96934   0.00000  Uiso   1.00
H675   H     0.80677   0.10006   0.52837   0.00000  Uiso   1.00
H676   H     0.85899   0.23360   0.61169   0.00000  Uiso   1.00
H677   H     0.85930   0.09977   0.89053   0.00000  Uiso   1.00
H678   H     0.80758   0.23358   0.88827   0.00000  Uiso   1.00
H679   H     0.80728   0.09976   0.60951   0.00000  Uiso   1.00
H680   H     0.70367   0.09492   0.73852   0.00000  Uiso   1.00
N681   N     0.83333   0.28573   0.75000   0.00000  Uiso   1.00
N682   N     0.83333   0.04760   0.75000   0.00000  Uiso   1.00
O683   O     0.77226   0.20487   0.75000   0.00000  Uiso   1.00
O684   O     0.77370   0.28895   0.69901   0.00000  Uiso   1.00
O685   O     0.77376   0.04434   0.69891   0.00000  Uiso   1.00
O686   O     0.89291   0.28899   0.80108   0.00000  Uiso   1.00
O687   O     0.89441   0.12846   0.75000   0.00000  Uiso   1.00
O688   O     0.89441   0.20487   0.75001   0.00000  Uiso   1.00
O689   O     0.77226   0.12846   0.74999   0.00000  Uiso   1.00
O690   O     0.83333   0.20489   0.68453   0.00000  Uiso   1.00
O691   O     0.83334   0.12845   0.81547   0.00000  Uiso   1.00
O692   O     0.83334   0.20489   0.81547   0.00000  Uiso   1.00
O693   O     0.83333   0.12845   0.68453   0.00000  Uiso   1.00
O694   O     0.89296   0.04438   0.80101   0.00000  Uiso   1.00
Zn695  Zn    0.83333   0.21771   0.75000   0.00000  Uiso   1.00
Zn696  Zn    0.83333   0.11563   0.75000   0.00000  Uiso   1.00
C697   C     0.08674   0.50000   0.74988   0.00000  Uiso   1.00
C698   C     0.31228   0.54033   0.75634   0.00000  Uiso   1.00
C699   C     0.31179   0.45966   0.74379   0.00000  Uiso   1.00
C700   C     0.02155   0.54034   0.75622   0.00000  Uiso   1.00
C701   C     0.18105   0.53760   0.54770   0.00000  Uiso   1.00
C702   C     0.18121   0.46238   0.95355   0.00000  Uiso   1.00
C703   C     0.15210   0.53758   0.95227   0.00000  Uiso   1.00
C704   C     0.15195   0.46239   0.54647   0.00000  Uiso   1.00
C705   C     0.18081   0.53772   0.59370   0.00000  Uiso   1.00
C706   C     0.18108   0.46230   0.90753   0.00000  Uiso   1.00
C707   C     0.15240   0.53771   0.90628   0.00000  Uiso   1.00
C708   C     0.24660   0.50000   0.75012   0.00000  Uiso   1.00
C709   C     0.15214   0.46230   0.59249   0.00000  Uiso   1.00
C710   C     0.16649   0.50001   0.61610   0.00000  Uiso   1.00
C711   C     0.16677   0.50000   0.88390   0.00000  Uiso   1.00
C712   C     0.16653   0.49998   0.52407   0.00000  Uiso   1.00
C713   C     0.16660   0.49997   0.97592   0.00000  Uiso   1.00
C714   C     0.29081   0.50000   0.75011   0.00000  Uiso   1.00
C715   C     0.04252   0.50000   0.74989   0.00000  Uiso   1.00
C716   C     0.16655   0.50000   0.66404   0.00000  Uiso   1.00
C717   C     0.16677   0.50000   0.83596   0.00000  Uiso   1.00
C718   C     0.19600   0.35701   0.77475   0.00000  Uiso   1.00
C719   C     0.13734   0.64299   0.72525   0.00000  Uiso   1.00
C720   C     0.13734   0.35699   0.72524   0.00000  Uiso   1.00
C721   C     0.19599   0.64301   0.77476   0.00000  Uiso   1.00
C722   C     0.02105   0.45967   0.74366   0.00000  Uiso   1.00
H723   H     0.19293   0.56658   0.53061   0.00000  Uiso   1.00
H724   H     0.29633   0.57175   0.76149   0.00000  Uiso   1.00
H725   H     0.29543   0.42824   0.73873   0.00000  Uiso   1.00
H726   H     0.03791   0.57176   0.76128   0.00000  Uiso   1.00
H727   H     0.21803   0.40889   0.80551   0.00000  Uiso   1.00
H728   H     0.11533   0.59112   0.69446   0.00000  Uiso   1.00
H729   H     0.11532   0.40889   0.69450   0.00000  Uiso   1.00
H730   H     0.21800   0.59112   0.80553   0.00000  Uiso   1.00
H731   H     0.19304   0.43340   0.97166   0.00000  Uiso   1.00
H732   H     0.14020   0.56656   0.96934   0.00000  Uiso   1.00
H733   H     0.14010   0.43340   0.52837   0.00000  Uiso   1.00
H734   H     0.19233   0.56693   0.61169   0.00000  Uiso   1.00
H735   H     0.19263   0.43310   0.89053   0.00000  Uiso   1.00
H736   H     0.14091   0.56691   0.88827   0.00000  Uiso   1.00
H737   H     0.14061   0.43310   0.60951   0.00000  Uiso   1.00
H738   H     0.03700   0.42825   0.73852   0.00000  Uiso   1.00
N739   N     0.16667   0.61907   0.75000   0.00000  Uiso   1.00
N740   N     0.16667   0.38093   0.75000   0.00000  Uiso   1.00
O741   O     0.10559   0.53821   0.75000   0.00000  Uiso   1.00
O742   O     0.10703   0.62228   0.69901   0.00000  Uiso   1.00
O743   O     0.10710   0.37767   0.69891   0.00000  Uiso   1.00
O744   O     0.22624   0.62232   0.80108   0.00000  Uiso   1.00
O745   O     0.22774   0.46179   0.75000   0.00000  Uiso   1.00
O746   O     0.22774   0.53821   0.75001   0.00000  Uiso   1.00
O747   O     0.10559   0.46179   0.74999   0.00000  Uiso   1.00
O748   O     0.16666   0.53822   0.68453   0.00000  Uiso   1.00
O749   O     0.16667   0.46178   0.81547   0.00000  Uiso   1.00
O750   O     0.16667   0.53822   0.81547   0.00000  Uiso   1.00
O751   O     0.16666   0.46178   0.68453   0.00000  Uiso   1.00
O752   O     0.22629   0.37771   0.80101   0.00000  Uiso   1.00
Zn753  Zn    0.16667   0.55104   0.75000   0.00000  Uiso   1.00
Zn754  Zn    0.16667   0.44896   0.75000   0.00000  Uiso   1.00
C755   C     0.42007   0.50000   0.74988   0.00000  Uiso   1.00
C756   C     0.64562   0.54033   0.75634   0.00000  Uiso   1.00
C757   C     0.64512   0.45966   0.74379   0.00000  Uiso   1.00
C758   C     0.35488   0.54034   0.75622   0.00000  Uiso   1.00
C759   C     0.51439   0.53760   0.54770   0.00000  Uiso   1.00
C760   C     0.51454   0.46238   0.95355   0.00000  Uiso   1.00
C761   C     0.48543   0.53758   0.95227   0.00000  Uiso   1.00
C762   C     0.48528   0.46239   0.54647   0.00000  Uiso   1.00
C763   C     0.51415   0.53772   0.59370   0.00000  Uiso   1.00
C764   C     0.51442   0.46230   0.90753   0.00000  Uiso   1.00
C765   C     0.48574   0.53771   0.90628   0.00000  Uiso   1.00
C766   C     0.57993   0.50000   0.75012   0.00000  Uiso   1.00
C767   C     0.48547   0.46230   0.59249   0.00000  Uiso   1.00
C768   C     0.49982   0.50001   0.61610   0.00000  Uiso   1.00
C769   C     0.50010   0.50000   0.88390   0.00000  Uiso   1.00
C770   C     0.49986   0.49998   0.52407   0.00000  Uiso   1.00
C771   C     0.49993   0.49997   0.97592   0.00000  Uiso   1.00
C772   C     0.62415   0.50000   0.75011   0.00000  Uiso   1.00
C773   C     0.37585   0.50000   0.74989   0.00000  Uiso   1.00
C774   C     0.49989   0.50000   0.66404   0.00000  Uiso   1.00
C775   C     0.50010   0.50000   0.83596   0.00000  Uiso   1.00
C776   C     0.52933   0.35701   0.77475   0.00000  Uiso   1.00
C777   C     0.47067   0.64299   0.72525   0.00000  Uiso   1.00
C778   C     0.47068   0.35699   0.72524   0.00000  Uiso   1.00
C779   C     0.52932   0.64301   0.77476   0.00000  Uiso   1.00
C780   C     0.35438   0.45967   0.74366   0.00000  Uiso   1.00
H781   H     0.52626   0.56658   0.53061   0.00000  Uiso   1.00
H782   H     0.62967   0.57175   0.76149   0.00000  Uiso   1.00
H783   H     0.62876   0.42824   0.73873   0.00000  Uiso   1.00
H784   H     0.37124   0.57176   0.76128   0.00000  Uiso   1.00
H785   H     0.55136   0.40889   0.80551   0.00000  Uiso   1.00
H786   H     0.44866   0.59112   0.69446   0.00000  Uiso   1.00
H787   H     0.44865   0.40889   0.69450   0.00000  Uiso   1.00
H788   H     0.55133   0.59112   0.80553   0.00000  Uiso   1.00
H789   H     0.52637   0.43340   0.97166   0.00000  Uiso   1.00
H790   H     0.47353   0.56656   0.96934   0.00000  Uiso   1.00
H791   H     0.47344   0.43340   0.52837   0.00000  Uiso   1.00
H792   H     0.52566   0.56693   0.61169   0.00000  Uiso   1.00
H793   H     0.52597   0.43310   0.89053   0.00000  Uiso   1.00
H794   H     0.47425   0.56691   0.88827   0.00000  Uiso   1.00
H795   H     0.47395   0.43310   0.60951   0.00000  Uiso   1.00
H796   H     0.37033   0.42825   0.73852   0.00000  Uiso   1.00
N797   N     0.50000   0.61907   0.75000   0.00000  Uiso   1.00
N798   N     0.50000   0.38093   0.75000   0.00000  Uiso   1.00
O799   O     0.43892   0.53821   0.75000   0.00000  Uiso   1.00
O800   O     0.44037   0.62228   0.69901   0.00000  Uiso   1.00
O801   O     0.44043   0.37767   0.69891   0.00000  Uiso   1.00
O802   O     0.55958   0.62232   0.80108   0.00000  Uiso   1.00
O803   O     0.56108   0.46179   0.75000   0.00000  Uiso   1.00
O804   O     0.56108   0.53821   0.75001   0.00000  Uiso   1.00
O805   O     0.43892   0.46179   0.74999   0.00000  Uiso   1.00
O806   O     0.50000   0.53822   0.68453   0.00000  Uiso   1.00
O807   O     0.50000   0.46178   0.81547   0.00000  Uiso   1.00
O808   O     0.50000   0.53822   0.81547   0.00000  Uiso   1.00
O809   O     0.50000   0.46178   0.68453   0.00000  Uiso   1.00
O810   O     0.55962   0.37771   0.80101   0.00000  Uiso   1.00
Zn811  Zn    0.50000   0.55104   0.75000   0.00000  Uiso   1.00
Zn812  Zn    0.50000   0.44896   0.75000   0.00000  Uiso   1.00
C813   C     0.75340   0.50000   0.74988   0.00000  Uiso   1.00
C814   C     0.97895   0.54033   0.75634   0.00000  Uiso   1.00
C815   C     0.97845   0.45966   0.74379   0.00000  Uiso   1.00
C816   C     0.68822   0.54034   0.75622   0.00000  Uiso   1.00
C817   C     0.84772   0.53760   0.54770   0.00000  Uiso   1.00
C818   C     0.84787   0.46238   0.95355   0.00000  Uiso   1.00
C819   C     0.81876   0.53758   0.95227   0.00000  Uiso   1.00
C820   C     0.81862   0.46239   0.54647   0.00000  Uiso   1.00
C821   C     0.84748   0.53772   0.59370   0.00000  Uiso   1.00
C822   C     0.84775   0.46230   0.90753   0.00000  Uiso   1.00
C823   C     0.81907   0.53771   0.90628   0.00000  Uiso   1.00
C824   C     0.91326   0.50000   0.75012   0.00000  Uiso   1.00
C825   C     0.81881   0.46230   0.59249   0.00000  Uiso   1.00
C826   C     0.83316   0.50001   0.61610   0.00000  Uiso   1.00
C827   C     0.83344   0.50000   0.88390   0.00000  Uiso   1.00
C828   C     0.83319   0.49998   0.52407   0.00000  Uiso   1.00
C829   C     0.83326   0.49997   0.97592   0.00000  Uiso   1.00
C830   C     0.95748   0.50000   0.75011   0.00000  Uiso   1.00
C831   C     0.70919   0.50000   0.74989   0.00000  Uiso   1.00
C832   C     0.83322   0.50000   0.66404   0.00000  Uiso   1.00
C833   C     0.83344   0.50000   0.83596   0.00000  Uiso   1.00
C834   C     0.86266   0.35701   0.77475   0.00000  Uiso   1.00
C835   C     0.80400   0.64299   0.72525   0.00000  Uiso   1.00
C836   C     0.80401   0.35699   0.72524   0.00000  Uiso   1.00
C837   C     0.86266   0.64301   0.77476   0.00000  Uiso   1.00
C838   C     0.68772   0.45967   0.74366   0.00000  Uiso   1.00
H839   H     0.85960   0.56658   0.53061   0.00000  Uiso   1.00
H840   H     0.96300   0.57175   0.76149   0.00000  Uiso   1.00
H841   H     0.96210   0.42824   0.73873   0.00000  Uiso   1.00
H842   H     0.70457   0.57176   0.76128   0.00000  Uiso   1.00
H843   H     0.88469   0.40889   0.80551   0.00000  Uiso   1.00
H844   H     0.78199   0.59112   0.69446   0.00000  Uiso   1.00
H845   H     0.78198   0.40889   0.69450   0.00000  Uiso   1.00
H846   H     0.88466   0.59112   0.80553   0.00000  Uiso   1.00
H847   H     0.85970   0.43340   0.97166   0.00000  Uiso   1.00
H848   H     0.80687   0.56656   0.96934   0.00000  Uiso   1.00
H849   H     0.80677   0.43340   0.52837   0.00000  Uiso   1.00
H850   H     0.85899   0.56693   0.61169   0.00000  Uiso   1.00
H851   H     0.85930   0.43310   0.89053   0.00000  Uiso   1.00
H852   H     0.80758   0.56691   0.88827   0.00000  Uiso   1.00
H853   H     0.80728   0.43310   0.60951   0.00000  Uiso   1.00
H854   H     0.70367   0.42825   0.73852   0.00000  Uiso   1.00
N855   N     0.83333   0.61907   0.75000   0.00000  Uiso   1.00
N856   N     0.83333   0.38093   0.75000   0.00000  Uiso   1.00
O857   O     0.77226   0.53821   0.75000   0.00000  Uiso   1.00
O858   O     0.77370   0.62228   0.69901   0.00000  Uiso   1.00
O859   O     0.77376   0.37767   0.69891   0.00000  Uiso   1.00
O860   O     0.89291   0.62232   0.80108   0.00000  Uiso   1.00
O861   O     0.89441   0.46179   0.75000   0.00000  Uiso   1.00
O862   O     0.89441   0.53821   0.75001   0.00000  Uiso   1.00
O863   O     0.77226   0.46179   0.74999   0.00000  Uiso   1.00
O864   O     0.83333   0.53822   0.68453   0.00000  Uiso   1.00
O865   O     0.83334   0.46178   0.81547   0.00000  Uiso   1.00
O866   O     0.83334   0.53822   0.81547   0.00000  Uiso   1.00
O867   O     0.83333   0.46178   0.68453   0.00000  Uiso   1.00
O868   O     0.89296   0.37771   0.80101   0.00000  Uiso   1.00
Zn869  Zn    0.83333   0.55104   0.75000   0.00000  Uiso   1.00
Zn870  Zn    0.83333   0.44896   0.75000   0.00000  Uiso   1.00
C871   C     0.08674   0.83333   0.74988   0.00000  Uiso   1.00
C872   C     0.31228   0.87367   0.75634   0.00000  Uiso   1.00
C873   C     0.31179   0.79299   0.74379   0.00000  Uiso   1.00
C874   C     0.02155   0.87367   0.75622   0.00000  Uiso   1.00
C875   C     0.18105   0.87094   0.54770   0.00000  Uiso   1.00
C876   C     0.18121   0.79572   0.95355   0.00000  Uiso   1.00
C877   C     0.15210   0.87092   0.95227   0.00000  Uiso   1.00
C878   C     0.15195   0.79572   0.54647   0.00000  Uiso   1.00
C879   C     0.18081   0.87105   0.59370   0.00000  Uiso   1.00
C880   C     0.18108   0.79563   0.90753   0.00000  Uiso   1.00
C881   C     0.15240   0.87104   0.90628   0.00000  Uiso   1.00
C882   C     0.24660   0.83333   0.75012   0.00000  Uiso   1.00
C883   C     0.15214   0.79563   0.59249   0.00000  Uiso   1.00
C884   C     0.16649   0.83334   0.61610   0.00000  Uiso   1.00
C885   C     0.16677   0.83334   0.88390   0.00000  Uiso   1.00
C886   C     0.16653   0.83332   0.52407   0.00000  Uiso   1.00
C887   C     0.16660   0.83331   0.97592   0.00000  Uiso   1.00
C888   C     0.29081   0.83333   0.75011   0.00000  Uiso   1.00
C889   C     0.04252   0.83334   0.74989   0.00000  Uiso   1.00
C890   C     0.16655   0.83333   0.66404   0.00000  Uiso   1.00
C891   C     0.16677   0.83333   0.83596   0.00000  Uiso   1.00
C892   C     0.19600   0.69034   0.77475   0.00000  Uiso   1.00
C893   C     0.13734   0.97633   0.72525   0.00000  Uiso   1.00
C894   C     0.13734   0.69032   0.72524   0.00000  Uiso   1.00
C895   C     0.19599   0.97634   0.77476   0.00000  Uiso   1.00
C896   C     0.02105   0.79300   0.74366   0.00000  Uiso   1.00
H897   H     0.19293   0.89992   0.53061   0.00000  Uiso   1.00
H898   H     0.29633   0.90508   0.76149   0.00000  Uiso   1.00
H899   H     0.29543   0.76157   0.73873   0.00000  Uiso   1.00
H900   H     0.03791   0.90509   0.76128   0.00000  Uiso   1.00
H901   H     0.21803   0.74223   0.80551   0.00000  Uiso   1.00
H902   H     0.11533   0.92445   0.69446   0.00000  Uiso   1.00
H903   H     0.11532   0.74222   0.69450   0.00000  Uiso   1.00
H904   H     0.21800   0.92446   0.80553   0.00000  Uiso   1.00
H905   H     0.19304   0.76673   0.97166   0.00000  Uiso   1.00
H906   H     0.14020   0.89989   0.96934   0.00000  Uiso   1.00
H907   H     0.14010   0.76673   0.52837   0.00000  Uiso   1.00
H908   H     0.19233   0.90026   0.61169   0.00000  Uiso   1.00
H909   H     0.19263   0.76644   0.89053   0.00000  Uiso   1.00
H910   H     0.14091   0.90024   0.88827   0.00000  Uiso   1.00
H911   H     0.14061   0.76643   0.60951   0.00000  Uiso   1.00
H912   H     0.03700   0.76159   0.73852   0.00000  Uiso   1.00
N913   N     0.16667   0.95240   0.75000   0.00000  Uiso   1.00
N914   N     0.16667   0.71427   0.75000   0.00000  Uiso   1.00
O915   O     0.10559   0.87154   0.75000   0.00000  Uiso   1.00
O916   O     0.10703   0.95562   0.69901   0.00000  Uiso   1.00
O917   O     0.10710   0.71101   0.69891   0.00000  Uiso   1.00
O918   O     0.22624   0.95566   0.80108   0.00000  Uiso   1.00
O919   O     0.22774   0.79513   0.75000   0.00000  Uiso   1.00
O920   O     0.22774   0.87154   0.75001   0.00000  Uiso   1.00
O921   O     0.10559   0.79513   0.74999   0.00000  Uiso   1.00
O922   O     0.16666   0.87155   0.68453   0.00000  Uiso   1.00
O923   O     0.16667   0.79511   0.81547   0.00000  Uiso   1.00
O924   O     0.16667   0.87155   0.81547   0.00000  Uiso   1.00
O925   O     0.16666   0.79511   0.68453   0.00000  Uiso   1.00
O926   O     0.22629   0.71105   0.80101   0.00000  Uiso   1.00
Zn927  Zn    0.16667   0.88437   0.75000   0.00000  Uiso   1.00
Zn928  Zn    0.16667   0.78229   0.75000   0.00000  Uiso   1.00
C929   C     0.42007   0.83333   0.74988   0.00000  Uiso   1.00
C930   C     0.64562   0.87367   0.75634   0.00000  Uiso   1.00
C931   C     0.64512   0.79299   0.74379   0.00000  Uiso   1.00
C932   C     0.35488   0.87367   0.75622   0.00000  Uiso   1.00
C933   C     0.51439   0.87094   0.54770   0.00000  Uiso   1.00
C934   C     0.51454   0.79572   0.95355   0.00000  Uiso   1.00
C935   C     0.48543   0.87092   0.95227   0.00000  Uiso   1.00
C936   C     0.48528   0.79572   0.54647   0.00000  Uiso   1.00
C937   C     0.51415   0.87105   0.59370   0.00000  Uiso   1.00
C938   C     0.51442   0.79563   0.90753   0.00000  Uiso   1.00
C939   C     0.48574   0.87104   0.90628   0.00000  Uiso   1.00
C940   C     0.57993   0.83333   0.75012   0.00000  Uiso   1.00
C941   C     0.48547   0.79563   0.59249   0.00000  Uiso   1.00
C942   C     0.49982   0.83334   0.61610   0.00000  Uiso   1.00
C943   C     0.50010   0.83334   0.88390   0.00000  Uiso   1.00
C944   C     0.49986   0.83332   0.52407   0.00000  Uiso   1.00
C945   C     0.49993   0.83331   0.97592   0.00000  Uiso   1.00
C946   C     0.62415   0.83333   0.75011   0.00000  Uiso   1.00
C947   C     0.37585   0.83334   0.74989   0.00000  Uiso   1.00
C948   C     0.49989   0.83333   0.66404   0.00000  Uiso   1.00
C949   C     0.50010   0.83333   0.83596   0.00000  Uiso   1.00
C950   C     0.52933   0.69034   0.77475   0.00000  Uiso   1.00
C951   C     0.47067   0.97633   0.72525   0.00000  Uiso   1.00
C952   C     0.47068   0.69032   0.72524   0.00000  Uiso   1.00
C953   C     0.52932   0.97634   0.77476   0.00000  Uiso   1.00
C954   C     0.35438   0.79300   0.74366   0.00000  Uiso   1.00
H955   H     0.52626   0.89992   0.53061   0.00000  Uiso   1.00
H956   H     0.62967   0.90508   0.76149   0.00000  Uiso   1.00
H957   H     0.62876   0.76157   0.73873   0.00000  Uiso   1.00
H958   H     0.37124   0.90509   0.76128   0.00000  Uiso   1.00
H959   H     0.55136   0.74223   0.80551   0.00000  Uiso   1.00
H960   H     0.44866   0.92445   0.69446   0.00000  Uiso   1.00
H961   H     0.44865   0.74222   0.69450   0.00000  Uiso   1.00
H962   H     0.55133   0.92446   0.80553   0.00000  Uiso   1.00
H963   H     0.52637   0.76673   0.97166   0.00000  Uiso   1.00
H964   H     0.47353   0.89989   0.96934   0.00000  Uiso   1.00
H965   H     0.47344   0.76673   0.52837   0.00000  Uiso   1.00
H966   H     0.52566   0.90026   0.61169   0.00000  Uiso   1.00
H967   H     0.52597   0.76644   0.89053   0.00000  Uiso   1.00
H968   H     0.47425   0.90024   0.88827   0.00000  Uiso   1.00
H969   H     0.47395   0.76643   0.60951   0.00000  Uiso   1.00
H970   H     0.37033   0.76159   0.73852   0.00000  Uiso   1.00
N971   N     0.50000   0.95240   0.75000   0.00000  Uiso   1.00
N972   N     0.50000   0.71427   0.75000   0.00000  Uiso   1.00
O973   O     0.43892   0.87154   0.75000   0.00000  Uiso   1.00
O974   O     0.44037   0.95562   0.69901   0.00000  Uiso   1.00
O975   O     0.44043   0.71101   0.69891   0.00000  Uiso   1.00
O976   O     0.55958   0.95566   0.80108   0.00000  Uiso   1.00
O977   O     0.56108   0.79513   0.75000   0.00000  Uiso   1.00
O978   O     0.56108   0.87154   0.75001   0.00000  Uiso   1.00
O979   O     0.43892   0.79513   0.74999   0.00000  Uiso   1.00
O980   O     0.50000   0.87155   0.68453   0.00000  Uiso   1.00
O981   O     0.50000   0.79511   0.81547   0.00000  Uiso   1.00
O982   O     0.50000   0.87155   0.81547   0.00000  Uiso   1.00
O983   O     0.50000   0.79511   0.68453   0.00000  Uiso   1.00
O984   O     0.55962   0.71105   0.80101   0.00000  Uiso   1.00
Zn985  Zn    0.50000   0.88437   0.75000   0.00000  Uiso   1.00
Zn986  Zn    0.50000   0.78229   0.75000   0.00000  Uiso   1.00
C987   C     0.75340   0.83333   0.74988   0.00000  Uiso   1.00
C988   C     0.97895   0.87367   0.75634   0.00000  Uiso   1.00
C989   C     0.97845   0.79299   0.74379   0.00000  Uiso   1.00
C990   C     0.68822   0.87367   0.75622   0.00000  Uiso   1.00
C991   C     0.84772   0.87094   0.54770   0.00000  Uiso   1.00
C992   C     0.84787   0.79572   0.95355   0.00000  Uiso   1.00
C993   C     0.81876   0.87092   0.95227   0.00000  Uiso   1.00
C994   C     0.81862   0.79572   0.54647   0.00000  Uiso   1.00
C995   C     0.84748   0.87105   0.59370   0.00000  Uiso   1.00
C996   C     0.84775   0.79563   0.90753   0.00000  Uiso   1.00
C997   C     0.81907   0.87104   0.90628   0.00000  Uiso   1.00
C998   C     0.91326   0.83333   0.75012   0.00000  Uiso   1.00
C999   C     0.81881   0.79563   0.59249   0.00000  Uiso   1.00
C1000  C     0.83316   0.83334   0.61610   0.00000  Uiso   1.00
C1001  C     0.83344   0.83334   0.88390   0.00000  Uiso   1.00
C1002  C     0.83319   0.83332   0.52407   0.00000  Uiso   1.00
C1003  C     0.83326   0.83331   0.97592   0.00000  Uiso   1.00
C1004  C     0.95748   0.83333   0.75011   0.00000  Uiso   1.00
C1005  C     0.70919   0.83334   0.74989   0.00000  Uiso   1.00
C1006  C     0.83322   0.83333   0.66404   0.00000  Uiso   1.00
C1007  C     0.83344   0.83333   0.83596   0.00000  Uiso   1.00
C1008  C     0.86266   0.69034   0.77475   0.00000  Uiso   1.00
C1009  C     0.80400   0.97633   0.72525   0.00000  Uiso   1.00
C1010  C     0.80401   0.69032   0.72524   0.00000  Uiso   1.00
C1011  C     0.86266   0.97634   0.77476   0.00000  Uiso   1.00
C1012  C     0.68772   0.79300   0.74366   0.00000  Uiso   1.00
H1013  H     0.85960   0.89992   0.53061   0.00000  Uiso   1.00
H1014  H     0.96300   0.90508   0.76149   0.00000  Uiso   1.00
H1015  H     0.96210   0.76157   0.73873   0.00000  Uiso   1.00
H1016  H     0.70457   0.90509   0.76128   0.00000  Uiso   1.00
H1017  H     0.88469   0.74223   0.80551   0.00000  Uiso   1.00
H1018  H     0.78199   0.92445   0.69446   0.00000  Uiso   1.00
H1019  H     0.78198   0.74222   0.69450   0.00000  Uiso   1.00
H1020  H     0.88466   0.92446   0.80553   0.00000  Uiso   1.00
H1021  H     0.85970   0.76673   0.97166   0.00000  Uiso   1.00
H1022  H     0.80687   0.89989   0.96934   0.00000  Uiso   1.00
H1023  H     0.80677   0.76673   0.52837   0.00000  Uiso   1.00
H1024  H     0.85899   0.90026   0.61169   0.00000  Uiso   1.00
H1025  H     0.85930   0.76644   0.89053   0.00000  Uiso   1.00
H1026  H     0.80758   0.90024   0.88827   0.00000  Uiso   1.00
H1027  H     0.80728   0.76643   0.60951   0.00000  Uiso   1.00
H1028  H     0.70367   0.76159   0.73852   0.00000  Uiso   1.00
N1029  N     0.83333   0.95240   0.75000   0.00000  Uiso   1.00
N1030  N     0.83333   0.71427   0.75000   0.00000  Uiso   1.00
O1031  O     0.77226   0.87154   0.75000   0.00000  Uiso   1.00
O1032  O     0.77370   0.95562   0.69901   0.00000  Uiso   1.00
O1033  O     0.77376   0.71101   0.69891   0.00000  Uiso   1.00
O1034  O     0.89291   0.95566   0.80108   0.00000  Uiso   1.00
O1035  O     0.89441   0.79513   0.75000   0.00000  Uiso   1.00
O1036  O     0.89441   0.87154   0.75001   0.00000  Uiso   1.00
O1037  O     0.77226   0.79513   0.74999   0.00000  Uiso   1.00
O1038  O     0.83333   0.87155   0.68453   0.00000  Uiso   1.00
O1039  O     0.83334   0.79511   0.81547   0.00000  Uiso   1.00
O1040  O     0.83334   0.87155   0.81547   0.00000  Uiso   1.00
O1041  O     0.83333   0.79511   0.68453   0.00000  Uiso   1.00
O1042  O     0.89296   0.71105   0.80101   0.00000  Uiso   1.00
Zn1043 Zn    0.83333   0.88437   0.75000   0.00000  Uiso   1.00
Zn1044 Zn    0.83333   0.78229   0.75000   0.00000  Uiso   1.00
loop_
_geom_bond_atom_site_label_1
_geom_bond_atom_site_label_2
_geom_bond_distance
_geom_bond_site_symmetry_2
_ccdc_geom_bond_type
C1     O51     1.292   .     A
C1     O45     1.292   .     A
C1     C19     1.422   .     S
C2     C18     1.397   .     A
C2     H28     1.083   .     S
C2     C62     1.370   .     S
C3     H29     1.084   .     S
C3     C18     1.398   .     A
C3     C84     1.370   .     S
C4     H30     1.084   .     S
C4     C19     1.398   .     A
C4     C118    1.370   1_455 S
C5     C9      1.381   .     A
C5     C16     1.399   .     A
C5     H27     1.083   .     S
C6     C10     1.381   .     A
C6     C17     1.399   .     A
C6     H35     1.083   .     S
C7     H36     1.083   .     S
C7     C11     1.381   .     A
C7     C17     1.399   .     A
C8     C13     1.381   .     A
C8     C16     1.399   .     A
C8     H37     1.083   .     S
C9     C14     1.399   .     A
C9     H38     1.084   .     S
C10    C15     1.399   .     A
C10    H39     1.084   .     S
C11    H40     1.084   .     S
C11    C15     1.399   .     A
C12    O50     1.292   .     A
C12    O49     1.292   .     A
C12    C18     1.422   .     S
C13    H41     1.084   .     S
C13    C14     1.399   .     A
C14    C20     1.439   .     S
C15    C21     1.439   .     S
C16    C539    1.445   1_554 S
C17    C538    1.445   .     S
C19    C26     1.397   .     A
C20    O55     1.297   .     A
C20    O52     1.297   .     A
C21    O53     1.297   .     A
C21    O54     1.297   .     A
C22    O56     1.376   .     S
C22    N44     1.377   .     A
C22    C373    1.414   1_545 S
C23    O46     1.376   .     S
C23    N43     1.377   .     A
C23    C198    1.414   .     S
C24    N44     1.377   .     A
C24    O47     1.376   .     S
C24    C371    1.414   1_545 S
C25    N43     1.377   .     A
C25    O48     1.375   .     S
C25    C196    1.414   .     S
C26    H42     1.083   .     S
C26    C119    1.370   1_455 S
H31    O56     0.979   .     S
H32    O46     0.980   .     S
H33    O47     0.979   .     S
H34    O48     0.979   .     S
N43    Zn57    2.032   .     S
N44    Zn58    2.032   .     S
O45    Zn57    2.001   .     S
O49    Zn58    2.001   .     S
O50    Zn57    2.001   .     S
O51    Zn58    2.001   .     S
O52    Zn57    2.002   .     S
O53    Zn58    2.002   .     S
O54    Zn57    2.002   .     S
O55    Zn58    2.002   .     S
C59    O109    1.292   .     A
C59    O103    1.292   .     A
C59    C77     1.422   .     S
C60    C76     1.397   .     A
C60    H86     1.083   .     S
C60    C120    1.370   .     S
C61    H87     1.084   .     S
C61    C76     1.398   .     A
C61    C142    1.370   .     S
C62    H88     1.084   .     S
C62    C77     1.398   .     A
C63    C67     1.381   .     A
C63    C74     1.399   .     A
C63    H85     1.083   .     S
C64    C68     1.381   .     A
C64    C75     1.399   .     A
C64    H93     1.083   .     S
C65    H94     1.083   .     S
C65    C69     1.381   .     A
C65    C75     1.399   .     A
C66    C71     1.381   .     A
C66    C74     1.399   .     A
C66    H95     1.083   .     S
C67    C72     1.399   .     A
C67    H96     1.084   .     S
C68    C73     1.399   .     A
C68    H97     1.084   .     S
C69    H98     1.084   .     S
C69    C73     1.399   .     A
C70    O108    1.292   .     A
C70    O107    1.292   .     A
C70    C76     1.422   .     S
C71    H99     1.084   .     S
C71    C72     1.399   .     A
C72    C78     1.439   .     S
C73    C79     1.439   .     S
C74    C597    1.445   1_554 S
C75    C596    1.445   .     S
C77    C84     1.397   .     A
C78    O113    1.297   .     A
C78    O110    1.297   .     A
C79    O111    1.297   .     A
C79    O112    1.297   .     A
C80    O114    1.376   .     S
C80    N102    1.377   .     A
C80    C431    1.414   1_545 S
C81    O104    1.376   .     S
C81    N101    1.377   .     A
C81    C256    1.414   .     S
C82    N102    1.377   .     A
C82    O105    1.376   .     S
C82    C429    1.414   1_545 S
C83    N101    1.377   .     A
C83    O106    1.375   .     S
C83    C254    1.414   .     S
C84    H100    1.083   .     S
H89    O114    0.979   .     S
H90    O104    0.980   .     S
H91    O105    0.979   .     S
H92    O106    0.979   .     S
N101   Zn115   2.032   .     S
N102   Zn116   2.032   .     S
O103   Zn115   2.001   .     S
O107   Zn116   2.001   .     S
O108   Zn115   2.001   .     S
O109   Zn116   2.001   .     S
O110   Zn115   2.002   .     S
O111   Zn116   2.002   .     S
O112   Zn115   2.002   .     S
O113   Zn116   2.002   .     S
C117   O167    1.292   .     A
C117   O161    1.292   .     A
C117   C135    1.422   .     S
C118   C134    1.397   .     A
C118   H144    1.083   .     S
C118   C4      1.370   1_655 S
C119   H145    1.084   .     S
C119   C134    1.398   .     A
C119   C26     1.370   1_655 S
C120   H146    1.084   .     S
C120   C135    1.398   .     A
C121   C125    1.381   .     A
C121   C132    1.399   .     A
C121   H143    1.083   .     S
C122   C126    1.381   .     A
C122   C133    1.399   .     A
C122   H151    1.083   .     S
C123   H152    1.083   .     S
C123   C127    1.381   .     A
C123   C133    1.399   .     A
C124   C129    1.381   .     A
C124   C132    1.399   .     A
C124   H153    1.083   .     S
C125   C130    1.399   .     A
C125   H154    1.084   .     S
C126   C131    1.399   .     A
C126   H155    1.084   .     S
C127   H156    1.084   .     S
C127   C131    1.399   .     A
C128   O166    1.292   .     A
C128   O165    1.292   .     A
C128   C134    1.422   .     S
C129   H157    1.084   .     S
C129   C130    1.399   .     A
C130   C136    1.439   .     S
C131   C137    1.439   .     S
C132   C655    1.445   1_554 S
C133   C654    1.445   .     S
C135   C142    1.397   .     A
C136   O171    1.297   .     A
C136   O168    1.297   .     A
C137   O169    1.297   .     A
C137   O170    1.297   .     A
C138   O172    1.376   .     S
C138   N160    1.377   .     A
C138   C489    1.414   1_545 S
C139   O162    1.376   .     S
C139   N159    1.377   .     A
C139   C314    1.414   .     S
C140   N160    1.377   .     A
C140   O163    1.376   .     S
C140   C487    1.414   1_545 S
C141   N159    1.377   .     A
C141   O164    1.375   .     S
C141   C312    1.414   .     S
C142   H158    1.083   .     S
H147   O172    0.979   .     S
H148   O162    0.980   .     S
H149   O163    0.979   .     S
H150   O164    0.979   .     S
N159   Zn173   2.032   .     S
N160   Zn174   2.032   .     S
O161   Zn173   2.001   .     S
O165   Zn174   2.001   .     S
O166   Zn173   2.001   .     S
O167   Zn174   2.001   .     S
O168   Zn173   2.002   .     S
O169   Zn174   2.002   .     S
O170   Zn173   2.002   .     S
O171   Zn174   2.002   .     S
C175   O225    1.292   .     A
C175   O219    1.292   .     A
C175   C193    1.422   .     S
C176   C192    1.397   .     A
C176   H202    1.083   .     S
C176   C236    1.370   .     S
C177   H203    1.084   .     S
C177   C192    1.398   .     A
C177   C258    1.370   .     S
C178   H204    1.084   .     S
C178   C193    1.398   .     A
C178   C292    1.370   1_455 S
C179   C183    1.381   .     A
C179   C190    1.399   .     A
C179   H201    1.083   .     S
C180   C184    1.381   .     A
C180   C191    1.399   .     A
C180   H209    1.083   .     S
C181   H210    1.083   .     S
C181   C185    1.381   .     A
C181   C191    1.399   .     A
C182   C187    1.381   .     A
C182   C190    1.399   .     A
C182   H211    1.083   .     S
C183   C188    1.399   .     A
C183   H212    1.084   .     S
C184   C189    1.399   .     A
C184   H213    1.084   .     S
C185   H214    1.084   .     S
C185   C189    1.399   .     A
C186   O224    1.292   .     A
C186   O223    1.292   .     A
C186   C192    1.422   .     S
C187   H215    1.084   .     S
C187   C188    1.399   .     A
C188   C194    1.439   .     S
C189   C195    1.439   .     S
C190   C713    1.445   1_554 S
C191   C712    1.445   .     S
C193   C200    1.397   .     A
C194   O229    1.297   .     A
C194   O226    1.297   .     A
C195   O227    1.297   .     A
C195   O228    1.297   .     A
C196   O230    1.376   .     S
C196   N218    1.377   .     A
C197   O220    1.376   .     S
C197   N217    1.377   .     A
C197   C372    1.414   .     S
C198   N218    1.377   .     A
C198   O221    1.376   .     S
C199   N217    1.377   .     A
C199   O222    1.375   .     S
C199   C370    1.414   .     S
C200   H216    1.083   .     S
C200   C293    1.370   1_455 S
H205   O230    0.979   .     S
H206   O220    0.980   .     S
H207   O221    0.979   .     S
H208   O222    0.979   .     S
N217   Zn231   2.032   .     S
N218   Zn232   2.032   .     S
O219   Zn231   2.001   .     S
O223   Zn232   2.001   .     S
O224   Zn231   2.001   .     S
O225   Zn232   2.001   .     S
O226   Zn231   2.002   .     S
O227   Zn232   2.002   .     S
O228   Zn231   2.002   .     S
O229   Zn232   2.002   .     S
C233   O283    1.292   .     A
C233   O277    1.292   .     A
C233   C251    1.422   .     S
C234   C250    1.397   .     A
C234   H260    1.083   .     S
C234   C294    1.370   .     S
C235   H261    1.084   .     S
C235   C250    1.398   .     A
C235   C316    1.370   .     S
C236   H262    1.084   .     S
C236   C251    1.398   .     A
C237   C241    1.381   .     A
C237   C248    1.399   .     A
C237   H259    1.083   .     S
C238   C242    1.381   .     A
C238   C249    1.399   .     A
C238   H267    1.083   .     S
C239   H268    1.083   .     S
C239   C243    1.381   .     A
C239   C249    1.399   .     A
C240   C245    1.381   .     A
C240   C248    1.399   .     A
C240   H269    1.083   .     S
C241   C246    1.399   .     A
C241   H270    1.084   .     S
C242   C247    1.399   .     A
C242   H271    1.084   .     S
C243   H272    1.084   .     S
C243   C247    1.399   .     A
C244   O282    1.292   .     A
C244   O281    1.292   .     A
C244   C250    1.422   .     S
C245   H273    1.084   .     S
C245   C246    1.399   .     A
C246   C252    1.439   .     S
C247   C253    1.439   .     S
C248   C771    1.445   1_554 S
C249   C770    1.445   .     S
C251   C258    1.397   .     A
C252   O287    1.297   .     A
C252   O284    1.297   .     A
C253   O285    1.297   .     A
C253   O286    1.297   .     A
C254   O288    1.376   .     S
C254   N276    1.377   .     A
C255   O278    1.376   .     S
C255   N275    1.377   .     A
C255   C430    1.414   .     S
C256   N276    1.377   .     A
C256   O279    1.376   .     S
C257   N275    1.377   .     A
C257   O280    1.375   .     S
C257   C428    1.414   .     S
C258   H274    1.083   .     S
H263   O288    0.979   .     S
H264   O278    0.980   .     S
H265   O279    0.979   .     S
H266   O280    0.979   .     S
N275   Zn289   2.032   .     S
N276   Zn290   2.032   .     S
O277   Zn289   2.001   .     S
O281   Zn290   2.001   .     S
O282   Zn289   2.001   .     S
O283   Zn290   2.001   .     S
O284   Zn289   2.002   .     S
O285   Zn290   2.002   .     S
O286   Zn289   2.002   .     S
O287   Zn290   2.002   .     S
C291   O341    1.292   .     A
C291   O335    1.292   .     A
C291   C309    1.422   .     S
C292   C308    1.397   .     A
C292   H318    1.083   .     S
C292   C178    1.370   1_655 S
C293   H319    1.084   .     S
C293   C308    1.398   .     A
C293   C200    1.370   1_655 S
C294   H320    1.084   .     S
C294   C309    1.398   .     A
C295   C299    1.381   .     A
C295   C306    1.399   .     A
C295   H317    1.083   .     S
C296   C300    1.381   .     A
C296   C307    1.399   .     A
C296   H325    1.083   .     S
C297   H326    1.083   .     S
C297   C301    1.381   .     A
C297   C307    1.399   .     A
C298   C303    1.381   .     A
C298   C306    1.399   .     A
C298   H327    1.083   .     S
C299   C304    1.399   .     A
C299   H328    1.084   .     S
C300   C305    1.399   .     A
C300   H329    1.084   .     S
C301   H330    1.084   .     S
C301   C305    1.399   .     A
C302   O340    1.292   .     A
C302   O339    1.292   .     A
C302   C308    1.422   .     S
C303   H331    1.084   .     S
C303   C304    1.399   .     A
C304   C310    1.439   .     S
C305   C311    1.439   .     S
C306   C829    1.445   1_554 S
C307   C828    1.445   .     S
C309   C316    1.397   .     A
C310   O345    1.297   .     A
C310   O342    1.297   .     A
C311   O343    1.297   .     A
C311   O344    1.297   .     A
C312   O346    1.376   .     S
C312   N334    1.377   .     A
C313   O336    1.376   .     S
C313   N333    1.377   .     A
C313   C488    1.414   .     S
C314   N334    1.377   .     A
C314   O337    1.376   .     S
C315   N333    1.377   .     A
C315   O338    1.375   .     S
C315   C486    1.414   .     S
C316   H332    1.083   .     S
H321   O346    0.979   .     S
H322   O336    0.980   .     S
H323   O337    0.979   .     S
H324   O338    0.979   .     S
N333   Zn347   2.032   .     S
N334   Zn348   2.032   .     S
O335   Zn347   2.001   .     S
O339   Zn348   2.001   .     S
O340   Zn347   2.001   .     S
O341   Zn348   2.001   .     S
O342   Zn347   2.002   .     S
O343   Zn348   2.002   .     S
O344   Zn347   2.002   .     S
O345   Zn348   2.002   .     S
C349   O399    1.292   .     A
C349   O393    1.292   .     A
C349   C367    1.422   .     S
C350   C366    1.397   .     A
C350   H376    1.083   .     S
C350   C410    1.370   .     S
C351   H377    1.084   .     S
C351   C366    1.398   .     A
C351   C432    1.370   .     S
C352   H378    1.084   .     S
C352   C367    1.398   .     A
C352   C466    1.370   1_455 S
C353   C357    1.381   .     A
C353   C364    1.399   .     A
C353   H375    1.083   .     S
C354   C358    1.381   .     A
C354   C365    1.399   .     A
C354   H383    1.083   .     S
C355   H384    1.083   .     S
C355   C359    1.381   .     A
C355   C365    1.399   .     A
C356   C361    1.381   .     A
C356   C364    1.399   .     A
C356   H385    1.083   .     S
C357   C362    1.399   .     A
C357   H386    1.084   .     S
C358   C363    1.399   .     A
C358   H387    1.084   .     S
C359   H388    1.084   .     S
C359   C363    1.399   .     A
C360   O398    1.292   .     A
C360   O397    1.292   .     A
C360   C366    1.422   .     S
C361   H389    1.084   .     S
C361   C362    1.399   .     A
C362   C368    1.439   .     S
C363   C369    1.439   .     S
C364   C887    1.445   1_554 S
C365   C886    1.445   .     S
C367   C374    1.397   .     A
C368   O403    1.297   .     A
C368   O400    1.297   .     A
C369   O401    1.297   .     A
C369   O402    1.297   .     A
C370   O404    1.376   .     S
C370   N392    1.377   .     A
C371   O394    1.376   .     S
C371   N391    1.377   .     A
C371   C24     1.414   1_565 S
C372   N392    1.377   .     A
C372   O395    1.376   .     S
C373   N391    1.377   .     A
C373   O396    1.375   .     S
C373   C22     1.414   1_565 S
C374   H390    1.083   .     S
C374   C467    1.370   1_455 S
H379   O404    0.979   .     S
H380   O394    0.980   .     S
H381   O395    0.979   .     S
H382   O396    0.979   .     S
N391   Zn405   2.032   .     S
N392   Zn406   2.032   .     S
O393   Zn405   2.001   .     S
O397   Zn406   2.001   .     S
O398   Zn405   2.001   .     S
O399   Zn406   2.001   .     S
O400   Zn405   2.002   .     S
O401   Zn406   2.002   .     S
O402   Zn405   2.002   .     S
O403   Zn406   2.002   .     S
C407   O457    1.292   .     A
C407   O451    1.292   .     A
C407   C425    1.422   .     S
C408   C424    1.397   .     A
C408   H434    1.083   .     S
C408   C468    1.370   .     S
C409   H435    1.084   .     S
C409   C424    1.398   .     A
C409   C490    1.370   .     S
C410   H436    1.084   .     S
C410   C425    1.398   .     A
C411   C415    1.381   .     A
C411   C422    1.399   .     A
C411   H433    1.083   .     S
C412   C416    1.381   .     A
C412   C423    1.399   .     A
C412   H441    1.083   .     S
C413   H442    1.083   .     S
C413   C417    1.381   .     A
C413   C423    1.399   .     A
C414   C419    1.381   .     A
C414   C422    1.399   .     A
C414   H443    1.083   .     S
C415   C420    1.399   .     A
C415   H444    1.084   .     S
C416   C421    1.399   .     A
C416   H445    1.084   .     S
C417   H446    1.084   .     S
C417   C421    1.399   .     A
C418   O456    1.292   .     A
C418   O455    1.292   .     A
C418   C424    1.422   .     S
C419   H447    1.084   .     S
C419   C420    1.399   .     A
C420   C426    1.439   .     S
C421   C427    1.439   .     S
C422   C945    1.445   1_554 S
C423   C944    1.445   .     S
C425   C432    1.397   .     A
C426   O461    1.297   .     A
C426   O458    1.297   .     A
C427   O459    1.297   .     A
C427   O460    1.297   .     A
C428   O462    1.376   .     S
C428   N450    1.377   .     A
C429   O452    1.376   .     S
C429   N449    1.377   .     A
C429   C82     1.414   1_565 S
C430   N450    1.377   .     A
C430   O453    1.376   .     S
C431   N449    1.377   .     A
C431   O454    1.375   .     S
C431   C80     1.414   1_565 S
C432   H448    1.083   .     S
H437   O462    0.979   .     S
H438   O452    0.980   .     S
H439   O453    0.979   .     S
H440   O454    0.979   .     S
N449   Zn463   2.032   .     S
N450   Zn464   2.032   .     S
O451   Zn463   2.001   .     S
O455   Zn464   2.001   .     S
O456   Zn463   2.001   .     S
O457   Zn464   2.001   .     S
O458   Zn463   2.002   .     S
O459   Zn464   2.002   .     S
O460   Zn463   2.002   .     S
O461   Zn464   2.002   .     S
C465   O515    1.292   .     A
C465   O509    1.292   .     A
C465   C483    1.422   .     S
C466   C482    1.397   .     A
C466   H492    1.083   .     S
C466   C352    1.370   1_655 S
C467   H493    1.084   .     S
C467   C482    1.398   .     A
C467   C374    1.370   1_655 S
C468   H494    1.084   .     S
C468   C483    1.398   .     A
C469   C473    1.381   .     A
C469   C480    1.399   .     A
C469   H491    1.083   .     S
C470   C474    1.381   .     A
C470   C481    1.399   .     A
C470   H499    1.083   .     S
C471   H500    1.083   .     S
C471   C475    1.381   .     A
C471   C481    1.399   .     A
C472   C477    1.381   .     A
C472   C480    1.399   .     A
C472   H501    1.083   .     S
C473   C478    1.399   .     A
C473   H502    1.084   .     S
C474   C479    1.399   .     A
C474   H503    1.084   .     S
C475   H504    1.084   .     S
C475   C479    1.399   .     A
C476   O514    1.292   .     A
C476   O513    1.292   .     A
C476   C482    1.422   .     S
C477   H505    1.084   .     S
C477   C478    1.399   .     A
C478   C484    1.439   .     S
C479   C485    1.439   .     S
C480   C1003   1.445   1_554 S
C481   C1002   1.445   .     S
C483   C490    1.397   .     A
C484   O519    1.297   .     A
C484   O516    1.297   .     A
C485   O517    1.297   .     A
C485   O518    1.297   .     A
C486   O520    1.376   .     S
C486   N508    1.377   .     A
C487   O510    1.376   .     S
C487   N507    1.377   .     A
C487   C140    1.414   1_565 S
C488   N508    1.377   .     A
C488   O511    1.376   .     S
C489   N507    1.377   .     A
C489   O512    1.375   .     S
C489   C138    1.414   1_565 S
C490   H506    1.083   .     S
H495   O520    0.979   .     S
H496   O510    0.980   .     S
H497   O511    0.979   .     S
H498   O512    0.979   .     S
N507   Zn521   2.032   .     S
N508   Zn522   2.032   .     S
O509   Zn521   2.001   .     S
O513   Zn522   2.001   .     S
O514   Zn521   2.001   .     S
O515   Zn522   2.001   .     S
O516   Zn521   2.002   .     S
O517   Zn522   2.002   .     S
O518   Zn521   2.002   .     S
O519   Zn522   2.002   .     S
C523   O573    1.292   .     A
C523   O567    1.292   .     A
C523   C541    1.422   .     S
C524   C540    1.397   .     A
C524   H550    1.083   .     S
C524   C584    1.370   .     S
C525   H551    1.084   .     S
C525   C540    1.398   .     A
C525   C606    1.370   .     S
C526   H552    1.084   .     S
C526   C541    1.398   .     A
C526   C640    1.370   1_455 S
C527   C531    1.381   .     A
C527   C538    1.399   .     A
C527   H549    1.083   .     S
C528   C532    1.381   .     A
C528   C539    1.399   .     A
C528   H557    1.083   .     S
C529   H558    1.083   .     S
C529   C533    1.381   .     A
C529   C539    1.399   .     A
C530   C535    1.381   .     A
C530   C538    1.399   .     A
C530   H559    1.083   .     S
C531   C536    1.399   .     A
C531   H560    1.084   .     S
C532   C537    1.399   .     A
C532   H561    1.084   .     S
C533   H562    1.084   .     S
C533   C537    1.399   .     A
C534   O572    1.292   .     A
C534   O571    1.292   .     A
C534   C540    1.422   .     S
C535   H563    1.084   .     S
C535   C536    1.399   .     A
C536   C542    1.439   .     S
C537   C543    1.439   .     S
C539   C16     1.445   1_556 S
C541   C548    1.397   .     A
C542   O577    1.297   .     A
C542   O574    1.297   .     A
C543   O575    1.297   .     A
C543   O576    1.297   .     A
C544   O578    1.376   .     S
C544   N566    1.377   .     A
C544   C895    1.414   1_545 S
C545   O568    1.376   .     S
C545   N565    1.377   .     A
C545   C720    1.414   .     S
C546   N566    1.377   .     A
C546   O569    1.376   .     S
C546   C893    1.414   1_545 S
C547   N565    1.377   .     A
C547   O570    1.375   .     S
C547   C718    1.414   .     S
C548   H564    1.083   .     S
C548   C641    1.370   1_455 S
H553   O578    0.979   .     S
H554   O568    0.980   .     S
H555   O569    0.979   .     S
H556   O570    0.979   .     S
N565   Zn579   2.032   .     S
N566   Zn580   2.032   .     S
O567   Zn579   2.001   .     S
O571   Zn580   2.001   .     S
O572   Zn579   2.001   .     S
O573   Zn580   2.001   .     S
O574   Zn579   2.002   .     S
O575   Zn580   2.002   .     S
O576   Zn579   2.002   .     S
O577   Zn580   2.002   .     S
C581   O631    1.292   .     A
C581   O625    1.292   .     A
C581   C599    1.422   .     S
C582   C598    1.397   .     A
C582   H608    1.083   .     S
C582   C642    1.370   .     S
C583   H609    1.084   .     S
C583   C598    1.398   .     A
C583   C664    1.370   .     S
C584   H610    1.084   .     S
C584   C599    1.398   .     A
C585   C589    1.381   .     A
C585   C596    1.399   .     A
C585   H607    1.083   .     S
C586   C590    1.381   .     A
C586   C597    1.399   .     A
C586   H615    1.083   .     S
C587   H616    1.083   .     S
C587   C591    1.381   .     A
C587   C597    1.399   .     A
C588   C593    1.381   .     A
C588   C596    1.399   .     A
C588   H617    1.083   .     S
C589   C594    1.399   .     A
C589   H618    1.084   .     S
C590   C595    1.399   .     A
C590   H619    1.084   .     S
C591   H620    1.084   .     S
C591   C595    1.399   .     A
C592   O630    1.292   .     A
C592   O629    1.292   .     A
C592   C598    1.422   .     S
C593   H621    1.084   .     S
C593   C594    1.399   .     A
C594   C600    1.439   .     S
C595   C601    1.439   .     S
C597   C74     1.445   1_556 S
C599   C606    1.397   .     A
C600   O635    1.297   .     A
C600   O632    1.297   .     A
C601   O633    1.297   .     A
C601   O634    1.297   .     A
C602   O636    1.376   .     S
C602   N624    1.377   .     A
C602   C953    1.414   1_545 S
C603   O626    1.376   .     S
C603   N623    1.377   .     A
C603   C778    1.414   .     S
C604   N624    1.377   .     A
C604   O627    1.376   .     S
C604   C951    1.414   1_545 S
C605   N623    1.377   .     A
C605   O628    1.375   .     S
C605   C776    1.414   .     S
C606   H622    1.083   .     S
H611   O636    0.979   .     S
H612   O626    0.980   .     S
H613   O627    0.979   .     S
H614   O628    0.979   .     S
N623   Zn637   2.032   .     S
N624   Zn638   2.032   .     S
O625   Zn637   2.001   .     S
O629   Zn638   2.001   .     S
O630   Zn637   2.001   .     S
O631   Zn638   2.001   .     S
O632   Zn637   2.002   .     S
O633   Zn638   2.002   .     S
O634   Zn637   2.002   .     S
O635   Zn638   2.002   .     S
C639   O689    1.292   .     A
C639   O683    1.292   .     A
C639   C657    1.422   .     S
C640   C656    1.397   .     A
C640   H666    1.083   .     S
C640   C526    1.370   1_655 S
C641   H667    1.084   .     S
C641   C656    1.398   .     A
C641   C548    1.370   1_655 S
C642   H668    1.084   .     S
C642   C657    1.398   .     A
C643   C647    1.381   .     A
C643   C654    1.399   .     A
C643   H665    1.083   .     S
C644   C648    1.381   .     A
C644   C655    1.399   .     A
C644   H673    1.083   .     S
C645   H674    1.083   .     S
C645   C649    1.381   .     A
C645   C655    1.399   .     A
C646   C651    1.381   .     A
C646   C654    1.399   .     A
C646   H675    1.083   .     S
C647   C652    1.399   .     A
C647   H676    1.084   .     S
C648   C653    1.399   .     A
C648   H677    1.084   .     S
C649   H678    1.084   .     S
C649   C653    1.399   .     A
C650   O688    1.292   .     A
C650   O687    1.292   .     A
C650   C656    1.422   .     S
C651   H679    1.084   .     S
C651   C652    1.399   .     A
C652   C658    1.439   .     S
C653   C659    1.439   .     S
C655   C132    1.445   1_556 S
C657   C664    1.397   .     A
C658   O693    1.297   .     A
C658   O690    1.297   .     A
C659   O691    1.297   .     A
C659   O692    1.297   .     A
C660   O694    1.376   .     S
C660   N682    1.377   .     A
C660   C1011   1.414   1_545 S
C661   O684    1.376   .     S
C661   N681    1.377   .     A
C661   C836    1.414   .     S
C662   N682    1.377   .     A
C662   O685    1.376   .     S
C662   C1009   1.414   1_545 S
C663   N681    1.377   .     A
C663   O686    1.375   .     S
C663   C834    1.414   .     S
C664   H680    1.083   .     S
H669   O694    0.979   .     S
H670   O684    0.980   .     S
H671   O685    0.979   .     S
H672   O686    0.979   .     S
N681   Zn695   2.032   .     S
N682   Zn696   2.032   .     S
O683   Zn695   2.001   .     S
O687   Zn696   2.001   .     S
O688   Zn695   2.001   .     S
O689   Zn696   2.001   .     S
O690   Zn695   2.002   .     S
O691   Zn696   2.002   .     S
O692   Zn695   2.002   .     S
O693   Zn696   2.002   .     S
C697   O747    1.292   .     A
C697   O741    1.292   .     A
C697   C715    1.422   .     S
C698   C714    1.397   .     A
C698   H724    1.083   .     S
C698   C758    1.370   .     S
C699   H725    1.084   .     S
C699   C714    1.398   .     A
C699   C780    1.370   .     S
C700   H726    1.084   .     S
C700   C715    1.398   .     A
C700   C814    1.370   1_455 S
C701   C705    1.381   .     A
C701   C712    1.399   .     A
C701   H723    1.083   .     S
C702   C706    1.381   .     A
C702   C713    1.399   .     A
C702   H731    1.083   .     S
C703   H732    1.083   .     S
C703   C707    1.381   .     A
C703   C713    1.399   .     A
C704   C709    1.381   .     A
C704   C712    1.399   .     A
C704   H733    1.083   .     S
C705   C710    1.399   .     A
C705   H734    1.084   .     S
C706   C711    1.399   .     A
C706   H735    1.084   .     S
C707   H736    1.084   .     S
C707   C711    1.399   .     A
C708   O746    1.292   .     A
C708   O745    1.292   .     A
C708   C714    1.422   .     S
C709   H737    1.084   .     S
C709   C710    1.399   .     A
C710   C716    1.439   .     S
C711   C717    1.439   .     S
C713   C190    1.445   1_556 S
C715   C722    1.397   .     A
C716   O751    1.297   .     A
C716   O748    1.297   .     A
C717   O749    1.297   .     A
C717   O750    1.297   .     A
C718   O752    1.376   .     S
C718   N740    1.377   .     A
C719   O742    1.376   .     S
C719   N739    1.377   .     A
C719   C894    1.414   .     S
C720   N740    1.377   .     A
C720   O743    1.376   .     S
C721   N739    1.377   .     A
C721   O744    1.375   .     S
C721   C892    1.414   .     S
C722   H738    1.083   .     S
C722   C815    1.370   1_455 S
H727   O752    0.979   .     S
H728   O742    0.980   .     S
H729   O743    0.979   .     S
H730   O744    0.979   .     S
N739   Zn753   2.032   .     S
N740   Zn754   2.032   .     S
O741   Zn753   2.001   .     S
O745   Zn754   2.001   .     S
O746   Zn753   2.001   .     S
O747   Zn754   2.001   .     S
O748   Zn753   2.002   .     S
O749   Zn754   2.002   .     S
O750   Zn753   2.002   .     S
O751   Zn754   2.002   .     S
C755   O805    1.292   .     A
C755   O799    1.292   .     A
C755   C773    1.422   .     S
C756   C772    1.397   .     A
C756   H782    1.083   .     S
C756   C816    1.370   .     S
C757   H783    1.084   .     S
C757   C772    1.398   .     A
C757   C838    1.370   .     S
C758   H784    1.084   .     S
C758   C773    1.398   .     A
C759   C763    1.381   .     A
C759   C770    1.399   .     A
C759   H781    1.083   .     S
C760   C764    1.381   .     A
C760   C771    1.399   .     A
C760   H789    1.083   .     S
C761   H790    1.083   .     S
C761   C765    1.381   .     A
C761   C771    1.399   .     A
C762   C767    1.381   .     A
C762   C770    1.399   .     A
C762   H791    1.083   .     S
C763   C768    1.399   .     A
C763   H792    1.084   .     S
C764   C769    1.399   .     A
C764   H793    1.084   .     S
C765   H794    1.084   .     S
C765   C769    1.399   .     A
C766   O804    1.292   .     A
C766   O803    1.292   .     A
C766   C772    1.422   .     S
C767   H795    1.084   .     S
C767   C768    1.399   .     A
C768   C774    1.439   .     S
C769   C775    1.439   .     S
C771   C248    1.445   1_556 S
C773   C780    1.397   .     A
C774   O809    1.297   .     A
C774   O806    1.297   .     A
C775   O807    1.297   .     A
C775   O808    1.297   .     A
C776   O810    1.376   .     S
C776   N798    1.377   .     A
C777   O800    1.376   .     S
C777   N797    1.377   .     A
C777   C952    1.414   .     S
C778   N798    1.377   .     A
C778   O801    1.376   .     S
C779   N797    1.377   .     A
C779   O802    1.375   .     S
C779   C950    1.414   .     S
C780   H796    1.083   .     S
H785   O810    0.979   .     S
H786   O800    0.980   .     S
H787   O801    0.979   .     S
H788   O802    0.979   .     S
N797   Zn811   2.032   .     S
N798   Zn812   2.032   .     S
O799   Zn811   2.001   .     S
O803   Zn812   2.001   .     S
O804   Zn811   2.001   .     S
O805   Zn812   2.001   .     S
O806   Zn811   2.002   .     S
O807   Zn812   2.002   .     S
O808   Zn811   2.002   .     S
O809   Zn812   2.002   .     S
C813   O863    1.292   .     A
C813   O857    1.292   .     A
C813   C831    1.422   .     S
C814   C830    1.397   .     A
C814   H840    1.083   .     S
C814   C700    1.370   1_655 S
C815   H841    1.084   .     S
C815   C830    1.398   .     A
C815   C722    1.370   1_655 S
C816   H842    1.084   .     S
C816   C831    1.398   .     A
C817   C821    1.381   .     A
C817   C828    1.399   .     A
C817   H839    1.083   .     S
C818   C822    1.381   .     A
C818   C829    1.399   .     A
C818   H847    1.083   .     S
C819   H848    1.083   .     S
C819   C823    1.381   .     A
C819   C829    1.399   .     A
C820   C825    1.381   .     A
C820   C828    1.399   .     A
C820   H849    1.083   .     S
C821   C826    1.399   .     A
C821   H850    1.084   .     S
C822   C827    1.399   .     A
C822   H851    1.084   .     S
C823   H852    1.084   .     S
C823   C827    1.399   .     A
C824   O862    1.292   .     A
C824   O861    1.292   .     A
C824   C830    1.422   .     S
C825   H853    1.084   .     S
C825   C826    1.399   .     A
C826   C832    1.439   .     S
C827   C833    1.439   .     S
C829   C306    1.445   1_556 S
C831   C838    1.397   .     A
C832   O867    1.297   .     A
C832   O864    1.297   .     A
C833   O865    1.297   .     A
C833   O866    1.297   .     A
C834   O868    1.376   .     S
C834   N856    1.377   .     A
C835   O858    1.376   .     S
C835   N855    1.377   .     A
C835   C1010   1.414   .     S
C836   N856    1.377   .     A
C836   O859    1.376   .     S
C837   N855    1.377   .     A
C837   O860    1.375   .     S
C837   C1008   1.414   .     S
C838   H854    1.083   .     S
H843   O868    0.979   .     S
H844   O858    0.980   .     S
H845   O859    0.979   .     S
H846   O860    0.979   .     S
N855   Zn869   2.032   .     S
N856   Zn870   2.032   .     S
O857   Zn869   2.001   .     S
O861   Zn870   2.001   .     S
O862   Zn869   2.001   .     S
O863   Zn870   2.001   .     S
O864   Zn869   2.002   .     S
O865   Zn870   2.002   .     S
O866   Zn869   2.002   .     S
O867   Zn870   2.002   .     S
C871   O921    1.292   .     A
C871   O915    1.292   .     A
C871   C889    1.422   .     S
C872   C888    1.397   .     A
C872   H898    1.083   .     S
C872   C932    1.370   .     S
C873   H899    1.084   .     S
C873   C888    1.398   .     A
C873   C954    1.370   .     S
C874   H900    1.084   .     S
C874   C889    1.398   .     A
C874   C988    1.370   1_455 S
C875   C879    1.381   .     A
C875   C886    1.399   .     A
C875   H897    1.083   .     S
C876   C880    1.381   .     A
C876   C887    1.399   .     A
C876   H905    1.083   .     S
C877   H906    1.083   .     S
C877   C881    1.381   .     A
C877   C887    1.399   .     A
C878   C883    1.381   .     A
C878   C886    1.399   .     A
C878   H907    1.083   .     S
C879   C884    1.399   .     A
C879   H908    1.084   .     S
C880   C885    1.399   .     A
C880   H909    1.084   .     S
C881   H910    1.084   .     S
C881   C885    1.399   .     A
C882   O920    1.292   .     A
C882   O919    1.292   .     A
C882   C888    1.422   .     S
C883   H911    1.084   .     S
C883   C884    1.399   .     A
C884   C890    1.439   .     S
C885   C891    1.439   .     S
C887   C364    1.445   1_556 S
C889   C896    1.397   .     A
C890   O925    1.297   .     A
C890   O922    1.297   .     A
C891   O923    1.297   .     A
C891   O924    1.297   .     A
C892   O926    1.376   .     S
C892   N914    1.377   .     A
C893   O916    1.376   .     S
C893   N913    1.377   .     A
C893   C546    1.414   1_565 S
C894   N914    1.377   .     A
C894   O917    1.376   .     S
C895   N913    1.377   .     A
C895   O918    1.375   .     S
C895   C544    1.414   1_565 S
C896   H912    1.083   .     S
C896   C989    1.370   1_455 S
H901   O926    0.979   .     S
H902   O916    0.980   .     S
H903   O917    0.979   .     S
H904   O918    0.979   .     S
N913   Zn927   2.032   .     S
N914   Zn928   2.032   .     S
O915   Zn927   2.001   .     S
O919   Zn928   2.001   .     S
O920   Zn927   2.001   .     S
O921   Zn928   2.001   .     S
O922   Zn927   2.002   .     S
O923   Zn928   2.002   .     S
O924   Zn927   2.002   .     S
O925   Zn928   2.002   .     S
C929   O979    1.292   .     A
C929   O973    1.292   .     A
C929   C947    1.422   .     S
C930   C946    1.397   .     A
C930   H956    1.083   .     S
C930   C990    1.370   .     S
C931   H957    1.084   .     S
C931   C946    1.398   .     A
C931   C1012   1.370   .     S
C932   H958    1.084   .     S
C932   C947    1.398   .     A
C933   C937    1.381   .     A
C933   C944    1.399   .     A
C933   H955    1.083   .     S
C934   C938    1.381   .     A
C934   C945    1.399   .     A
C934   H963    1.083   .     S
C935   H964    1.083   .     S
C935   C939    1.381   .     A
C935   C945    1.399   .     A
C936   C941    1.381   .     A
C936   C944    1.399   .     A
C936   H965    1.083   .     S
C937   C942    1.399   .     A
C937   H966    1.084   .     S
C938   C943    1.399   .     A
C938   H967    1.084   .     S
C939   H968    1.084   .     S
C939   C943    1.399   .     A
C940   O978    1.292   .     A
C940   O977    1.292   .     A
C940   C946    1.422   .     S
C941   H969    1.084   .     S
C941   C942    1.399   .     A
C942   C948    1.439   .     S
C943   C949    1.439   .     S
C945   C422    1.445   1_556 S
C947   C954    1.397   .     A
C948   O983    1.297   .     A
C948   O980    1.297   .     A
C949   O981    1.297   .     A
C949   O982    1.297   .     A
C950   O984    1.376   .     S
C950   N972    1.377   .     A
C951   O974    1.376   .     S
C951   N971    1.377   .     A
C951   C604    1.414   1_565 S
C952   N972    1.377   .     A
C952   O975    1.376   .     S
C953   N971    1.377   .     A
C953   O976    1.375   .     S
C953   C602    1.414   1_565 S
C954   H970    1.083   .     S
H959   O984    0.979   .     S
H960   O974    0.980   .     S
H961   O975    0.979   .     S
H962   O976    0.979   .     S
N971   Zn985   2.032   .     S
N972   Zn986   2.032   .     S
O973   Zn985   2.001   .     S
O977   Zn986   2.001   .     S
O978   Zn985   2.001   .     S
O979   Zn986   2.001   .     S
O980   Zn985   2.002   .     S
O981   Zn986   2.002   .     S
O982   Zn985   2.002   .     S
O983   Zn986   2.002   .     S
C987   O1037   1.292   .     A
C987   O1031   1.292   .     A
C987   C1005   1.422   .     S
C988   C1004   1.397   .     A
C988   H1014   1.083   .     S
C988   C874    1.370   1_655 S
C989   H1015   1.084   .     S
C989   C1004   1.398   .     A
C989   C896    1.370   1_655 S
C990   H1016   1.084   .     S
C990   C1005   1.398   .     A
C991   C995    1.381   .     A
C991   C1002   1.399   .     A
C991   H1013   1.083   .     S
C992   C996    1.381   .     A
C992   C1003   1.399   .     A
C992   H1021   1.083   .     S
C993   H1022   1.083   .     S
C993   C997    1.381   .     A
C993   C1003   1.399   .     A
C994   C999    1.381   .     A
C994   C1002   1.399   .     A
C994   H1023   1.083   .     S
C995   C1000   1.399   .     A
C995   H1024   1.084   .     S
C996   C1001   1.399   .     A
C996   H1025   1.084   .     S
C997   H1026   1.084   .     S
C997   C1001   1.399   .     A
C998   O1036   1.292   .     A
C998   O1035   1.292   .     A
C998   C1004   1.422   .     S
C999   H1027   1.084   .     S
C999   C1000   1.399   .     A
C1000  C1006   1.439   .     S
C1001  C1007   1.439   .     S
C1003  C480    1.445   1_556 S
C1005  C1012   1.397   .     A
C1006  O1041   1.297   .     A
C1006  O1038   1.297   .     A
C1007  O1039   1.297   .     A
C1007  O1040   1.297   .     A
C1008  O1042   1.376   .     S
C1008  N1030   1.377   .     A
C1009  O1032   1.376   .     S
C1009  N1029   1.377   .     A
C1009  C662    1.414   1_565 S
C1010  N1030   1.377   .     A
C1010  O1033   1.376   .     S
C1011  N1029   1.377   .     A
C1011  O1034   1.375   .     S
C1011  C660    1.414   1_565 S
C1012  H1028   1.083   .     S
H1017  O1042   0.979   .     S
H1018  O1032   0.980   .     S
H1019  O1033   0.979   .     S
H1020  O1034   0.979   .     S
N1029  Zn1043  2.032   .     S
N1030  Zn1044  2.032   .     S
O1031  Zn1043  2.001   .     S
O1035  Zn1044  2.001   .     S
O1036  Zn1043  2.001   .     S
O1037  Zn1044  2.001   .     S
O1038  Zn1043  2.002   .     S
O1039  Zn1044  2.002   .     S
O1040  Zn1043  2.002   .     S
O1041  Zn1044  2.002   .     S
